MODEL 1
REMARK VINA RESULT:      -8.3      0.000      0.000
REMARK  3 active torsions:
REMARK  status: ('A' for Active; 'I' for Inactive)
REMARK    1  A    between atoms: C_9  and  N_10 
REMARK    2  A    between atoms: N_13  and  C_14 
REMARK    3  A    between atoms: C_14  and  C_15 
ROOT
HETATM    1  C   UNL     1       7.246  23.612  54.097  1.00  0.00    -0.006 A 
HETATM    2  C   UNL     1       8.099  23.684  55.222  1.00  0.00     0.052 A 
HETATM    3  C   UNL     1       7.972  24.734  56.198  1.00  0.00     0.100 C 
HETATM    4  N   UNL     1       7.885  25.586  56.982  1.00  0.00    -0.191 NA
HETATM    5  C   UNL     1       9.101  22.716  55.406  1.00  0.00     0.026 A 
HETATM    6  C   UNL     1       9.263  21.684  54.481  1.00  0.00     0.044 A 
HETATM    7  C   UNL     1       8.430  21.624  53.372  1.00  0.00     0.117 A 
HETATM    8  F   UNL     1       8.582  20.633  52.485  1.00  0.00    -0.206 F 
HETATM    9  C   UNL     1       7.433  22.572  53.170  1.00  0.00     0.052 A 
ENDROOT
BRANCH   1  10
HETATM   10  C   UNL     1       6.124  24.611  53.878  1.00  0.00     0.312 C 
BRANCH  10  11
HETATM   11  N   UNL     1       6.601  25.816  53.186  1.00  0.00     0.096 N 
HETATM   12  C   UNL     1       6.505  25.682  51.721  1.00  0.00     0.303 C 
HETATM   13  C   UNL     1       5.108  25.999  51.139  1.00  0.00     0.303 C 
HETATM   14  N   UNL     1       4.588  27.350  51.493  1.00  0.00     0.096 N 
HETATM   15  C   UNL     1       4.579  27.364  52.990  1.00  0.00     0.303 C 
HETATM   16  C   UNL     1       5.946  27.050  53.654  1.00  0.00     0.303 C 
BRANCH  14  17
HETATM   17  C   UNL     1       5.369  28.485  50.921  1.00  0.00     0.227 C 
HETATM   18  C   UNL     1       5.429  28.534  49.367  1.00  0.00     0.069 C 
HETATM   19  C   UNL     1       4.238  29.228  48.696  1.00  0.00     0.190 C 
HETATM   20  N   UNL     1       4.157  30.657  49.187  1.00  0.00    -0.066 N 
HETATM   21  C   UNL     1       2.876  28.693  49.146  1.00  0.00     0.035 C 
HETATM   22  C   UNL     1       5.311  31.571  48.931  1.00  0.00     0.270 C 
HETATM   23  H   UNL     1       3.370  31.094  48.685  1.00  0.00     0.280 HD
HETATM   24  C   UNL     1       3.696  30.457  50.613  1.00  0.00     0.190 C 
HETATM   25  C   UNL     1       2.521  29.497  50.405  1.00  0.00     0.035 C 
HETATM   26  C   UNL     1       4.843  29.856  51.437  1.00  0.00     0.069 C 
ENDBRANCH  14  17
ENDBRANCH  10  11
ENDBRANCH   1  10
TORSDOF 3
ENDMDL
MODEL 2
REMARK VINA RESULT:      -8.3      1.342      2.373
REMARK  3 active torsions:
REMARK  status: ('A' for Active; 'I' for Inactive)
REMARK    1  A    between atoms: C_9  and  N_10 
REMARK    2  A    between atoms: N_13  and  C_14 
REMARK    3  A    between atoms: C_14  and  C_15 
ROOT
HETATM    1  C   UNL     1       8.066  23.138  54.315  1.00  0.00    -0.006 A 
HETATM    2  C   UNL     1       8.414  22.644  55.593  1.00  0.00     0.052 A 
HETATM    3  C   UNL     1       8.560  23.520  56.725  1.00  0.00     0.100 C 
HETATM    4  N   UNL     1       8.695  24.222  57.640  1.00  0.00    -0.191 NA
HETATM    5  C   UNL     1       8.625  21.267  55.779  1.00  0.00     0.026 A 
HETATM    6  C   UNL     1       8.499  20.383  54.707  1.00  0.00     0.044 A 
HETATM    7  C   UNL     1       8.168  20.874  53.451  1.00  0.00     0.117 A 
HETATM    8  F   UNL     1       8.044  20.027  52.423  1.00  0.00    -0.206 F 
HETATM    9  C   UNL     1       7.955  22.233  53.245  1.00  0.00     0.052 A 
ENDROOT
BRANCH   1  10
HETATM   10  C   UNL     1       7.787  24.611  54.075  1.00  0.00     0.312 C 
BRANCH  10  11
HETATM   11  N   UNL     1       6.456  24.821  53.491  1.00  0.00     0.096 N 
HETATM   12  C   UNL     1       5.617  25.692  54.334  1.00  0.00     0.303 C 
HETATM   13  C   UNL     1       5.857  27.206  54.128  1.00  0.00     0.303 C 
HETATM   14  N   UNL     1       5.694  27.666  52.721  1.00  0.00     0.096 N 
HETATM   15  C   UNL     1       6.674  26.841  51.944  1.00  0.00     0.303 C 
HETATM   16  C   UNL     1       6.503  25.307  52.101  1.00  0.00     0.303 C 
BRANCH  14  17
HETATM   17  C   UNL     1       4.307  27.550  52.185  1.00  0.00     0.227 C 
HETATM   18  C   UNL     1       3.273  28.538  52.798  1.00  0.00     0.069 C 
HETATM   19  C   UNL     1       3.235  29.924  52.143  1.00  0.00     0.190 C 
HETATM   20  N   UNL     1       2.894  29.768  50.677  1.00  0.00    -0.066 N 
HETATM   21  C   UNL     1       4.606  30.600  52.047  1.00  0.00     0.035 C 
HETATM   22  C   UNL     1       1.585  29.148  50.307  1.00  0.00     0.270 C 
HETATM   23  H   UNL     1       2.842  30.721  50.287  1.00  0.00     0.280 HD
HETATM   24  C   UNL     1       4.164  29.153  50.137  1.00  0.00     0.190 C 
HETATM   25  C   UNL     1       5.216  30.093  50.732  1.00  0.00     0.035 C 
HETATM   26  C   UNL     1       4.278  27.706  50.637  1.00  0.00     0.069 C 
ENDBRANCH  14  17
ENDBRANCH  10  11
ENDBRANCH   1  10
TORSDOF 3
ENDMDL
MODEL 3
REMARK VINA RESULT:      -7.9      1.436      2.443
REMARK  3 active torsions:
REMARK  status: ('A' for Active; 'I' for Inactive)
REMARK    1  A    between atoms: C_9  and  N_10 
REMARK    2  A    between atoms: N_13  and  C_14 
REMARK    3  A    between atoms: C_14  and  C_15 
ROOT
HETATM    1  C   UNL     1       7.282  24.377  54.090  1.00  0.00    -0.006 A 
HETATM    2  C   UNL     1       7.143  23.885  55.408  1.00  0.00     0.052 A 
HETATM    3  C   UNL     1       6.738  24.741  56.492  1.00  0.00     0.100 C 
HETATM    4  N   UNL     1       6.426  25.428  57.375  1.00  0.00    -0.191 NA
HETATM    5  C   UNL     1       7.403  22.533  55.683  1.00  0.00     0.026 A 
HETATM    6  C   UNL     1       7.803  21.669  54.663  1.00  0.00     0.044 A 
HETATM    7  C   UNL     1       7.949  22.159  53.372  1.00  0.00     0.117 A 
HETATM    8  F   UNL     1       8.330  21.332  52.391  1.00  0.00    -0.206 F 
HETATM    9  C   UNL     1       7.698  23.495  53.078  1.00  0.00     0.052 A 
ENDROOT
BRANCH   1  10
HETATM   10  C   UNL     1       6.972  25.821  53.737  1.00  0.00     0.312 C 
BRANCH  10  11
HETATM   11  N   UNL     1       5.633  25.958  53.149  1.00  0.00     0.096 N 
HETATM   12  C   UNL     1       5.189  27.363  53.114  1.00  0.00     0.303 C 
HETATM   13  C   UNL     1       5.715  28.171  51.905  1.00  0.00     0.303 C 
HETATM   14  N   UNL     1       5.388  27.574  50.580  1.00  0.00     0.096 N 
HETATM   15  C   UNL     1       5.990  26.203  50.632  1.00  0.00     0.303 C 
HETATM   16  C   UNL     1       5.516  25.328  51.822  1.00  0.00     0.303 C 
BRANCH  14  17
HETATM   17  C   UNL     1       3.933  27.541  50.255  1.00  0.00     0.227 C 
HETATM   18  C   UNL     1       3.265  28.932  50.056  1.00  0.00     0.069 C 
HETATM   19  C   UNL     1       3.400  29.519  48.646  1.00  0.00     0.190 C 
HETATM   20  N   UNL     1       2.766  28.571  47.653  1.00  0.00    -0.066 N 
HETATM   21  C   UNL     1       4.840  29.556  48.127  1.00  0.00     0.035 C 
HETATM   22  C   UNL     1       1.310  28.259  47.787  1.00  0.00     0.270 C 
HETATM   23  H   UNL     1       2.845  29.020  46.729  1.00  0.00     0.280 HD
HETATM   24  C   UNL     1       3.753  27.426  47.659  1.00  0.00     0.190 C 
HETATM   25  C   UNL     1       5.073  28.183  47.481  1.00  0.00     0.035 C 
HETATM   26  C   UNL     1       3.649  26.675  48.993  1.00  0.00     0.069 C 
ENDBRANCH  14  17
ENDBRANCH  10  11
ENDBRANCH   1  10
TORSDOF 3
ENDMDL
MODEL 4
REMARK VINA RESULT:      -7.7      1.941      2.607
REMARK  3 active torsions:
REMARK  status: ('A' for Active; 'I' for Inactive)
REMARK    1  A    between atoms: C_9  and  N_10 
REMARK    2  A    between atoms: N_13  and  C_14 
REMARK    3  A    between atoms: C_14  and  C_15 
ROOT
HETATM    1  C   UNL     1       6.905  24.674  55.117  1.00  0.00    -0.006 A 
HETATM    2  C   UNL     1       7.839  23.620  54.995  1.00  0.00     0.052 A 
HETATM    3  C   UNL     1       7.903  22.804  53.811  1.00  0.00     0.100 C 
HETATM    4  N   UNL     1       7.952  22.132  52.866  1.00  0.00    -0.191 NA
HETATM    5  C   UNL     1       8.733  23.349  56.045  1.00  0.00     0.026 A 
HETATM    6  C   UNL     1       8.701  24.112  57.212  1.00  0.00     0.044 A 
HETATM    7  C   UNL     1       7.775  25.139  57.333  1.00  0.00     0.117 A 
HETATM    8  F   UNL     1       7.745  25.874  58.451  1.00  0.00    -0.206 F 
HETATM    9  C   UNL     1       6.880  25.423  56.306  1.00  0.00     0.052 A 
ENDROOT
BRANCH   1  10
HETATM   10  C   UNL     1       5.948  25.030  53.994  1.00  0.00     0.312 C 
BRANCH  10  11
HETATM   11  N   UNL     1       6.414  26.200  53.238  1.00  0.00     0.096 N 
HETATM   12  C   UNL     1       6.484  25.927  51.791  1.00  0.00     0.303 C 
HETATM   13  C   UNL     1       5.138  26.082  51.045  1.00  0.00     0.303 C 
HETATM   14  N   UNL     1       4.495  27.416  51.211  1.00  0.00     0.096 N 
HETATM   15  C   UNL     1       4.326  27.565  52.691  1.00  0.00     0.303 C 
HETATM   16  C   UNL     1       5.633  27.418  53.515  1.00  0.00     0.303 C 
BRANCH  14  17
HETATM   17  C   UNL     1       5.255  28.551  50.611  1.00  0.00     0.227 C 
HETATM   18  C   UNL     1       5.473  28.465  49.073  1.00  0.00     0.069 C 
HETATM   19  C   UNL     1       4.315  29.004  48.224  1.00  0.00     0.190 C 
HETATM   20  N   UNL     1       4.090  30.461  48.565  1.00  0.00    -0.066 N 
HETATM   21  C   UNL     1       2.952  28.411  48.589  1.00  0.00     0.035 C 
HETATM   22  C   UNL     1       5.202  31.433  48.335  1.00  0.00     0.270 C 
HETATM   23  H   UNL     1       3.333  30.791  47.948  1.00  0.00     0.280 HD
HETATM   24  C   UNL     1       3.497  30.356  49.951  1.00  0.00     0.190 C 
HETATM   25  C   UNL     1       2.416  29.296  49.723  1.00  0.00     0.035 C 
HETATM   26  C   UNL     1       4.589  29.919  50.937  1.00  0.00     0.069 C 
ENDBRANCH  14  17
ENDBRANCH  10  11
ENDBRANCH   1  10
TORSDOF 3
ENDMDL
MODEL 5
REMARK VINA RESULT:      -7.7      1.165      1.379
REMARK  3 active torsions:
REMARK  status: ('A' for Active; 'I' for Inactive)
REMARK    1  A    between atoms: C_9  and  N_10 
REMARK    2  A    between atoms: N_13  and  C_14 
REMARK    3  A    between atoms: C_14  and  C_15 
ROOT
HETATM    1  C   UNL     1       6.857  24.872  55.379  1.00  0.00    -0.006 A 
HETATM    2  C   UNL     1       7.854  25.061  56.364  1.00  0.00     0.052 A 
HETATM    3  C   UNL     1       7.918  26.265  57.148  1.00  0.00     0.100 C 
HETATM    4  N   UNL     1       7.986  27.241  57.775  1.00  0.00    -0.191 NA
HETATM    5  C   UNL     1       8.811  24.059  56.595  1.00  0.00     0.026 A 
HETATM    6  C   UNL     1       8.788  22.877  55.853  1.00  0.00     0.044 A 
HETATM    7  C   UNL     1       7.815  22.700  54.879  1.00  0.00     0.117 A 
HETATM    8  F   UNL     1       7.789  21.566  54.169  1.00  0.00    -0.206 F 
HETATM    9  C   UNL     1       6.858  23.680  54.634  1.00  0.00     0.052 A 
ENDROOT
BRANCH   1  10
HETATM   10  C   UNL     1       5.777  25.908  55.123  1.00  0.00     0.312 C 
BRANCH  10  11
HETATM   11  N   UNL     1       6.219  26.920  54.155  1.00  0.00     0.096 N 
HETATM   12  C   UNL     1       6.388  26.353  52.805  1.00  0.00     0.303 C 
HETATM   13  C   UNL     1       5.081  26.255  51.984  1.00  0.00     0.303 C 
HETATM   14  N   UNL     1       4.355  27.547  51.831  1.00  0.00     0.096 N 
HETATM   15  C   UNL     1       4.092  27.993  53.236  1.00  0.00     0.303 C 
HETATM   16  C   UNL     1       5.355  28.113  54.129  1.00  0.00     0.303 C 
BRANCH  14  17
HETATM   17  C   UNL     1       5.082  28.578  51.036  1.00  0.00     0.227 C 
HETATM   18  C   UNL     1       5.360  28.199  49.553  1.00  0.00     0.069 C 
HETATM   19  C   UNL     1       4.211  28.496  48.582  1.00  0.00     0.190 C 
HETATM   20  N   UNL     1       3.905  29.978  48.618  1.00  0.00    -0.066 N 
HETATM   21  C   UNL     1       2.865  27.915  49.022  1.00  0.00     0.035 C 
HETATM   22  C   UNL     1       4.978  30.942  48.228  1.00  0.00     0.270 C 
HETATM   23  H   UNL     1       3.157  30.137  47.927  1.00  0.00     0.280 HD
HETATM   24  C   UNL     1       3.267  30.119  49.981  1.00  0.00     0.190 C 
HETATM   25  C   UNL     1       2.246  28.979  49.941  1.00  0.00     0.035 C 
HETATM   26  C   UNL     1       4.341  29.947  51.063  1.00  0.00     0.069 C 
ENDBRANCH  14  17
ENDBRANCH  10  11
ENDBRANCH   1  10
TORSDOF 3
ENDMDL
MODEL 6
REMARK VINA RESULT:      -7.7      5.709      8.042
REMARK  3 active torsions:
REMARK  status: ('A' for Active; 'I' for Inactive)
REMARK    1  A    between atoms: C_9  and  N_10 
REMARK    2  A    between atoms: N_13  and  C_14 
REMARK    3  A    between atoms: C_14  and  C_15 
ROOT
HETATM    1  C   UNL     1       7.808  31.157  58.757  1.00  0.00    -0.006 A 
HETATM    2  C   UNL     1       9.164  31.421  59.058  1.00  0.00     0.052 A 
HETATM    3  C   UNL     1      10.211  31.163  58.106  1.00  0.00     0.100 C 
HETATM    4  N   UNL     1      11.064  30.943  57.349  1.00  0.00    -0.191 NA
HETATM    5  C   UNL     1       9.514  31.949  60.312  1.00  0.00     0.026 A 
HETATM    6  C   UNL     1       8.531  32.210  61.267  1.00  0.00     0.044 A 
HETATM    7  C   UNL     1       7.202  31.938  60.972  1.00  0.00     0.117 A 
HETATM    8  F   UNL     1       6.256  32.190  61.885  1.00  0.00    -0.206 F 
HETATM    9  C   UNL     1       6.834  31.415  59.736  1.00  0.00     0.052 A 
ENDROOT
BRANCH   1  10
HETATM   10  C   UNL     1       7.378  30.626  57.401  1.00  0.00     0.312 C 
BRANCH  10  11
HETATM   11  N   UNL     1       7.679  29.195  57.261  1.00  0.00     0.096 N 
HETATM   12  C   UNL     1       6.470  28.363  57.402  1.00  0.00     0.303 C 
HETATM   13  C   UNL     1       5.631  28.230  56.110  1.00  0.00     0.303 C 
HETATM   14  N   UNL     1       6.389  27.712  54.937  1.00  0.00     0.096 N 
HETATM   15  C   UNL     1       7.517  28.681  54.765  1.00  0.00     0.303 C 
HETATM   16  C   UNL     1       8.407  28.875  56.020  1.00  0.00     0.303 C 
BRANCH  14  17
HETATM   17  C   UNL     1       6.867  26.306  55.079  1.00  0.00     0.227 C 
HETATM   18  C   UNL     1       5.753  25.221  55.076  1.00  0.00     0.069 C 
HETATM   19  C   UNL     1       5.306  24.756  53.684  1.00  0.00     0.190 C 
HETATM   20  N   UNL     1       6.496  24.179  52.950  1.00  0.00    -0.066 N 
HETATM   21  C   UNL     1       4.918  25.901  52.745  1.00  0.00     0.035 C 
HETATM   22  C   UNL     1       7.192  22.991  53.532  1.00  0.00     0.270 C 
HETATM   23  H   UNL     1       6.144  23.846  52.040  1.00  0.00     0.280 HD
HETATM   24  C   UNL     1       7.306  25.423  52.668  1.00  0.00     0.190 C 
HETATM   25  C   UNL     1       6.230  26.340  52.079  1.00  0.00     0.035 C 
HETATM   26  C   UNL     1       7.909  25.944  53.979  1.00  0.00     0.069 C 
ENDBRANCH  14  17
ENDBRANCH  10  11
ENDBRANCH   1  10
TORSDOF 3
ENDMDL
MODEL 7
REMARK VINA RESULT:      -7.7      2.425      8.144
REMARK  3 active torsions:
REMARK  status: ('A' for Active; 'I' for Inactive)
REMARK    1  A    between atoms: C_9  and  N_10 
REMARK    2  A    between atoms: N_13  and  C_14 
REMARK    3  A    between atoms: C_14  and  C_15 
ROOT
HETATM    1  C   UNL     1       4.998  27.326  49.925  1.00  0.00    -0.006 A 
HETATM    2  C   UNL     1       5.064  28.535  49.195  1.00  0.00     0.052 A 
HETATM    3  C   UNL     1       5.689  29.711  49.741  1.00  0.00     0.100 C 
HETATM    4  N   UNL     1       6.178  30.668  50.181  1.00  0.00    -0.191 NA
HETATM    5  C   UNL     1       4.512  28.608  47.905  1.00  0.00     0.026 A 
HETATM    6  C   UNL     1       3.892  27.493  47.339  1.00  0.00     0.044 A 
HETATM    7  C   UNL     1       3.819  26.311  48.064  1.00  0.00     0.117 A 
HETATM    8  F   UNL     1       3.227  25.240  47.522  1.00  0.00    -0.206 F 
HETATM    9  C   UNL     1       4.358  26.218  49.342  1.00  0.00     0.052 A 
ENDROOT
BRANCH   1  10
HETATM   10  C   UNL     1       5.616  27.188  51.304  1.00  0.00     0.312 C 
BRANCH  10  11
HETATM   11  N   UNL     1       5.598  25.794  51.767  1.00  0.00     0.096 N 
HETATM   12  C   UNL     1       6.935  25.177  51.703  1.00  0.00     0.303 C 
HETATM   13  C   UNL     1       7.841  25.483  52.918  1.00  0.00     0.303 C 
HETATM   14  N   UNL     1       7.247  25.114  54.234  1.00  0.00     0.096 N 
HETATM   15  C   UNL     1       5.965  25.884  54.293  1.00  0.00     0.303 C 
HETATM   16  C   UNL     1       4.999  25.635  53.104  1.00  0.00     0.303 C 
BRANCH  14  17
HETATM   17  C   UNL     1       7.038  23.650  54.432  1.00  0.00     0.227 C 
HETATM   18  C   UNL     1       8.265  22.753  54.100  1.00  0.00     0.069 C 
HETATM   19  C   UNL     1       9.279  22.597  55.240  1.00  0.00     0.190 C 
HETATM   20  N   UNL     1       8.586  21.985  56.438  1.00  0.00    -0.066 N 
HETATM   21  C   UNL     1       9.754  23.926  55.832  1.00  0.00     0.035 C 
HETATM   22  C   UNL     1       7.973  20.629  56.298  1.00  0.00     0.270 C 
HETATM   23  H   UNL     1       9.309  21.864  57.162  1.00  0.00     0.280 HD
HETATM   24  C   UNL     1       7.710  23.130  56.894  1.00  0.00     0.190 C 
HETATM   25  C   UNL     1       8.724  24.277  56.916  1.00  0.00     0.035 C 
HETATM   26  C   UNL     1       6.573  23.332  55.883  1.00  0.00     0.069 C 
ENDBRANCH  14  17
ENDBRANCH  10  11
ENDBRANCH   1  10
TORSDOF 3
ENDMDL
MODEL 8
REMARK VINA RESULT:      -7.4      9.225     10.822
REMARK  3 active torsions:
REMARK  status: ('A' for Active; 'I' for Inactive)
REMARK    1  A    between atoms: C_9  and  N_10 
REMARK    2  A    between atoms: N_13  and  C_14 
REMARK    3  A    between atoms: C_14  and  C_15 
ROOT
HETATM    1  C   UNL     1       8.373  30.184  58.089  1.00  0.00    -0.006 A 
HETATM    2  C   UNL     1       7.972  29.632  56.851  1.00  0.00     0.052 A 
HETATM    3  C   UNL     1       6.593  29.324  56.575  1.00  0.00     0.100 C 
HETATM    4  N   UNL     1       5.486  29.059  56.351  1.00  0.00    -0.191 NA
HETATM    5  C   UNL     1       8.929  29.371  55.856  1.00  0.00     0.026 A 
HETATM    6  C   UNL     1      10.277  29.650  56.084  1.00  0.00     0.044 A 
HETATM    7  C   UNL     1      10.668  30.181  57.305  1.00  0.00     0.117 A 
HETATM    8  F   UNL     1      11.960  30.452  57.524  1.00  0.00    -0.206 F 
HETATM    9  C   UNL     1       9.737  30.447  58.304  1.00  0.00     0.052 A 
ENDROOT
BRANCH   1  10
HETATM   10  C   UNL     1       7.370  30.521  59.178  1.00  0.00     0.312 C 
BRANCH  10  11
HETATM   11  N   UNL     1       7.162  31.971  59.291  1.00  0.00     0.096 N 
HETATM   12  C   UNL     1       5.816  32.370  58.842  1.00  0.00     0.303 C 
HETATM   13  C   UNL     1       4.711  32.210  59.911  1.00  0.00     0.303 C 
HETATM   14  N   UNL     1       4.981  32.932  61.186  1.00  0.00     0.096 N 
HETATM   15  C   UNL     1       6.289  32.376  61.657  1.00  0.00     0.303 C 
HETATM   16  C   UNL     1       7.454  32.494  60.638  1.00  0.00     0.303 C 
BRANCH  14  17
HETATM   17  C   UNL     1       5.008  34.418  61.064  1.00  0.00     0.227 C 
HETATM   18  C   UNL     1       3.679  35.070  60.586  1.00  0.00     0.069 C 
HETATM   19  C   UNL     1       2.656  35.342  61.696  1.00  0.00     0.190 C 
HETATM   20  N   UNL     1       3.272  36.274  62.717  1.00  0.00    -0.066 N 
HETATM   21  C   UNL     1       2.351  34.122  62.569  1.00  0.00     0.035 C 
HETATM   22  C   UNL     1       3.711  37.633  62.277  1.00  0.00     0.270 C 
HETATM   23  H   UNL     1       2.541  36.459  63.420  1.00  0.00     0.280 HD
HETATM   24  C   UNL     1       4.283  35.367  63.379  1.00  0.00     0.190 C 
HETATM   25  C   UNL     1       3.419  34.137  63.672  1.00  0.00     0.035 C 
HETATM   26  C   UNL     1       5.434  35.092  62.401  1.00  0.00     0.069 C 
ENDBRANCH  14  17
ENDBRANCH  10  11
ENDBRANCH   1  10
TORSDOF 3
ENDMDL
MODEL 9
REMARK VINA RESULT:      -7.4      4.277      5.887
REMARK  3 active torsions:
REMARK  status: ('A' for Active; 'I' for Inactive)
REMARK    1  A    between atoms: C_9  and  N_10 
REMARK    2  A    between atoms: N_13  and  C_14 
REMARK    3  A    between atoms: C_14  and  C_15 
ROOT
HETATM    1  C   UNL     1       7.649  24.984  54.494  1.00  0.00    -0.006 A 
HETATM    2  C   UNL     1       7.191  24.326  53.329  1.00  0.00     0.052 A 
HETATM    3  C   UNL     1       6.648  25.058  52.215  1.00  0.00     0.100 C 
HETATM    4  N   UNL     1       6.195  25.640  51.318  1.00  0.00    -0.191 NA
HETATM    5  C   UNL     1       7.260  22.926  53.241  1.00  0.00     0.026 A 
HETATM    6  C   UNL     1       7.774  22.177  54.300  1.00  0.00     0.044 A 
HETATM    7  C   UNL     1       8.212  22.826  55.447  1.00  0.00     0.117 A 
HETATM    8  F   UNL     1       8.709  22.110  56.463  1.00  0.00    -0.206 F 
HETATM    9  C   UNL     1       8.152  24.211  55.555  1.00  0.00     0.052 A 
ENDROOT
BRANCH   1  10
HETATM   10  C   UNL     1       7.633  26.497  54.618  1.00  0.00     0.312 C 
BRANCH  10  11
HETATM   11  N   UNL     1       7.018  26.929  55.880  1.00  0.00     0.096 N 
HETATM   12  C   UNL     1       7.798  27.995  56.534  1.00  0.00     0.303 C 
HETATM   13  C   UNL     1       7.509  29.418  56.001  1.00  0.00     0.303 C 
HETATM   14  N   UNL     1       6.076  29.817  56.065  1.00  0.00     0.096 N 
HETATM   15  C   UNL     1       5.362  28.773  55.264  1.00  0.00     0.303 C 
HETATM   16  C   UNL     1       5.603  27.314  55.734  1.00  0.00     0.303 C 
BRANCH  14  17
HETATM   17  C   UNL     1       5.527  29.944  57.447  1.00  0.00     0.227 C 
HETATM   18  C   UNL     1       6.027  31.180  58.249  1.00  0.00     0.069 C 
HETATM   19  C   UNL     1       5.247  32.475  57.996  1.00  0.00     0.190 C 
HETATM   20  N   UNL     1       3.795  32.257  58.364  1.00  0.00    -0.066 N 
HETATM   21  C   UNL     1       5.114  32.838  56.514  1.00  0.00     0.035 C 
HETATM   22  C   UNL     1       3.459  31.892  59.774  1.00  0.00     0.270 C 
HETATM   23  H   UNL     1       3.318  33.159  58.215  1.00  0.00     0.280 HD
HETATM   24  C   UNL     1       3.338  31.342  57.252  1.00  0.00     0.190 C 
HETATM   25  C   UNL     1       3.864  32.093  56.025  1.00  0.00     0.035 C 
HETATM   26  C   UNL     1       3.970  29.957  57.443  1.00  0.00     0.069 C 
ENDBRANCH  14  17
ENDBRANCH  10  11
ENDBRANCH   1  10
TORSDOF 3
ENDMDL
MODEL 10
REMARK VINA RESULT:      -7.2      7.091      9.285
REMARK  3 active torsions:
REMARK  status: ('A' for Active; 'I' for Inactive)
REMARK    1  A    between atoms: C_9  and  N_10 
REMARK    2  A    between atoms: N_13  and  C_14 
REMARK    3  A    between atoms: C_14  and  C_15 
ROOT
HETATM    1  C   UNL     1       7.321  32.328  60.645  1.00  0.00    -0.006 A 
HETATM    2  C   UNL     1       7.994  31.894  61.810  1.00  0.00     0.052 A 
HETATM    3  C   UNL     1       9.015  30.881  61.757  1.00  0.00     0.100 C 
HETATM    4  N   UNL     1       9.828  30.054  61.724  1.00  0.00    -0.191 NA
HETATM    5  C   UNL     1       7.670  32.455  63.057  1.00  0.00     0.026 A 
HETATM    6  C   UNL     1       6.683  33.436  63.155  1.00  0.00     0.044 A 
HETATM    7  C   UNL     1       6.016  33.851  62.010  1.00  0.00     0.117 A 
HETATM    8  F   UNL     1       5.071  34.794  62.101  1.00  0.00    -0.206 F 
HETATM    9  C   UNL     1       6.321  33.309  60.766  1.00  0.00     0.052 A 
ENDROOT
BRANCH   1  10
HETATM   10  C   UNL     1       7.665  31.782  59.271  1.00  0.00     0.312 C 
BRANCH  10  11
HETATM   11  N   UNL     1       7.039  30.474  59.038  1.00  0.00     0.096 N 
HETATM   12  C   UNL     1       5.856  30.579  58.164  1.00  0.00     0.303 C 
HETATM   13  C   UNL     1       6.177  30.604  56.652  1.00  0.00     0.303 C 
HETATM   14  N   UNL     1       6.975  29.440  56.175  1.00  0.00     0.096 N 
HETATM   15  C   UNL     1       8.221  29.478  57.005  1.00  0.00     0.303 C 
HETATM   16  C   UNL     1       7.985  29.460  58.538  1.00  0.00     0.303 C 
BRANCH  14  17
HETATM   17  C   UNL     1       6.274  28.126  56.267  1.00  0.00     0.227 C 
HETATM   18  C   UNL     1       5.035  27.969  55.340  1.00  0.00     0.069 C 
HETATM   19  C   UNL     1       5.350  27.515  53.910  1.00  0.00     0.190 C 
HETATM   20  N   UNL     1       6.048  26.174  53.959  1.00  0.00    -0.066 N 
HETATM   21  C   UNL     1       6.414  28.366  53.212  1.00  0.00     0.035 C 
HETATM   22  C   UNL     1       5.330  25.012  54.566  1.00  0.00     0.270 C 
HETATM   23  H   UNL     1       6.206  25.892  52.980  1.00  0.00     0.280 HD
HETATM   24  C   UNL     1       7.399  26.559  54.517  1.00  0.00     0.190 C 
HETATM   25  C   UNL     1       7.758  27.741  53.611  1.00  0.00     0.035 C 
HETATM   26  C   UNL     1       7.246  26.941  55.995  1.00  0.00     0.069 C 
ENDBRANCH  14  17
ENDBRANCH  10  11
ENDBRANCH   1  10
TORSDOF 3
ENDMDL
