MODEL 1
REMARK VINA RESULT:     -10.4      0.000      0.000
REMARK  8 active torsions:
REMARK  status: ('A' for Active; 'I' for Inactive)
REMARK    1  A    between atoms: C_12  and  S_13 
REMARK    2  A    between atoms: S_13  and  C_14 
REMARK    3  A    between atoms: C_14  and  C_15 
REMARK       I    between atoms: C_15  and  N_16 
REMARK    4  A    between atoms: N_16  and  C_17 
REMARK    5  A    between atoms: C_17  and  C_18 
REMARK    6  A    between atoms: C_18  and  C_19 
REMARK    7  A    between atoms: C_21  and  O_22 
REMARK    8  A    between atoms: C_24  and  O_25 
ROOT
HETATM    1  C   UNL     1       7.484  29.248  58.024  1.00  0.00     0.185 C 
ENDROOT
BRANCH   1   2
HETATM    2  S   UNL     1       7.458  28.408  56.413  1.00  0.00    -0.080 SA
BRANCH   2   3
HETATM    3  C   UNL     1       7.766  26.773  56.891  1.00  0.00     0.197 A 
HETATM    4  N   UNL     1       7.889  25.665  56.068  1.00  0.00    -0.271 N 
HETATM    5  C   UNL     1       7.709  25.434  54.673  1.00  0.00     0.054 A 
HETATM    6  C   UNL     1       8.285  24.659  56.941  1.00  0.00     0.159 A 
HETATM    7  C   UNL     1       8.036  24.141  54.194  1.00  0.00    -0.003 A 
HETATM    8  C   UNL     1       7.215  26.400  53.790  1.00  0.00     0.031 A 
HETATM    9  C   UNL     1       8.520  23.095  55.133  1.00  0.00    -0.046 A 
HETATM   10  C   UNL     1       7.883  23.873  52.823  1.00  0.00     0.014 A 
HETATM   11  C   UNL     1       8.896  21.733  54.620  1.00  0.00     0.049 C 
HETATM   12  C   UNL     1       8.609  23.379  56.443  1.00  0.00     0.060 A 
HETATM   13  C   UNL     1       7.405  24.849  51.949  1.00  0.00     0.001 A 
HETATM   14  C   UNL     1       7.067  26.106  52.433  1.00  0.00     0.002 A 
HETATM   15  N   UNL     1       8.298  25.106  58.178  1.00  0.00    -0.129 NA
HETATM   16  N   UNL     1       7.971  26.430  58.146  1.00  0.00    -0.122 NA
ENDBRANCH   2   3
ENDBRANCH   1   2
BRANCH   1  17
HETATM   17  C   UNL     1       8.841  29.893  58.240  1.00  0.00     0.227 C 
HETATM   18  N   UNL     1       9.079  30.596  59.393  1.00  0.00    -0.360 N 
HETATM   19  H   UNL     1       9.992  31.039  59.379  1.00  0.00     0.162 HD
HETATM   20  O   UNL     1       9.754  29.784  57.420  1.00  0.00    -0.273 OA
BRANCH  18  21
HETATM   21  C   UNL     1       8.081  31.134  60.303  1.00  0.00     0.127 C 
BRANCH  21  22
HETATM   22  C   UNL     1       8.712  31.819  61.514  1.00  0.00     0.058 C 
BRANCH  22  23
HETATM   23  C   UNL     1       7.662  32.187  62.534  1.00  0.00    -0.054 A 
HETATM   24  C   UNL     1       6.305  31.944  62.267  1.00  0.00     0.046 A 
HETATM   25  C   UNL     1       5.313  32.336  63.172  1.00  0.00     0.102 A 
HETATM   26  C   UNL     1       5.680  32.953  64.383  1.00  0.00     0.101 A 
HETATM   27  C   UNL     1       7.032  33.181  64.655  1.00  0.00     0.040 A 
HETATM   28  C   UNL     1       8.016  32.808  63.734  1.00  0.00     0.010 A 
BRANCH  25  29
HETATM   29  O   UNL     1       3.969  32.142  62.966  1.00  0.00    -0.353 OA
HETATM   30  C   UNL     1       3.333  32.998  62.025  1.00  0.00     0.210 C 
ENDBRANCH  25  29
BRANCH  26  31
HETATM   31  O   UNL     1       4.649  33.298  65.221  1.00  0.00    -0.353 OA
HETATM   32  C   UNL     1       4.977  33.964  66.431  1.00  0.00     0.210 C 
ENDBRANCH  26  31
ENDBRANCH  22  23
ENDBRANCH  21  22
ENDBRANCH  18  21
ENDBRANCH   1  17
TORSDOF 8
ENDMDL
MODEL 2
REMARK VINA RESULT:      -9.8      5.632      9.784
REMARK  8 active torsions:
REMARK  status: ('A' for Active; 'I' for Inactive)
REMARK    1  A    between atoms: C_12  and  S_13 
REMARK    2  A    between atoms: S_13  and  C_14 
REMARK    3  A    between atoms: C_14  and  C_15 
REMARK       I    between atoms: C_15  and  N_16 
REMARK    4  A    between atoms: N_16  and  C_17 
REMARK    5  A    between atoms: C_17  and  C_18 
REMARK    6  A    between atoms: C_18  and  C_19 
REMARK    7  A    between atoms: C_21  and  O_22 
REMARK    8  A    between atoms: C_24  and  O_25 
ROOT
HETATM    1  C   UNL     1       6.018  29.045  55.763  1.00  0.00     0.185 C 
ENDROOT
BRANCH   1   2
HETATM    2  S   UNL     1       7.705  28.458  55.423  1.00  0.00    -0.080 SA
BRANCH   2   3
HETATM    3  C   UNL     1       7.786  27.078  56.465  1.00  0.00     0.197 A 
HETATM    4  N   UNL     1       7.887  25.747  56.091  1.00  0.00    -0.271 N 
HETATM    5  C   UNL     1       7.845  25.054  54.846  1.00  0.00     0.054 A 
HETATM    6  C   UNL     1       8.075  25.088  57.301  1.00  0.00     0.159 A 
HETATM    7  C   UNL     1       8.089  23.659  54.884  1.00  0.00    -0.003 A 
HETATM    8  C   UNL     1       7.556  25.679  53.628  1.00  0.00     0.031 A 
HETATM    9  C   UNL     1       8.352  22.981  56.180  1.00  0.00    -0.046 A 
HETATM   10  C   UNL     1       8.066  22.939  53.678  1.00  0.00     0.014 A 
HETATM   11  C   UNL     1       8.641  21.506  56.217  1.00  0.00     0.049 C 
HETATM   12  C   UNL     1       8.321  23.698  57.316  1.00  0.00     0.060 A 
HETATM   13  C   UNL     1       7.793  23.575  52.466  1.00  0.00     0.001 A 
HETATM   14  C   UNL     1       7.534  24.938  52.443  1.00  0.00     0.002 A 
HETATM   15  N   UNL     1       7.994  25.937  58.302  1.00  0.00    -0.129 NA
HETATM   16  N   UNL     1       7.811  27.183  57.777  1.00  0.00    -0.122 NA
ENDBRANCH   2   3
ENDBRANCH   1   2
BRANCH   1  17
HETATM   17  C   UNL     1       5.031  27.916  55.534  1.00  0.00     0.227 C 
HETATM   18  N   UNL     1       4.548  27.685  54.272  1.00  0.00    -0.360 N 
HETATM   19  H   UNL     1       3.842  26.957  54.268  1.00  0.00     0.162 HD
HETATM   20  O   UNL     1       4.662  27.175  56.448  1.00  0.00    -0.273 OA
BRANCH  18  21
HETATM   21  C   UNL     1       4.568  28.613  53.153  1.00  0.00     0.127 C 
BRANCH  21  22
HETATM   22  C   UNL     1       5.773  28.392  52.239  1.00  0.00     0.058 C 
BRANCH  22  23
HETATM   23  C   UNL     1       5.340  27.867  50.891  1.00  0.00    -0.054 A 
HETATM   24  C   UNL     1       5.341  28.716  49.772  1.00  0.00     0.046 A 
HETATM   25  C   UNL     1       4.883  28.266  48.529  1.00  0.00     0.102 A 
HETATM   26  C   UNL     1       4.446  26.935  48.387  1.00  0.00     0.101 A 
HETATM   27  C   UNL     1       4.459  26.087  49.499  1.00  0.00     0.040 A 
HETATM   28  C   UNL     1       4.895  26.551  50.744  1.00  0.00     0.010 A 
BRANCH  25  29
HETATM   29  O   UNL     1       4.844  29.047  47.399  1.00  0.00    -0.353 OA
HETATM   30  C   UNL     1       3.846  30.059  47.352  1.00  0.00     0.210 C 
ENDBRANCH  25  29
BRANCH  26  31
HETATM   31  O   UNL     1       4.022  26.569  47.135  1.00  0.00    -0.353 OA
HETATM   32  C   UNL     1       2.939  25.656  47.046  1.00  0.00     0.210 C 
ENDBRANCH  26  31
ENDBRANCH  22  23
ENDBRANCH  21  22
ENDBRANCH  18  21
ENDBRANCH   1  17
TORSDOF 8
ENDMDL
MODEL 3
REMARK VINA RESULT:      -9.8      3.168     10.746
REMARK  8 active torsions:
REMARK  status: ('A' for Active; 'I' for Inactive)
REMARK    1  A    between atoms: C_12  and  S_13 
REMARK    2  A    between atoms: S_13  and  C_14 
REMARK    3  A    between atoms: C_14  and  C_15 
REMARK       I    between atoms: C_15  and  N_16 
REMARK    4  A    between atoms: N_16  and  C_17 
REMARK    5  A    between atoms: C_17  and  C_18 
REMARK    6  A    between atoms: C_18  and  C_19 
REMARK    7  A    between atoms: C_21  and  O_22 
REMARK    8  A    between atoms: C_24  and  O_25 
ROOT
HETATM    1  C   UNL     1       7.493  28.844  57.098  1.00  0.00     0.185 C 
ENDROOT
BRANCH   1   2
HETATM    2  S   UNL     1       6.800  30.393  57.749  1.00  0.00    -0.080 SA
BRANCH   2   3
HETATM    3  C   UNL     1       7.765  30.610  59.171  1.00  0.00     0.197 A 
HETATM    4  N   UNL     1       7.503  31.446  60.245  1.00  0.00    -0.271 N 
HETATM    5  C   UNL     1       6.515  32.437  60.521  1.00  0.00     0.054 A 
HETATM    6  C   UNL     1       8.497  31.116  61.158  1.00  0.00     0.159 A 
HETATM    7  C   UNL     1       6.538  33.017  61.813  1.00  0.00    -0.003 A 
HETATM    8  C   UNL     1       5.567  32.860  59.583  1.00  0.00     0.031 A 
HETATM    9  C   UNL     1       7.571  32.604  62.800  1.00  0.00    -0.046 A 
HETATM   10  C   UNL     1       5.576  33.991  62.131  1.00  0.00     0.014 A 
HETATM   11  C   UNL     1       7.576  33.197  64.181  1.00  0.00     0.049 C 
HETATM   12  C   UNL     1       8.499  31.702  62.441  1.00  0.00     0.060 A 
HETATM   13  C   UNL     1       4.625  34.394  61.193  1.00  0.00     0.001 A 
HETATM   14  C   UNL     1       4.626  33.834  59.922  1.00  0.00     0.002 A 
HETATM   15  N   UNL     1       9.326  30.239  60.634  1.00  0.00    -0.129 NA
HETATM   16  N   UNL     1       8.867  29.925  59.389  1.00  0.00    -0.122 NA
ENDBRANCH   2   3
ENDBRANCH   1   2
BRANCH   1  17
HETATM   17  C   UNL     1       8.313  29.137  55.855  1.00  0.00     0.227 C 
HETATM   18  N   UNL     1       7.871  28.694  54.635  1.00  0.00    -0.360 N 
HETATM   19  H   UNL     1       8.544  28.886  53.900  1.00  0.00     0.162 HD
HETATM   20  O   UNL     1       9.359  29.787  55.899  1.00  0.00    -0.273 OA
BRANCH  18  21
HETATM   21  C   UNL     1       6.890  27.648  54.394  1.00  0.00     0.127 C 
BRANCH  21  22
HETATM   22  C   UNL     1       7.211  26.830  53.144  1.00  0.00     0.058 C 
BRANCH  22  23
HETATM   23  C   UNL     1       7.456  25.382  53.495  1.00  0.00    -0.054 A 
HETATM   24  C   UNL     1       7.626  25.001  54.836  1.00  0.00     0.046 A 
HETATM   25  C   UNL     1       7.916  23.676  55.176  1.00  0.00     0.102 A 
HETATM   26  C   UNL     1       8.006  22.701  54.163  1.00  0.00     0.101 A 
HETATM   27  C   UNL     1       7.822  23.079  52.830  1.00  0.00     0.040 A 
HETATM   28  C   UNL     1       7.556  24.410  52.497  1.00  0.00     0.010 A 
BRANCH  25  29
HETATM   29  O   UNL     1       8.108  23.240  56.464  1.00  0.00    -0.353 OA
HETATM   30  C   UNL     1       8.743  24.143  57.360  1.00  0.00     0.210 C 
ENDBRANCH  25  29
BRANCH  26  31
HETATM   31  O   UNL     1       8.284  21.423  54.579  1.00  0.00    -0.353 OA
HETATM   32  C   UNL     1       8.653  20.473  53.590  1.00  0.00     0.210 C 
ENDBRANCH  26  31
ENDBRANCH  22  23
ENDBRANCH  21  22
ENDBRANCH  18  21
ENDBRANCH   1  17
TORSDOF 8
ENDMDL
MODEL 4
REMARK VINA RESULT:      -9.7      1.139      2.471
REMARK  8 active torsions:
REMARK  status: ('A' for Active; 'I' for Inactive)
REMARK    1  A    between atoms: C_12  and  S_13 
REMARK    2  A    between atoms: S_13  and  C_14 
REMARK    3  A    between atoms: C_14  and  C_15 
REMARK       I    between atoms: C_15  and  N_16 
REMARK    4  A    between atoms: N_16  and  C_17 
REMARK    5  A    between atoms: C_17  and  C_18 
REMARK    6  A    between atoms: C_18  and  C_19 
REMARK    7  A    between atoms: C_21  and  O_22 
REMARK    8  A    between atoms: C_24  and  O_25 
ROOT
HETATM    1  C   UNL     1       7.687  29.996  57.776  1.00  0.00     0.185 C 
ENDROOT
BRANCH   1   2
HETATM    2  S   UNL     1       7.491  28.189  57.767  1.00  0.00    -0.080 SA
BRANCH   2   3
HETATM    3  C   UNL     1       7.540  27.864  56.067  1.00  0.00     0.197 A 
HETATM    4  N   UNL     1       7.687  26.631  55.451  1.00  0.00    -0.271 N 
HETATM    5  C   UNL     1       7.950  25.310  55.914  1.00  0.00     0.054 A 
HETATM    6  C   UNL     1       7.500  26.922  54.104  1.00  0.00     0.159 A 
HETATM    7  C   UNL     1       7.930  24.278  54.943  1.00  0.00    -0.003 A 
HETATM    8  C   UNL     1       8.242  25.006  57.248  1.00  0.00     0.031 A 
HETATM    9  C   UNL     1       7.665  24.599  53.516  1.00  0.00    -0.046 A 
HETATM   10  C   UNL     1       8.176  22.958  55.358  1.00  0.00     0.014 A 
HETATM   11  C   UNL     1       7.614  23.501  52.491  1.00  0.00     0.049 C 
HETATM   12  C   UNL     1       7.480  25.879  53.154  1.00  0.00     0.060 A 
HETATM   13  C   UNL     1       8.449  22.664  56.694  1.00  0.00     0.001 A 
HETATM   14  C   UNL     1       8.488  23.686  57.634  1.00  0.00     0.002 A 
HETATM   15  N   UNL     1       7.355  28.218  53.932  1.00  0.00    -0.129 NA
HETATM   16  N   UNL     1       7.382  28.807  55.162  1.00  0.00    -0.122 NA
ENDBRANCH   2   3
ENDBRANCH   1   2
BRANCH   1  17
HETATM   17  C   UNL     1       9.124  30.351  58.110  1.00  0.00     0.227 C 
HETATM   18  N   UNL     1       9.504  30.470  59.422  1.00  0.00    -0.360 N 
HETATM   19  H   UNL     1      10.465  30.784  59.507  1.00  0.00     0.162 HD
HETATM   20  O   UNL     1       9.977  30.514  57.235  1.00  0.00    -0.273 OA
BRANCH  18  21
HETATM   21  C   UNL     1       8.626  30.663  60.565  1.00  0.00     0.127 C 
BRANCH  21  22
HETATM   22  C   UNL     1       8.794  32.045  61.195  1.00  0.00     0.058 C 
BRANCH  22  23
HETATM   23  C   UNL     1       7.734  32.294  62.241  1.00  0.00    -0.054 A 
HETATM   24  C   UNL     1       6.382  32.057  61.944  1.00  0.00     0.046 A 
HETATM   25  C   UNL     1       5.381  32.341  62.878  1.00  0.00     0.102 A 
HETATM   26  C   UNL     1       5.733  32.840  64.147  1.00  0.00     0.101 A 
HETATM   27  C   UNL     1       7.080  33.062  64.446  1.00  0.00     0.040 A 
HETATM   28  C   UNL     1       8.073  32.798  63.499  1.00  0.00     0.010 A 
BRANCH  25  29
HETATM   29  O   UNL     1       4.041  32.146  62.647  1.00  0.00    -0.353 OA
HETATM   30  C   UNL     1       3.508  32.699  61.449  1.00  0.00     0.210 C 
ENDBRANCH  25  29
BRANCH  26  31
HETATM   31  O   UNL     1       4.693  33.084  65.009  1.00  0.00    -0.353 OA
HETATM   32  C   UNL     1       4.326  34.436  65.234  1.00  0.00     0.210 C 
ENDBRANCH  26  31
ENDBRANCH  22  23
ENDBRANCH  21  22
ENDBRANCH  18  21
ENDBRANCH   1  17
TORSDOF 8
ENDMDL
MODEL 5
REMARK VINA RESULT:      -9.0      1.770      2.392
REMARK  8 active torsions:
REMARK  status: ('A' for Active; 'I' for Inactive)
REMARK    1  A    between atoms: C_12  and  S_13 
REMARK    2  A    between atoms: S_13  and  C_14 
REMARK    3  A    between atoms: C_14  and  C_15 
REMARK       I    between atoms: C_15  and  N_16 
REMARK    4  A    between atoms: N_16  and  C_17 
REMARK    5  A    between atoms: C_17  and  C_18 
REMARK    6  A    between atoms: C_18  and  C_19 
REMARK    7  A    between atoms: C_21  and  O_22 
REMARK    8  A    between atoms: C_24  and  O_25 
ROOT
HETATM    1  C   UNL     1       7.991  29.787  59.021  1.00  0.00     0.185 C 
ENDROOT
BRANCH   1   2
HETATM    2  S   UNL     1       7.362  29.768  57.316  1.00  0.00    -0.080 SA
BRANCH   2   3
HETATM    3  C   UNL     1       7.497  28.084  56.936  1.00  0.00     0.197 A 
HETATM    4  N   UNL     1       6.845  27.396  55.925  1.00  0.00    -0.271 N 
HETATM    5  C   UNL     1       5.830  27.732  54.984  1.00  0.00     0.054 A 
HETATM    6  C   UNL     1       7.429  26.135  55.969  1.00  0.00     0.159 A 
HETATM    7  C   UNL     1       5.495  26.742  54.027  1.00  0.00    -0.003 A 
HETATM    8  C   UNL     1       5.155  28.958  54.984  1.00  0.00     0.031 A 
HETATM    9  C   UNL     1       6.175  25.420  54.048  1.00  0.00    -0.046 A 
HETATM   10  C   UNL     1       4.505  27.035  53.073  1.00  0.00     0.014 A 
HETATM   11  C   UNL     1       5.842  24.382  53.014  1.00  0.00     0.049 C 
HETATM   12  C   UNL     1       7.084  25.165  55.004  1.00  0.00     0.060 A 
HETATM   13  C   UNL     1       3.851  28.267  53.072  1.00  0.00     0.001 A 
HETATM   14  C   UNL     1       4.171  29.222  54.028  1.00  0.00     0.002 A 
HETATM   15  N   UNL     1       8.273  26.056  56.974  1.00  0.00    -0.129 NA
HETATM   16  N   UNL     1       8.314  27.277  57.580  1.00  0.00    -0.122 NA
ENDBRANCH   2   3
ENDBRANCH   1   2
BRANCH   1  17
HETATM   17  C   UNL     1       9.048  30.866  59.163  1.00  0.00     0.227 C 
HETATM   18  N   UNL     1       9.372  31.335  60.410  1.00  0.00    -0.360 N 
HETATM   19  H   UNL     1      10.032  32.104  60.361  1.00  0.00     0.162 HD
HETATM   20  O   UNL     1       9.650  31.323  58.189  1.00  0.00    -0.273 OA
BRANCH  18  21
HETATM   21  C   UNL     1       8.577  31.204  61.620  1.00  0.00     0.127 C 
BRANCH  21  22
HETATM   22  C   UNL     1       8.828  32.347  62.603  1.00  0.00     0.058 C 
BRANCH  22  23
HETATM   23  C   UNL     1       7.573  32.681  63.373  1.00  0.00    -0.054 A 
HETATM   24  C   UNL     1       6.315  32.335  62.854  1.00  0.00     0.046 A 
HETATM   25  C   UNL     1       5.139  32.693  63.521  1.00  0.00     0.102 A 
HETATM   26  C   UNL     1       5.216  33.379  64.749  1.00  0.00     0.101 A 
HETATM   27  C   UNL     1       6.469  33.710  65.272  1.00  0.00     0.040 A 
HETATM   28  C   UNL     1       7.639  33.371  64.586  1.00  0.00     0.010 A 
BRANCH  25  29
HETATM   29  O   UNL     1       3.878  32.399  63.062  1.00  0.00    -0.353 OA
HETATM   30  C   UNL     1       3.498  32.972  61.817  1.00  0.00     0.210 C 
ENDBRANCH  25  29
BRANCH  26  31
HETATM   31  O   UNL     1       4.018  33.685  65.345  1.00  0.00    -0.353 OA
HETATM   32  C   UNL     1       3.630  35.049  65.385  1.00  0.00     0.210 C 
ENDBRANCH  26  31
ENDBRANCH  22  23
ENDBRANCH  21  22
ENDBRANCH  18  21
ENDBRANCH   1  17
TORSDOF 8
ENDMDL
MODEL 6
REMARK VINA RESULT:      -9.0      2.047      2.687
REMARK  8 active torsions:
REMARK  status: ('A' for Active; 'I' for Inactive)
REMARK    1  A    between atoms: C_12  and  S_13 
REMARK    2  A    between atoms: S_13  and  C_14 
REMARK    3  A    between atoms: C_14  and  C_15 
REMARK       I    between atoms: C_15  and  N_16 
REMARK    4  A    between atoms: N_16  and  C_17 
REMARK    5  A    between atoms: C_17  and  C_18 
REMARK    6  A    between atoms: C_18  and  C_19 
REMARK    7  A    between atoms: C_21  and  O_22 
REMARK    8  A    between atoms: C_24  and  O_25 
ROOT
HETATM    1  C   UNL     1       5.657  29.180  56.513  1.00  0.00     0.185 C 
ENDROOT
BRANCH   1   2
HETATM    2  S   UNL     1       7.243  28.672  55.786  1.00  0.00    -0.080 SA
BRANCH   2   3
HETATM    3  C   UNL     1       7.529  27.188  56.630  1.00  0.00     0.197 A 
HETATM    4  N   UNL     1       7.745  25.935  56.078  1.00  0.00    -0.271 N 
HETATM    5  C   UNL     1       7.699  25.406  54.755  1.00  0.00     0.054 A 
HETATM    6  C   UNL     1       8.072  25.151  57.179  1.00  0.00     0.159 A 
HETATM    7  C   UNL     1       8.088  24.053  54.595  1.00  0.00    -0.003 A 
HETATM    8  C   UNL     1       7.275  26.146  53.645  1.00  0.00     0.031 A 
HETATM    9  C   UNL     1       8.497  23.248  55.776  1.00  0.00    -0.046 A 
HETATM   10  C   UNL     1       8.067  23.495  53.306  1.00  0.00     0.014 A 
HETATM   11  C   UNL     1       8.939  21.822  55.602  1.00  0.00     0.049 C 
HETATM   12  C   UNL     1       8.460  23.807  56.997  1.00  0.00     0.060 A 
HETATM   13  C   UNL     1       7.658  24.246  52.204  1.00  0.00     0.001 A 
HETATM   14  C   UNL     1       7.259  25.565  52.375  1.00  0.00     0.002 A 
HETATM   15  N   UNL     1       7.963  25.852  58.286  1.00  0.00    -0.129 NA
HETATM   16  N   UNL     1       7.622  27.126  57.942  1.00  0.00    -0.122 NA
ENDBRANCH   2   3
ENDBRANCH   1   2
BRANCH   1  17
HETATM   17  C   UNL     1       5.206  30.488  55.890  1.00  0.00     0.227 C 
HETATM   18  N   UNL     1       5.471  31.669  56.533  1.00  0.00    -0.360 N 
HETATM   19  H   UNL     1       5.052  32.459  56.054  1.00  0.00     0.162 HD
HETATM   20  O   UNL     1       4.628  30.529  54.802  1.00  0.00    -0.273 OA
BRANCH  18  21
HETATM   21  C   UNL     1       5.812  31.835  57.937  1.00  0.00     0.127 C 
BRANCH  21  22
HETATM   22  C   UNL     1       5.158  33.074  58.548  1.00  0.00     0.058 C 
BRANCH  22  23
HETATM   23  C   UNL     1       5.081  32.958  60.051  1.00  0.00    -0.054 A 
HETATM   24  C   UNL     1       6.111  32.319  60.762  1.00  0.00     0.046 A 
HETATM   25  C   UNL     1       6.027  32.146  62.147  1.00  0.00     0.102 A 
HETATM   26  C   UNL     1       4.912  32.647  62.846  1.00  0.00     0.101 A 
HETATM   27  C   UNL     1       3.894  33.295  62.140  1.00  0.00     0.040 A 
HETATM   28  C   UNL     1       3.974  33.443  60.752  1.00  0.00     0.010 A 
BRANCH  25  29
HETATM   29  O   UNL     1       6.990  31.519  62.900  1.00  0.00    -0.353 OA
HETATM   30  C   UNL     1       8.221  31.224  62.252  1.00  0.00     0.210 C 
ENDBRANCH  25  29
BRANCH  26  31
HETATM   31  O   UNL     1       4.910  32.445  64.204  1.00  0.00    -0.353 OA
HETATM   32  C   UNL     1       4.907  33.591  65.041  1.00  0.00     0.210 C 
ENDBRANCH  26  31
ENDBRANCH  22  23
ENDBRANCH  21  22
ENDBRANCH  18  21
ENDBRANCH   1  17
TORSDOF 8
ENDMDL
MODEL 7
REMARK VINA RESULT:      -8.8      1.580      2.301
REMARK  8 active torsions:
REMARK  status: ('A' for Active; 'I' for Inactive)
REMARK    1  A    between atoms: C_12  and  S_13 
REMARK    2  A    between atoms: S_13  and  C_14 
REMARK    3  A    between atoms: C_14  and  C_15 
REMARK       I    between atoms: C_15  and  N_16 
REMARK    4  A    between atoms: N_16  and  C_17 
REMARK    5  A    between atoms: C_17  and  C_18 
REMARK    6  A    between atoms: C_18  and  C_19 
REMARK    7  A    between atoms: C_21  and  O_22 
REMARK    8  A    between atoms: C_24  and  O_25 
ROOT
HETATM    1  C   UNL     1       7.829  29.109  56.345  1.00  0.00     0.185 C 
ENDROOT
BRANCH   1   2
HETATM    2  S   UNL     1       6.665  28.090  57.298  1.00  0.00    -0.080 SA
BRANCH   2   3
HETATM    3  C   UNL     1       7.383  26.524  57.123  1.00  0.00     0.197 A 
HETATM    4  N   UNL     1       7.268  25.662  56.044  1.00  0.00    -0.271 N 
HETATM    5  C   UNL     1       6.501  25.665  54.842  1.00  0.00     0.054 A 
HETATM    6  C   UNL     1       8.156  24.638  56.355  1.00  0.00     0.159 A 
HETATM    7  C   UNL     1       6.749  24.612  53.926  1.00  0.00    -0.003 A 
HETATM    8  C   UNL     1       5.528  26.627  54.553  1.00  0.00     0.031 A 
HETATM    9  C   UNL     1       7.749  23.561  54.247  1.00  0.00    -0.046 A 
HETATM   10  C   UNL     1       6.022  24.583  52.724  1.00  0.00     0.014 A 
HETATM   11  C   UNL     1       8.034  22.462  53.262  1.00  0.00     0.049 C 
HETATM   12  C   UNL     1       8.390  23.602  55.427  1.00  0.00     0.060 A 
HETATM   13  C   UNL     1       5.065  25.557  52.438  1.00  0.00     0.001 A 
HETATM   14  C   UNL     1       4.816  26.571  53.353  1.00  0.00     0.002 A 
HETATM   15  N   UNL     1       8.673  24.829  57.549  1.00  0.00    -0.129 NA
HETATM   16  N   UNL     1       8.187  26.009  58.030  1.00  0.00    -0.122 NA
ENDBRANCH   2   3
ENDBRANCH   1   2
BRANCH   1  17
HETATM   17  C   UNL     1       9.137  29.234  57.106  1.00  0.00     0.227 C 
HETATM   18  N   UNL     1       9.167  29.929  58.288  1.00  0.00    -0.360 N 
HETATM   19  H   UNL     1      10.110  30.003  58.654  1.00  0.00     0.162 HD
HETATM   20  O   UNL     1      10.177  28.707  56.708  1.00  0.00    -0.273 OA
BRANCH  18  21
HETATM   21  C   UNL     1       8.183  30.893  58.753  1.00  0.00     0.127 C 
BRANCH  21  22
HETATM   22  C   UNL     1       8.146  30.991  60.278  1.00  0.00     0.058 C 
BRANCH  22  23
HETATM   23  C   UNL     1       7.181  32.061  60.726  1.00  0.00    -0.054 A 
HETATM   24  C   UNL     1       7.360  32.696  61.967  1.00  0.00     0.046 A 
HETATM   25  C   UNL     1       6.441  33.644  62.428  1.00  0.00     0.102 A 
HETATM   26  C   UNL     1       5.338  33.994  61.624  1.00  0.00     0.101 A 
HETATM   27  C   UNL     1       5.169  33.372  60.384  1.00  0.00     0.040 A 
HETATM   28  C   UNL     1       6.079  32.408  59.941  1.00  0.00     0.010 A 
BRANCH  25  29
HETATM   29  O   UNL     1       6.548  34.291  63.635  1.00  0.00    -0.353 OA
HETATM   30  C   UNL     1       6.659  33.473  64.794  1.00  0.00     0.210 C 
ENDBRANCH  25  29
BRANCH  26  31
HETATM   31  O   UNL     1       4.489  34.939  62.144  1.00  0.00    -0.353 OA
HETATM   32  C   UNL     1       3.229  34.498  62.626  1.00  0.00     0.210 C 
ENDBRANCH  26  31
ENDBRANCH  22  23
ENDBRANCH  21  22
ENDBRANCH  18  21
ENDBRANCH   1  17
TORSDOF 8
ENDMDL
MODEL 8
REMARK VINA RESULT:      -8.8      3.468     11.067
REMARK  8 active torsions:
REMARK  status: ('A' for Active; 'I' for Inactive)
REMARK    1  A    between atoms: C_12  and  S_13 
REMARK    2  A    between atoms: S_13  and  C_14 
REMARK    3  A    between atoms: C_14  and  C_15 
REMARK       I    between atoms: C_15  and  N_16 
REMARK    4  A    between atoms: N_16  and  C_17 
REMARK    5  A    between atoms: C_17  and  C_18 
REMARK    6  A    between atoms: C_18  and  C_19 
REMARK    7  A    between atoms: C_21  and  O_22 
REMARK    8  A    between atoms: C_24  and  O_25 
ROOT
HETATM    1  C   UNL     1       5.268  29.101  57.288  1.00  0.00     0.185 C 
ENDROOT
BRANCH   1   2
HETATM    2  S   UNL     1       5.992  30.759  57.116  1.00  0.00    -0.080 SA
BRANCH   2   3
HETATM    3  C   UNL     1       5.200  31.597  58.409  1.00  0.00     0.197 A 
HETATM    4  N   UNL     1       5.754  31.995  59.616  1.00  0.00    -0.271 N 
HETATM    5  C   UNL     1       7.013  31.790  60.252  1.00  0.00     0.054 A 
HETATM    6  C   UNL     1       4.742  32.749  60.199  1.00  0.00     0.159 A 
HETATM    7  C   UNL     1       7.224  32.465  61.480  1.00  0.00    -0.003 A 
HETATM    8  C   UNL     1       8.009  30.954  59.736  1.00  0.00     0.031 A 
HETATM    9  C   UNL     1       6.153  33.320  62.057  1.00  0.00    -0.046 A 
HETATM   10  C   UNL     1       8.456  32.299  62.136  1.00  0.00     0.014 A 
HETATM   11  C   UNL     1       6.389  34.060  63.344  1.00  0.00     0.049 C 
HETATM   12  C   UNL     1       4.975  33.416  61.420  1.00  0.00     0.060 A 
HETATM   13  C   UNL     1       9.448  31.476  61.604  1.00  0.00     0.001 A 
HETATM   14  C   UNL     1       9.222  30.802  60.411  1.00  0.00     0.002 A 
HETATM   15  N   UNL     1       3.660  32.717  59.452  1.00  0.00    -0.129 NA
HETATM   16  N   UNL     1       3.947  31.993  58.333  1.00  0.00    -0.122 NA
ENDBRANCH   2   3
ENDBRANCH   1   2
BRANCH   1  17
HETATM   17  C   UNL     1       4.602  28.699  55.984  1.00  0.00     0.227 C 
HETATM   18  N   UNL     1       5.035  27.580  55.321  1.00  0.00    -0.360 N 
HETATM   19  H   UNL     1       4.563  27.466  54.430  1.00  0.00     0.162 HD
HETATM   20  O   UNL     1       3.659  29.335  55.509  1.00  0.00    -0.273 OA
BRANCH  18  21
HETATM   21  C   UNL     1       6.310  26.904  55.501  1.00  0.00     0.127 C 
BRANCH  21  22
HETATM   22  C   UNL     1       6.151  25.538  56.169  1.00  0.00     0.058 C 
BRANCH  22  23
HETATM   23  C   UNL     1       6.849  24.463  55.372  1.00  0.00    -0.054 A 
HETATM   24  C   UNL     1       7.577  23.459  56.031  1.00  0.00     0.046 A 
HETATM   25  C   UNL     1       8.283  22.491  55.309  1.00  0.00     0.102 A 
HETATM   26  C   UNL     1       8.238  22.502  53.901  1.00  0.00     0.101 A 
HETATM   27  C   UNL     1       7.502  23.494  53.246  1.00  0.00     0.040 A 
HETATM   28  C   UNL     1       6.818  24.472  53.975  1.00  0.00     0.010 A 
BRANCH  25  29
HETATM   29  O   UNL     1       9.025  21.492  55.889  1.00  0.00    -0.353 OA
HETATM   30  C   UNL     1       8.437  20.813  56.992  1.00  0.00     0.210 C 
ENDBRANCH  25  29
BRANCH  26  31
HETATM   31  O   UNL     1       8.949  21.514  53.267  1.00  0.00    -0.353 OA
HETATM   32  C   UNL     1       8.226  20.402  52.762  1.00  0.00     0.210 C 
ENDBRANCH  26  31
ENDBRANCH  22  23
ENDBRANCH  21  22
ENDBRANCH  18  21
ENDBRANCH   1  17
TORSDOF 8
ENDMDL
MODEL 9
REMARK VINA RESULT:      -8.7      4.316     10.142
REMARK  8 active torsions:
REMARK  status: ('A' for Active; 'I' for Inactive)
REMARK    1  A    between atoms: C_12  and  S_13 
REMARK    2  A    between atoms: S_13  and  C_14 
REMARK    3  A    between atoms: C_14  and  C_15 
REMARK       I    between atoms: C_15  and  N_16 
REMARK    4  A    between atoms: N_16  and  C_17 
REMARK    5  A    between atoms: C_17  and  C_18 
REMARK    6  A    between atoms: C_18  and  C_19 
REMARK    7  A    between atoms: C_21  and  O_22 
REMARK    8  A    between atoms: C_24  and  O_25 
ROOT
HETATM    1  C   UNL     1       4.799  27.938  53.616  1.00  0.00     0.185 C 
ENDROOT
BRANCH   1   2
HETATM    2  S   UNL     1       6.026  28.295  54.908  1.00  0.00    -0.080 SA
BRANCH   2   3
HETATM    3  C   UNL     1       5.073  29.223  56.017  1.00  0.00     0.197 A 
HETATM    4  N   UNL     1       5.530  30.022  57.053  1.00  0.00    -0.271 N 
HETATM    5  C   UNL     1       6.808  30.272  57.631  1.00  0.00     0.054 A 
HETATM    6  C   UNL     1       4.374  30.646  57.509  1.00  0.00     0.159 A 
HETATM    7  C   UNL     1       6.866  31.260  58.646  1.00  0.00    -0.003 A 
HETATM    8  C   UNL     1       7.969  29.584  57.261  1.00  0.00     0.031 A 
HETATM    9  C   UNL     1       5.630  31.964  59.077  1.00  0.00    -0.046 A 
HETATM   10  C   UNL     1       8.110  31.545  59.236  1.00  0.00     0.014 A 
HETATM   11  C   UNL     1       5.697  33.033  60.131  1.00  0.00     0.049 C 
HETATM   12  C   UNL     1       4.455  31.629  58.518  1.00  0.00     0.060 A 
HETATM   13  C   UNL     1       9.263  30.864  58.847  1.00  0.00     0.001 A 
HETATM   14  C   UNL     1       9.190  29.883  57.867  1.00  0.00     0.002 A 
HETATM   15  N   UNL     1       3.322  30.185  56.868  1.00  0.00    -0.129 NA
HETATM   16  N   UNL     1       3.761  29.292  55.935  1.00  0.00    -0.122 NA
ENDBRANCH   2   3
ENDBRANCH   1   2
BRANCH   1  17
HETATM   17  C   UNL     1       5.443  28.078  52.249  1.00  0.00     0.227 C 
HETATM   18  N   UNL     1       5.777  26.952  51.542  1.00  0.00    -0.360 N 
HETATM   19  H   UNL     1       6.267  27.181  50.683  1.00  0.00     0.162 HD
HETATM   20  O   UNL     1       5.655  29.178  51.736  1.00  0.00    -0.273 OA
BRANCH  18  21
HETATM   21  C   UNL     1       5.938  25.608  52.073  1.00  0.00     0.127 C 
BRANCH  21  22
HETATM   22  C   UNL     1       7.384  25.122  51.985  1.00  0.00     0.058 C 
BRANCH  22  23
HETATM   23  C   UNL     1       7.705  24.176  53.117  1.00  0.00    -0.054 A 
HETATM   24  C   UNL     1       7.856  24.667  54.424  1.00  0.00     0.046 A 
HETATM   25  C   UNL     1       8.215  23.817  55.475  1.00  0.00     0.102 A 
HETATM   26  C   UNL     1       8.396  22.443  55.228  1.00  0.00     0.101 A 
HETATM   27  C   UNL     1       8.232  21.952  53.929  1.00  0.00     0.040 A 
HETATM   28  C   UNL     1       7.896  22.813  52.880  1.00  0.00     0.010 A 
BRANCH  25  29
HETATM   29  O   UNL     1       8.393  24.234  56.771  1.00  0.00    -0.353 OA
HETATM   30  C   UNL     1       8.155  25.610  57.042  1.00  0.00     0.210 C 
ENDBRANCH  25  29
BRANCH  26  31
HETATM   31  O   UNL     1       8.739  21.674  56.312  1.00  0.00    -0.353 OA
HETATM   32  C   UNL     1       8.615  20.265  56.188  1.00  0.00     0.210 C 
ENDBRANCH  26  31
ENDBRANCH  22  23
ENDBRANCH  21  22
ENDBRANCH  18  21
ENDBRANCH   1  17
TORSDOF 8
ENDMDL
MODEL 10
REMARK VINA RESULT:      -8.5      3.131     10.994
REMARK  8 active torsions:
REMARK  status: ('A' for Active; 'I' for Inactive)
REMARK    1  A    between atoms: C_12  and  S_13 
REMARK    2  A    between atoms: S_13  and  C_14 
REMARK    3  A    between atoms: C_14  and  C_15 
REMARK       I    between atoms: C_15  and  N_16 
REMARK    4  A    between atoms: N_16  and  C_17 
REMARK    5  A    between atoms: C_17  and  C_18 
REMARK    6  A    between atoms: C_18  and  C_19 
REMARK    7  A    between atoms: C_21  and  O_22 
REMARK    8  A    between atoms: C_24  and  O_25 
ROOT
HETATM    1  C   UNL     1       5.675  31.601  57.748  1.00  0.00     0.185 C 
ENDROOT
BRANCH   1   2
HETATM    2  S   UNL     1       5.282  32.945  58.907  1.00  0.00    -0.080 SA
BRANCH   2   3
HETATM    3  C   UNL     1       6.379  32.593  60.200  1.00  0.00     0.197 A 
HETATM    4  N   UNL     1       6.405  33.167  61.461  1.00  0.00    -0.271 N 
HETATM    5  C   UNL     1       5.701  34.239  62.084  1.00  0.00     0.054 A 
HETATM    6  C   UNL     1       7.363  32.419  62.135  1.00  0.00     0.159 A 
HETATM    7  C   UNL     1       5.960  34.457  63.459  1.00  0.00    -0.003 A 
HETATM    8  C   UNL     1       4.807  35.072  61.401  1.00  0.00     0.031 A 
HETATM    9  C   UNL     1       6.941  33.605  64.180  1.00  0.00    -0.046 A 
HETATM   10  C   UNL     1       5.280  35.498  64.115  1.00  0.00     0.014 A 
HETATM   11  C   UNL     1       7.193  33.817  65.647  1.00  0.00     0.049 C 
HETATM   12  C   UNL     1       7.603  32.650  63.506  1.00  0.00     0.060 A 
HETATM   13  C   UNL     1       4.379  36.312  63.429  1.00  0.00     0.001 A 
HETATM   14  C   UNL     1       4.148  36.103  62.076  1.00  0.00     0.002 A 
HETATM   15  N   UNL     1       7.920  31.550  61.320  1.00  0.00    -0.129 NA
HETATM   16  N   UNL     1       7.305  31.661  60.108  1.00  0.00    -0.122 NA
ENDBRANCH   2   3
ENDBRANCH   1   2
BRANCH   1  17
HETATM   17  C   UNL     1       4.654  30.488  57.895  1.00  0.00     0.227 C 
HETATM   18  N   UNL     1       5.022  29.194  57.628  1.00  0.00    -0.360 N 
HETATM   19  H   UNL     1       4.232  28.560  57.688  1.00  0.00     0.162 HD
HETATM   20  O   UNL     1       3.501  30.703  58.275  1.00  0.00    -0.273 OA
BRANCH  18  21
HETATM   21  C   UNL     1       6.177  28.763  56.857  1.00  0.00     0.127 C 
BRANCH  21  22
HETATM   22  C   UNL     1       7.093  27.838  57.658  1.00  0.00     0.058 C 
BRANCH  22  23
HETATM   23  C   UNL     1       7.221  26.491  56.988  1.00  0.00    -0.054 A 
HETATM   24  C   UNL     1       6.449  26.194  55.854  1.00  0.00     0.046 A 
HETATM   25  C   UNL     1       6.506  24.930  55.256  1.00  0.00     0.102 A 
HETATM   26  C   UNL     1       7.375  23.952  55.778  1.00  0.00     0.101 A 
HETATM   27  C   UNL     1       8.154  24.254  56.899  1.00  0.00     0.040 A 
HETATM   28  C   UNL     1       8.073  25.512  57.504  1.00  0.00     0.010 A 
BRANCH  25  29
HETATM   29  O   UNL     1       5.768  24.569  54.156  1.00  0.00    -0.353 OA
HETATM   30  C   UNL     1       6.182  25.099  52.902  1.00  0.00     0.210 C 
ENDBRANCH  25  29
BRANCH  26  31
HETATM   31  O   UNL     1       7.380  22.742  55.130  1.00  0.00    -0.353 OA
HETATM   32  C   UNL     1       8.629  22.241  54.679  1.00  0.00     0.210 C 
ENDBRANCH  26  31
ENDBRANCH  22  23
ENDBRANCH  21  22
ENDBRANCH  18  21
ENDBRANCH   1  17
TORSDOF 8
ENDMDL
