MODEL 1
REMARK VINA RESULT:      -9.6      0.000      0.000
REMARK  10 active torsions:
REMARK  status: ('A' for Active; 'I' for Inactive)
REMARK    1  A    between atoms: N_2  and  C_3 
REMARK    2  A    between atoms: C_3  and  C_4 
REMARK       I    between atoms: C_4  and  N_5 
REMARK    3  A    between atoms: N_5  and  C_6 
REMARK    4  A    between atoms: C_6  and  C_7 
REMARK    5  A    between atoms: C_7  and  C_8 
REMARK    6  A    between atoms: C_8  and  C_9 
REMARK       I    between atoms: C_9  and  N_10 
REMARK    7  A    between atoms: N_10  and  C_11 
REMARK    8  A    between atoms: C_11  and  C_12 
REMARK    9  A    between atoms: C_12  and  C_13 
REMARK   10  A    between atoms: C_13  and  N_14 
ROOT
HETATM    1  C   UNL     1       8.099  28.683  56.608  1.00  0.00     0.235 C 
HETATM    2  N   UNL     1       9.435  28.688  56.966  1.00  0.00    -0.360 N 
HETATM    3  O   UNL     1       7.572  29.609  55.999  1.00  0.00    -0.272 OA
HETATM    4  H   UNL     1       9.812  27.920  57.509  1.00  0.00     0.162 HD
ENDROOT
BRANCH   2   5
HETATM    5  C   UNL     1      10.309  29.795  56.642  1.00  0.00     0.123 C 
BRANCH   5   6
HETATM    6  C   UNL     1      10.876  30.458  57.894  1.00  0.00     0.029 C 
BRANCH   6   7
HETATM    7  C   UNL     1       9.922  31.520  58.427  1.00  0.00     0.104 C 
BRANCH   7   8
HETATM    8  C   UNL     1       9.232  31.041  59.683  1.00  0.00     0.217 C 
HETATM    9  N   UNL     1       9.276  31.925  60.738  1.00  0.00    -0.361 N 
HETATM   10  H   UNL     1       9.870  32.744  60.649  1.00  0.00     0.162 HD
HETATM   11  O   UNL     1       8.625  29.976  59.739  1.00  0.00    -0.274 OA
BRANCH   9  12
HETATM   12  C   UNL     1       8.817  31.561  62.065  1.00  0.00     0.124 C 
BRANCH  12  13
HETATM   13  C   UNL     1       7.884  32.598  62.697  1.00  0.00     0.047 C 
BRANCH  13  14
HETATM   14  C   UNL     1       6.466  32.533  62.130  1.00  0.00     0.236 C 
BRANCH  14  15
HETATM   15  N   UNL     1       5.461  33.289  63.007  1.00  0.00    -0.071 N 
HETATM   16  H   UNL     1       4.547  32.842  62.851  1.00  0.00     0.279 HD
HETATM   17  C   UNL     1       5.795  33.169  64.476  1.00  0.00     0.235 C 
HETATM   18  C   UNL     1       4.766  33.833  65.382  1.00  0.00     0.028 C 
HETATM   19  C   UNL     1       4.874  35.353  65.397  1.00  0.00     0.002 C 
HETATM   20  C   UNL     1       4.094  36.058  64.296  1.00  0.00     0.002 C 
HETATM   21  C   UNL     1       4.043  35.357  62.943  1.00  0.00     0.028 C 
HETATM   22  C   UNL     1       5.354  34.722  62.503  1.00  0.00     0.235 C 
ENDBRANCH  14  15
ENDBRANCH  13  14
ENDBRANCH  12  13
ENDBRANCH   9  12
ENDBRANCH   7   8
ENDBRANCH   6   7
ENDBRANCH   5   6
ENDBRANCH   2   5
BRANCH   1  23
HETATM   23  C   UNL     1       7.371  27.394  56.992  1.00  0.00     0.235 C 
BRANCH  23  24
HETATM   24  N   UNL     1       7.405  26.427  55.912  1.00  0.00    -0.299 N 
HETATM   25  C   UNL     1       7.244  26.845  54.604  1.00  0.00     0.214 A 
HETATM   26  N   UNL     1       7.309  26.088  53.557  1.00  0.00    -0.235 NA
HETATM   27  C   UNL     1       7.544  24.780  53.830  1.00  0.00     0.115 A 
HETATM   28  C   UNL     1       7.671  24.208  55.080  1.00  0.00     0.075 A 
HETATM   29  S   UNL     1       7.734  23.632  52.583  1.00  0.00    -0.073 SA
HETATM   30  C   UNL     1       7.578  25.084  56.236  1.00  0.00     0.262 A 
HETATM   31  C   UNL     1       7.892  22.795  55.012  1.00  0.00    -0.026 A 
HETATM   32  O   UNL     1       7.665  24.675  57.393  1.00  0.00    -0.267 OA
HETATM   33  C   UNL     1       7.980  22.371  53.698  1.00  0.00    -0.008 A 
HETATM   34  C   UNL     1       8.066  21.847  56.161  1.00  0.00     0.041 C 
HETATM   35  C   UNL     1       8.227  20.962  53.255  1.00  0.00     0.047 C 
HETATM   36  C   UNL     1       8.743  20.114  54.428  1.00  0.00     0.005 C 
HETATM   37  C   UNL     1       7.948  20.381  55.714  1.00  0.00     0.005 C 
ENDBRANCH  23  24
ENDBRANCH   1  23
TORSDOF 10
ENDMDL
MODEL 2
REMARK VINA RESULT:      -9.5      2.992     11.530
REMARK  10 active torsions:
REMARK  status: ('A' for Active; 'I' for Inactive)
REMARK    1  A    between atoms: N_2  and  C_3 
REMARK    2  A    between atoms: C_3  and  C_4 
REMARK       I    between atoms: C_4  and  N_5 
REMARK    3  A    between atoms: N_5  and  C_6 
REMARK    4  A    between atoms: C_6  and  C_7 
REMARK    5  A    between atoms: C_7  and  C_8 
REMARK    6  A    between atoms: C_8  and  C_9 
REMARK       I    between atoms: C_9  and  N_10 
REMARK    7  A    between atoms: N_10  and  C_11 
REMARK    8  A    between atoms: C_11  and  C_12 
REMARK    9  A    between atoms: C_12  and  C_13 
REMARK   10  A    between atoms: C_13  and  N_14 
ROOT
HETATM    1  C   UNL     1       8.079  29.125  57.852  1.00  0.00     0.235 C 
HETATM    2  N   UNL     1       7.932  29.572  56.551  1.00  0.00    -0.360 N 
HETATM    3  O   UNL     1       7.711  28.012  58.216  1.00  0.00    -0.272 OA
HETATM    4  H   UNL     1       8.210  30.516  56.310  1.00  0.00     0.162 HD
ENDROOT
BRANCH   2   5
HETATM    5  C   UNL     1       7.328  28.750  55.523  1.00  0.00     0.123 C 
BRANCH   5   6
HETATM    6  C   UNL     1       5.847  29.065  55.339  1.00  0.00     0.029 C 
BRANCH   6   7
HETATM    7  C   UNL     1       5.235  28.192  54.250  1.00  0.00     0.104 C 
BRANCH   7   8
HETATM    8  C   UNL     1       5.298  26.732  54.634  1.00  0.00     0.217 C 
HETATM    9  N   UNL     1       5.139  26.481  55.979  1.00  0.00    -0.361 N 
HETATM   10  H   UNL     1       5.137  27.274  56.614  1.00  0.00     0.162 HD
HETATM   11  O   UNL     1       5.416  25.835  53.804  1.00  0.00    -0.274 OA
BRANCH   9  12
HETATM   12  C   UNL     1       5.341  25.161  56.543  1.00  0.00     0.124 C 
BRANCH  12  13
HETATM   13  C   UNL     1       6.741  24.951  57.126  1.00  0.00     0.047 C 
BRANCH  13  14
HETATM   14  C   UNL     1       7.801  24.745  56.044  1.00  0.00     0.236 C 
BRANCH  14  15
HETATM   15  N   UNL     1       7.606  23.423  55.292  1.00  0.00    -0.071 N 
HETATM   16  H   UNL     1       6.593  23.246  55.274  1.00  0.00     0.279 HD
HETATM   17  C   UNL     1       8.089  23.513  53.863  1.00  0.00     0.235 C 
HETATM   18  C   UNL     1       7.828  22.244  53.059  1.00  0.00     0.028 C 
HETATM   19  C   UNL     1       8.789  21.112  53.399  1.00  0.00     0.002 C 
HETATM   20  C   UNL     1       8.358  20.242  54.573  1.00  0.00     0.002 C 
HETATM   21  C   UNL     1       7.652  20.952  55.723  1.00  0.00     0.028 C 
HETATM   22  C   UNL     1       8.245  22.302  56.101  1.00  0.00     0.235 C 
ENDBRANCH  14  15
ENDBRANCH  13  14
ENDBRANCH  12  13
ENDBRANCH   9  12
ENDBRANCH   7   8
ENDBRANCH   6   7
ENDBRANCH   5   6
ENDBRANCH   2   5
BRANCH   1  23
HETATM   23  C   UNL     1       8.795  30.125  58.761  1.00  0.00     0.235 C 
BRANCH  23  24
HETATM   24  N   UNL     1       7.858  31.047  59.372  1.00  0.00    -0.299 N 
HETATM   25  C   UNL     1       6.801  31.549  58.636  1.00  0.00     0.214 A 
HETATM   26  N   UNL     1       5.874  32.332  59.084  1.00  0.00    -0.235 NA
HETATM   27  C   UNL     1       6.010  32.664  60.392  1.00  0.00     0.115 A 
HETATM   28  C   UNL     1       7.036  32.288  61.236  1.00  0.00     0.075 A 
HETATM   29  S   UNL     1       4.853  33.631  61.190  1.00  0.00    -0.073 SA
HETATM   30  C   UNL     1       8.070  31.421  60.697  1.00  0.00     0.262 A 
HETATM   31  C   UNL     1       6.887  32.834  62.552  1.00  0.00    -0.026 A 
HETATM   32  O   UNL     1       9.033  31.037  61.359  1.00  0.00    -0.267 OA
HETATM   33  C   UNL     1       5.713  33.558  62.656  1.00  0.00    -0.008 A 
HETATM   34  C   UNL     1       7.807  32.649  63.721  1.00  0.00     0.041 C 
HETATM   35  C   UNL     1       5.226  34.249  63.891  1.00  0.00     0.047 C 
HETATM   36  C   UNL     1       5.994  33.748  65.124  1.00  0.00     0.005 C 
HETATM   37  C   UNL     1       7.501  33.645  64.851  1.00  0.00     0.005 C 
ENDBRANCH  23  24
ENDBRANCH   1  23
TORSDOF 10
ENDMDL
MODEL 3
REMARK VINA RESULT:      -9.5      3.179     12.018
REMARK  10 active torsions:
REMARK  status: ('A' for Active; 'I' for Inactive)
REMARK    1  A    between atoms: N_2  and  C_3 
REMARK    2  A    between atoms: C_3  and  C_4 
REMARK       I    between atoms: C_4  and  N_5 
REMARK    3  A    between atoms: N_5  and  C_6 
REMARK    4  A    between atoms: C_6  and  C_7 
REMARK    5  A    between atoms: C_7  and  C_8 
REMARK    6  A    between atoms: C_8  and  C_9 
REMARK       I    between atoms: C_9  and  N_10 
REMARK    7  A    between atoms: N_10  and  C_11 
REMARK    8  A    between atoms: C_11  and  C_12 
REMARK    9  A    between atoms: C_12  and  C_13 
REMARK   10  A    between atoms: C_13  and  N_14 
ROOT
HETATM    1  C   UNL     1       7.567  29.363  58.153  1.00  0.00     0.235 C 
HETATM    2  N   UNL     1       6.270  29.600  57.734  1.00  0.00    -0.360 N 
HETATM    3  O   UNL     1       8.031  28.233  58.267  1.00  0.00    -0.272 OA
HETATM    4  H   UNL     1       5.918  30.549  57.700  1.00  0.00     0.162 HD
ENDROOT
BRANCH   2   5
HETATM    5  C   UNL     1       5.366  28.520  57.399  1.00  0.00     0.123 C 
BRANCH   5   6
HETATM    6  C   UNL     1       4.559  28.823  56.139  1.00  0.00     0.029 C 
BRANCH   6   7
HETATM    7  C   UNL     1       5.406  28.621  54.889  1.00  0.00     0.104 C 
BRANCH   7   8
HETATM    8  C   UNL     1       4.868  27.483  54.053  1.00  0.00     0.217 C 
HETATM    9  N   UNL     1       5.448  26.259  54.303  1.00  0.00    -0.361 N 
HETATM   10  H   UNL     1       6.265  26.234  54.905  1.00  0.00     0.162 HD
HETATM   11  O   UNL     1       3.942  27.626  53.260  1.00  0.00    -0.274 OA
BRANCH   9  12
HETATM   12  C   UNL     1       5.175  25.098  53.478  1.00  0.00     0.124 C 
BRANCH  12  13
HETATM   13  C   UNL     1       6.407  24.566  52.742  1.00  0.00     0.047 C 
BRANCH  13  14
HETATM   14  C   UNL     1       7.700  24.793  53.527  1.00  0.00     0.236 C 
BRANCH  14  15
HETATM   15  N   UNL     1       8.247  23.490  54.124  1.00  0.00    -0.071 N 
HETATM   16  H   UNL     1       9.272  23.565  54.093  1.00  0.00     0.279 HD
HETATM   17  C   UNL     1       7.833  23.316  55.567  1.00  0.00     0.235 C 
HETATM   18  C   UNL     1       8.434  22.076  56.218  1.00  0.00     0.028 C 
HETATM   19  C   UNL     1       7.755  20.783  55.783  1.00  0.00     0.002 C 
HETATM   20  C   UNL     1       8.318  20.167  54.510  1.00  0.00     0.002 C 
HETATM   21  C   UNL     1       8.771  21.139  53.425  1.00  0.00     0.028 C 
HETATM   22  C   UNL     1       7.853  22.333  53.214  1.00  0.00     0.235 C 
ENDBRANCH  14  15
ENDBRANCH  13  14
ENDBRANCH  12  13
ENDBRANCH   9  12
ENDBRANCH   7   8
ENDBRANCH   6   7
ENDBRANCH   5   6
ENDBRANCH   2   5
BRANCH   1  23
HETATM   23  C   UNL     1       8.370  30.642  58.397  1.00  0.00     0.235 C 
BRANCH  23  24
HETATM   24  N   UNL     1       8.170  31.142  59.743  1.00  0.00    -0.299 N 
HETATM   25  C   UNL     1       8.923  30.638  60.787  1.00  0.00     0.214 A 
HETATM   26  N   UNL     1       8.874  31.040  62.015  1.00  0.00    -0.235 NA
HETATM   27  C   UNL     1       7.979  32.035  62.240  1.00  0.00     0.115 A 
HETATM   28  C   UNL     1       7.123  32.598  61.315  1.00  0.00     0.075 A 
HETATM   29  S   UNL     1       7.812  32.751  63.779  1.00  0.00    -0.073 SA
HETATM   30  C   UNL     1       7.193  32.112  59.947  1.00  0.00     0.262 A 
HETATM   31  C   UNL     1       6.289  33.611  61.890  1.00  0.00    -0.026 A 
HETATM   32  O   UNL     1       6.467  32.538  59.049  1.00  0.00    -0.267 OA
HETATM   33  C   UNL     1       6.599  33.807  63.224  1.00  0.00    -0.008 A 
HETATM   34  C   UNL     1       5.240  34.426  61.195  1.00  0.00     0.041 C 
HETATM   35  C   UNL     1       5.943  34.801  64.130  1.00  0.00     0.047 C 
HETATM   36  C   UNL     1       5.150  35.832  63.312  1.00  0.00     0.005 C 
HETATM   37  C   UNL     1       4.335  35.164  62.195  1.00  0.00     0.005 C 
ENDBRANCH  23  24
ENDBRANCH   1  23
TORSDOF 10
ENDMDL
MODEL 4
REMARK VINA RESULT:      -9.5      1.955      2.694
REMARK  10 active torsions:
REMARK  status: ('A' for Active; 'I' for Inactive)
REMARK    1  A    between atoms: N_2  and  C_3 
REMARK    2  A    between atoms: C_3  and  C_4 
REMARK       I    between atoms: C_4  and  N_5 
REMARK    3  A    between atoms: N_5  and  C_6 
REMARK    4  A    between atoms: C_6  and  C_7 
REMARK    5  A    between atoms: C_7  and  C_8 
REMARK    6  A    between atoms: C_8  and  C_9 
REMARK       I    between atoms: C_9  and  N_10 
REMARK    7  A    between atoms: N_10  and  C_11 
REMARK    8  A    between atoms: C_11  and  C_12 
REMARK    9  A    between atoms: C_12  and  C_13 
REMARK   10  A    between atoms: C_13  and  N_14 
ROOT
HETATM    1  C   UNL     1       5.778  28.869  55.296  1.00  0.00     0.235 C 
HETATM    2  N   UNL     1       6.312  30.056  55.764  1.00  0.00    -0.360 N 
HETATM    3  O   UNL     1       4.638  28.502  55.565  1.00  0.00    -0.272 OA
HETATM    4  H   UNL     1       7.274  30.292  55.552  1.00  0.00     0.162 HD
ENDROOT
BRANCH   2   5
HETATM    5  C   UNL     1       5.555  30.953  56.610  1.00  0.00     0.123 C 
BRANCH   5   6
HETATM    6  C   UNL     1       6.038  30.914  58.057  1.00  0.00     0.029 C 
BRANCH   6   7
HETATM    7  C   UNL     1       7.546  30.709  58.122  1.00  0.00     0.104 C 
BRANCH   7   8
HETATM    8  C   UNL     1       8.121  31.337  59.371  1.00  0.00     0.217 C 
HETATM    9  N   UNL     1       8.085  30.533  60.489  1.00  0.00    -0.361 N 
HETATM   10  H   UNL     1       7.562  29.664  60.433  1.00  0.00     0.162 HD
HETATM   11  O   UNL     1       8.639  32.449  59.373  1.00  0.00    -0.274 OA
BRANCH   9  12
HETATM   12  C   UNL     1       8.435  31.033  61.804  1.00  0.00     0.124 C 
BRANCH  12  13
HETATM   13  C   UNL     1       7.277  31.732  62.523  1.00  0.00     0.047 C 
BRANCH  13  14
HETATM   14  C   UNL     1       7.753  32.864  63.433  1.00  0.00     0.236 C 
BRANCH  14  15
HETATM   15  N   UNL     1       6.611  33.818  63.809  1.00  0.00    -0.071 N 
HETATM   16  H   UNL     1       7.003  34.487  64.484  1.00  0.00     0.279 HD
HETATM   17  C   UNL     1       6.115  34.597  62.613  1.00  0.00     0.235 C 
HETATM   18  C   UNL     1       5.041  35.620  62.967  1.00  0.00     0.028 C 
HETATM   19  C   UNL     1       3.678  34.991  63.226  1.00  0.00     0.002 C 
HETATM   20  C   UNL     1       3.454  34.528  64.659  1.00  0.00     0.002 C 
HETATM   21  C   UNL     1       4.662  33.942  65.382  1.00  0.00     0.028 C 
HETATM   22  C   UNL     1       5.532  33.026  64.534  1.00  0.00     0.235 C 
ENDBRANCH  14  15
ENDBRANCH  13  14
ENDBRANCH  12  13
ENDBRANCH   9  12
ENDBRANCH   7   8
ENDBRANCH   6   7
ENDBRANCH   5   6
ENDBRANCH   2   5
BRANCH   1  23
HETATM   23  C   UNL     1       6.723  28.100  54.369  1.00  0.00     0.235 C 
BRANCH  23  24
HETATM   24  N   UNL     1       7.192  26.878  54.991  1.00  0.00    -0.299 N 
HETATM   25  C   UNL     1       7.538  26.870  56.329  1.00  0.00     0.214 A 
HETATM   26  N   UNL     1       7.916  25.834  57.005  1.00  0.00    -0.235 NA
HETATM   27  C   UNL     1       7.972  24.688  56.281  1.00  0.00     0.115 A 
HETATM   28  C   UNL     1       7.711  24.551  54.933  1.00  0.00     0.075 A 
HETATM   29  S   UNL     1       8.381  23.198  57.005  1.00  0.00    -0.073 SA
HETATM   30  C   UNL     1       7.303  25.737  54.200  1.00  0.00     0.262 A 
HETATM   31  C   UNL     1       7.886  23.204  54.479  1.00  0.00    -0.026 A 
HETATM   32  O   UNL     1       7.059  25.727  52.994  1.00  0.00    -0.267 OA
HETATM   33  C   UNL     1       8.219  22.368  55.529  1.00  0.00    -0.008 A 
HETATM   34  C   UNL     1       7.703  22.684  53.084  1.00  0.00     0.041 C 
HETATM   35  C   UNL     1       8.456  20.893  55.424  1.00  0.00     0.047 C 
HETATM   36  C   UNL     1       7.921  20.358  54.086  1.00  0.00     0.005 C 
HETATM   37  C   UNL     1       8.298  21.277  52.916  1.00  0.00     0.005 C 
ENDBRANCH  23  24
ENDBRANCH   1  23
TORSDOF 10
ENDMDL
MODEL 5
REMARK VINA RESULT:      -9.4      2.433      3.589
REMARK  10 active torsions:
REMARK  status: ('A' for Active; 'I' for Inactive)
REMARK    1  A    between atoms: N_2  and  C_3 
REMARK    2  A    between atoms: C_3  and  C_4 
REMARK       I    between atoms: C_4  and  N_5 
REMARK    3  A    between atoms: N_5  and  C_6 
REMARK    4  A    between atoms: C_6  and  C_7 
REMARK    5  A    between atoms: C_7  and  C_8 
REMARK    6  A    between atoms: C_8  and  C_9 
REMARK       I    between atoms: C_9  and  N_10 
REMARK    7  A    between atoms: N_10  and  C_11 
REMARK    8  A    between atoms: C_11  and  C_12 
REMARK    9  A    between atoms: C_12  and  C_13 
REMARK   10  A    between atoms: C_13  and  N_14 
ROOT
HETATM    1  C   UNL     1       5.224  28.161  53.662  1.00  0.00     0.235 C 
HETATM    2  N   UNL     1       5.258  29.544  53.688  1.00  0.00    -0.360 N 
HETATM    3  O   UNL     1       4.243  27.514  54.017  1.00  0.00    -0.272 OA
HETATM    4  H   UNL     1       6.108  30.030  53.429  1.00  0.00     0.162 HD
ENDROOT
BRANCH   2   5
HETATM    5  C   UNL     1       4.127  30.327  54.139  1.00  0.00     0.123 C 
BRANCH   5   6
HETATM    6  C   UNL     1       4.528  31.341  55.207  1.00  0.00     0.029 C 
BRANCH   6   7
HETATM    7  C   UNL     1       4.575  30.691  56.585  1.00  0.00     0.104 C 
BRANCH   7   8
HETATM    8  C   UNL     1       6.004  30.496  57.038  1.00  0.00     0.217 C 
HETATM    9  N   UNL     1       6.247  30.852  58.346  1.00  0.00    -0.361 N 
HETATM   10  H   UNL     1       5.512  31.338  58.852  1.00  0.00     0.162 HD
HETATM   11  O   UNL     1       6.864  29.999  56.318  1.00  0.00    -0.274 OA
BRANCH   9  12
HETATM   12  C   UNL     1       7.589  30.892  58.894  1.00  0.00     0.124 C 
BRANCH  12  13
HETATM   13  C   UNL     1       7.810  32.032  59.892  1.00  0.00     0.047 C 
BRANCH  13  14
HETATM   14  C   UNL     1       6.512  32.482  60.562  1.00  0.00     0.236 C 
BRANCH  14  15
HETATM   15  N   UNL     1       6.775  33.297  61.835  1.00  0.00    -0.071 N 
HETATM   16  H   UNL     1       7.635  33.834  61.663  1.00  0.00     0.279 HD
HETATM   17  C   UNL     1       5.659  34.278  62.114  1.00  0.00     0.235 C 
HETATM   18  C   UNL     1       5.930  35.167  63.322  1.00  0.00     0.028 C 
HETATM   19  C   UNL     1       5.739  34.446  64.651  1.00  0.00     0.002 C 
HETATM   20  C   UNL     1       6.968  33.699  65.152  1.00  0.00     0.002 C 
HETATM   21  C   UNL     1       7.836  33.030  64.092  1.00  0.00     0.028 C 
HETATM   22  C   UNL     1       7.065  32.335  62.979  1.00  0.00     0.235 C 
ENDBRANCH  14  15
ENDBRANCH  13  14
ENDBRANCH  12  13
ENDBRANCH   9  12
ENDBRANCH   7   8
ENDBRANCH   6   7
ENDBRANCH   5   6
ENDBRANCH   2   5
BRANCH   1  23
HETATM   23  C   UNL     1       6.498  27.532  53.095  1.00  0.00     0.235 C 
BRANCH  23  24
HETATM   24  N   UNL     1       7.036  26.529  53.992  1.00  0.00    -0.299 N 
HETATM   25  C   UNL     1       7.323  26.856  55.304  1.00  0.00     0.214 A 
HETATM   26  N   UNL     1       7.753  26.038  56.209  1.00  0.00    -0.235 NA
HETATM   27  C   UNL     1       7.932  24.767  55.771  1.00  0.00     0.115 A 
HETATM   28  C   UNL     1       7.743  24.304  54.484  1.00  0.00     0.075 A 
HETATM   29  S   UNL     1       8.427  23.523  56.828  1.00  0.00    -0.073 SA
HETATM   30  C   UNL     1       7.273  25.253  53.488  1.00  0.00     0.262 A 
HETATM   31  C   UNL     1       8.045  22.910  54.356  1.00  0.00    -0.026 A 
HETATM   32  O   UNL     1       7.084  24.947  52.311  1.00  0.00    -0.267 OA
HETATM   33  C   UNL     1       8.397  22.367  55.579  1.00  0.00    -0.008 A 
HETATM   34  C   UNL     1       7.965  22.074  53.114  1.00  0.00     0.041 C 
HETATM   35  C   UNL     1       8.756  20.934  55.821  1.00  0.00     0.047 C 
HETATM   36  C   UNL     1       8.324  20.065  54.630  1.00  0.00     0.005 C 
HETATM   37  C   UNL     1       8.677  20.723  53.290  1.00  0.00     0.005 C 
ENDBRANCH  23  24
ENDBRANCH   1  23
TORSDOF 10
ENDMDL
MODEL 6
REMARK VINA RESULT:      -9.4      2.831     11.677
REMARK  10 active torsions:
REMARK  status: ('A' for Active; 'I' for Inactive)
REMARK    1  A    between atoms: N_2  and  C_3 
REMARK    2  A    between atoms: C_3  and  C_4 
REMARK       I    between atoms: C_4  and  N_5 
REMARK    3  A    between atoms: N_5  and  C_6 
REMARK    4  A    between atoms: C_6  and  C_7 
REMARK    5  A    between atoms: C_7  and  C_8 
REMARK    6  A    between atoms: C_8  and  C_9 
REMARK       I    between atoms: C_9  and  N_10 
REMARK    7  A    between atoms: N_10  and  C_11 
REMARK    8  A    between atoms: C_11  and  C_12 
REMARK    9  A    between atoms: C_12  and  C_13 
REMARK   10  A    between atoms: C_13  and  N_14 
ROOT
HETATM    1  C   UNL     1       9.690  31.015  58.851  1.00  0.00     0.235 C 
HETATM    2  N   UNL     1       9.647  29.893  58.042  1.00  0.00    -0.360 N 
HETATM    3  O   UNL     1      10.011  32.123  58.432  1.00  0.00    -0.272 OA
HETATM    4  H   UNL     1       9.421  28.991  58.445  1.00  0.00     0.162 HD
ENDROOT
BRANCH   2   5
HETATM    5  C   UNL     1       9.979  29.952  56.634  1.00  0.00     0.123 C 
BRANCH   5   6
HETATM    6  C   UNL     1       8.921  29.272  55.771  1.00  0.00     0.029 C 
BRANCH   6   7
HETATM    7  C   UNL     1       7.520  29.569  56.292  1.00  0.00     0.104 C 
BRANCH   7   8
HETATM    8  C   UNL     1       6.668  28.321  56.285  1.00  0.00     0.217 C 
HETATM    9  N   UNL     1       6.557  27.705  55.058  1.00  0.00    -0.361 N 
HETATM   10  H   UNL     1       6.920  28.194  54.245  1.00  0.00     0.162 HD
HETATM   11  O   UNL     1       6.169  27.855  57.305  1.00  0.00    -0.274 OA
BRANCH   9  12
HETATM   12  C   UNL     1       5.645  26.600  54.834  1.00  0.00     0.124 C 
BRANCH  12  13
HETATM   13  C   UNL     1       6.263  25.228  55.121  1.00  0.00     0.047 C 
BRANCH  13  14
HETATM   14  C   UNL     1       7.485  24.943  54.247  1.00  0.00     0.236 C 
BRANCH  14  15
HETATM   15  N   UNL     1       8.105  23.574  54.555  1.00  0.00    -0.071 N 
HETATM   16  H   UNL     1       9.122  23.688  54.454  1.00  0.00     0.279 HD
HETATM   17  C   UNL     1       7.822  23.136  55.973  1.00  0.00     0.235 C 
HETATM   18  C   UNL     1       8.499  21.821  56.341  1.00  0.00     0.028 C 
HETATM   19  C   UNL     1       7.809  20.603  55.740  1.00  0.00     0.002 C 
HETATM   20  C   UNL     1       8.270  20.240  54.335  1.00  0.00     0.002 C 
HETATM   21  C   UNL     1       8.608  21.402  53.408  1.00  0.00     0.028 C 
HETATM   22  C   UNL     1       7.654  22.584  53.490  1.00  0.00     0.235 C 
ENDBRANCH  14  15
ENDBRANCH  13  14
ENDBRANCH  12  13
ENDBRANCH   9  12
ENDBRANCH   7   8
ENDBRANCH   6   7
ENDBRANCH   5   6
ENDBRANCH   2   5
BRANCH   1  23
HETATM   23  C   UNL     1       9.243  30.745  60.289  1.00  0.00     0.235 C 
BRANCH  23  24
HETATM   24  N   UNL     1       8.023  31.461  60.605  1.00  0.00    -0.299 N 
HETATM   25  C   UNL     1       7.067  31.665  59.627  1.00  0.00     0.214 A 
HETATM   26  N   UNL     1       5.921  32.238  59.801  1.00  0.00    -0.235 NA
HETATM   27  C   UNL     1       5.700  32.669  61.068  1.00  0.00     0.115 A 
HETATM   28  C   UNL     1       6.577  32.587  62.131  1.00  0.00     0.075 A 
HETATM   29  S   UNL     1       4.220  33.389  61.518  1.00  0.00    -0.073 SA
HETATM   30  C   UNL     1       7.862  31.950  61.899  1.00  0.00     0.262 A 
HETATM   31  C   UNL     1       6.037  33.160  63.328  1.00  0.00    -0.026 A 
HETATM   32  O   UNL     1       8.720  31.837  62.774  1.00  0.00    -0.267 OA
HETATM   33  C   UNL     1       4.742  33.600  63.124  1.00  0.00    -0.008 A 
HETATM   34  C   UNL     1       6.703  33.259  64.668  1.00  0.00     0.041 C 
HETATM   35  C   UNL     1       3.866  34.232  64.161  1.00  0.00     0.047 C 
HETATM   36  C   UNL     1       4.440  33.992  65.566  1.00  0.00     0.005 C 
HETATM   37  C   UNL     1       5.957  34.222  65.606  1.00  0.00     0.005 C 
ENDBRANCH  23  24
ENDBRANCH   1  23
TORSDOF 10
ENDMDL
MODEL 7
REMARK VINA RESULT:      -9.3      1.603      2.540
REMARK  10 active torsions:
REMARK  status: ('A' for Active; 'I' for Inactive)
REMARK    1  A    between atoms: N_2  and  C_3 
REMARK    2  A    between atoms: C_3  and  C_4 
REMARK       I    between atoms: C_4  and  N_5 
REMARK    3  A    between atoms: N_5  and  C_6 
REMARK    4  A    between atoms: C_6  and  C_7 
REMARK    5  A    between atoms: C_7  and  C_8 
REMARK    6  A    between atoms: C_8  and  C_9 
REMARK       I    between atoms: C_9  and  N_10 
REMARK    7  A    between atoms: N_10  and  C_11 
REMARK    8  A    between atoms: C_11  and  C_12 
REMARK    9  A    between atoms: C_12  and  C_13 
REMARK   10  A    between atoms: C_13  and  N_14 
ROOT
HETATM    1  C   UNL     1       7.993  29.054  57.930  1.00  0.00     0.235 C 
HETATM    2  N   UNL     1       7.862  29.797  59.090  1.00  0.00    -0.360 N 
HETATM    3  O   UNL     1       9.072  28.883  57.371  1.00  0.00    -0.272 OA
HETATM    4  H   UNL     1       6.943  29.948  59.489  1.00  0.00     0.162 HD
ENDROOT
BRANCH   2   5
HETATM    5  C   UNL     1       9.000  30.427  59.727  1.00  0.00     0.123 C 
BRANCH   5   6
HETATM    6  C   UNL     1       8.852  31.945  59.784  1.00  0.00     0.029 C 
BRANCH   6   7
HETATM    7  C   UNL     1       8.690  32.422  61.222  1.00  0.00     0.104 C 
BRANCH   7   8
HETATM    8  C   UNL     1       7.279  32.190  61.710  1.00  0.00     0.217 C 
HETATM    9  N   UNL     1       6.293  32.653  60.867  1.00  0.00    -0.361 N 
HETATM   10  H   UNL     1       6.574  33.227  60.077  1.00  0.00     0.162 HD
HETATM   11  O   UNL     1       7.030  31.577  62.744  1.00  0.00    -0.274 OA
BRANCH   9  12
HETATM   12  C   UNL     1       4.896  32.667  61.256  1.00  0.00     0.124 C 
BRANCH  12  13
HETATM   13  C   UNL     1       4.430  34.013  61.818  1.00  0.00     0.047 C 
BRANCH  13  14
HETATM   14  C   UNL     1       3.748  33.874  63.179  1.00  0.00     0.236 C 
BRANCH  14  15
HETATM   15  N   UNL     1       4.585  34.490  64.307  1.00  0.00    -0.071 N 
HETATM   16  H   UNL     1       5.304  35.067  63.852  1.00  0.00     0.279 HD
HETATM   17  C   UNL     1       3.756  35.389  65.194  1.00  0.00     0.235 C 
HETATM   18  C   UNL     1       4.575  36.089  66.272  1.00  0.00     0.028 C 
HETATM   19  C   UNL     1       4.958  35.169  67.425  1.00  0.00     0.002 C 
HETATM   20  C   UNL     1       6.245  34.384  67.211  1.00  0.00     0.002 C 
HETATM   21  C   UNL     1       6.522  33.905  65.790  1.00  0.00     0.028 C 
HETATM   22  C   UNL     1       5.306  33.371  65.047  1.00  0.00     0.235 C 
ENDBRANCH  14  15
ENDBRANCH  13  14
ENDBRANCH  12  13
ENDBRANCH   9  12
ENDBRANCH   7   8
ENDBRANCH   6   7
ENDBRANCH   5   6
ENDBRANCH   2   5
BRANCH   1  23
HETATM   23  C   UNL     1       6.681  28.426  57.459  1.00  0.00     0.235 C 
BRANCH  23  24
HETATM   24  N   UNL     1       6.874  27.640  56.256  1.00  0.00    -0.299 N 
HETATM   25  C   UNL     1       6.821  28.247  55.016  1.00  0.00     0.214 A 
HETATM   26  N   UNL     1       7.031  27.664  53.880  1.00  0.00    -0.235 NA
HETATM   27  C   UNL     1       7.309  26.340  53.978  1.00  0.00     0.115 A 
HETATM   28  C   UNL     1       7.342  25.588  55.135  1.00  0.00     0.075 A 
HETATM   29  S   UNL     1       7.684  25.406  52.600  1.00  0.00    -0.073 SA
HETATM   30  C   UNL     1       7.087  26.271  56.392  1.00  0.00     0.262 A 
HETATM   31  C   UNL     1       7.645  24.211  54.881  1.00  0.00    -0.026 A 
HETATM   32  O   UNL     1       7.081  25.692  57.478  1.00  0.00    -0.267 OA
HETATM   33  C   UNL     1       7.886  23.999  53.535  1.00  0.00    -0.008 A 
HETATM   34  C   UNL     1       7.756  23.105  55.887  1.00  0.00     0.041 C 
HETATM   35  C   UNL     1       8.251  22.686  52.915  1.00  0.00     0.047 C 
HETATM   36  C   UNL     1       8.694  21.687  53.996  1.00  0.00     0.005 C 
HETATM   37  C   UNL     1       7.763  21.722  55.216  1.00  0.00     0.005 C 
ENDBRANCH  23  24
ENDBRANCH   1  23
TORSDOF 10
ENDMDL
MODEL 8
REMARK VINA RESULT:      -9.2      3.043      5.513
REMARK  10 active torsions:
REMARK  status: ('A' for Active; 'I' for Inactive)
REMARK    1  A    between atoms: N_2  and  C_3 
REMARK    2  A    between atoms: C_3  and  C_4 
REMARK       I    between atoms: C_4  and  N_5 
REMARK    3  A    between atoms: N_5  and  C_6 
REMARK    4  A    between atoms: C_6  and  C_7 
REMARK    5  A    between atoms: C_7  and  C_8 
REMARK    6  A    between atoms: C_8  and  C_9 
REMARK       I    between atoms: C_9  and  N_10 
REMARK    7  A    between atoms: N_10  and  C_11 
REMARK    8  A    between atoms: C_11  and  C_12 
REMARK    9  A    between atoms: C_12  and  C_13 
REMARK   10  A    between atoms: C_13  and  N_14 
ROOT
HETATM    1  C   UNL     1       5.213  28.195  53.940  1.00  0.00     0.235 C 
HETATM    2  N   UNL     1       4.223  28.854  54.646  1.00  0.00    -0.360 N 
HETATM    3  O   UNL     1       6.251  28.743  53.583  1.00  0.00    -0.272 OA
HETATM    4  H   UNL     1       3.364  28.370  54.878  1.00  0.00     0.162 HD
ENDROOT
BRANCH   2   5
HETATM    5  C   UNL     1       4.346  30.249  55.013  1.00  0.00     0.123 C 
BRANCH   5   6
HETATM    6  C   UNL     1       4.621  30.423  56.504  1.00  0.00     0.029 C 
BRANCH   6   7
HETATM    7  C   UNL     1       3.343  30.775  57.256  1.00  0.00     0.104 C 
BRANCH   7   8
HETATM    8  C   UNL     1       3.657  31.269  58.648  1.00  0.00     0.217 C 
HETATM    9  N   UNL     1       4.863  31.925  58.769  1.00  0.00    -0.361 N 
HETATM   10  H   UNL     1       5.498  31.903  57.977  1.00  0.00     0.162 HD
HETATM   11  O   UNL     1       2.871  31.154  59.584  1.00  0.00    -0.274 OA
BRANCH   9  12
HETATM   12  C   UNL     1       5.399  32.313  60.060  1.00  0.00     0.124 C 
BRANCH  12  13
HETATM   13  C   UNL     1       6.910  32.564  60.045  1.00  0.00     0.047 C 
BRANCH  13  14
HETATM   14  C   UNL     1       7.718  31.267  60.080  1.00  0.00     0.236 C 
BRANCH  14  15
HETATM   15  N   UNL     1       8.356  30.951  58.721  1.00  0.00    -0.071 N 
HETATM   16  H   UNL     1       7.987  31.646  58.059  1.00  0.00     0.279 HD
HETATM   17  C   UNL     1       9.860  31.095  58.760  1.00  0.00     0.235 C 
HETATM   18  C   UNL     1      10.519  30.877  57.403  1.00  0.00     0.028 C 
HETATM   19  C   UNL     1      10.588  29.408  57.001  1.00  0.00     0.002 C 
HETATM   20  C   UNL     1       9.351  28.887  56.282  1.00  0.00     0.002 C 
HETATM   21  C   UNL     1       8.009  29.439  56.750  1.00  0.00     0.028 C 
HETATM   22  C   UNL     1       7.868  29.585  58.258  1.00  0.00     0.235 C 
ENDBRANCH  14  15
ENDBRANCH  13  14
ENDBRANCH  12  13
ENDBRANCH   9  12
ENDBRANCH   7   8
ENDBRANCH   6   7
ENDBRANCH   5   6
ENDBRANCH   2   5
BRANCH   1  23
HETATM   23  C   UNL     1       4.911  26.713  53.709  1.00  0.00     0.235 C 
BRANCH  23  24
HETATM   24  N   UNL     1       5.822  25.866  54.454  1.00  0.00    -0.299 N 
HETATM   25  C   UNL     1       6.230  26.236  55.722  1.00  0.00     0.214 A 
HETATM   26  N   UNL     1       6.992  25.541  56.502  1.00  0.00    -0.235 NA
HETATM   27  C   UNL     1       7.408  24.364  55.969  1.00  0.00     0.115 A 
HETATM   28  C   UNL     1       7.131  23.889  54.704  1.00  0.00     0.075 A 
HETATM   29  S   UNL     1       8.365  23.272  56.865  1.00  0.00    -0.073 SA
HETATM   30  C   UNL     1       6.284  24.701  53.848  1.00  0.00     0.262 A 
HETATM   31  C   UNL     1       7.746  22.620  54.452  1.00  0.00    -0.026 A 
HETATM   32  O   UNL     1       5.985  24.375  52.699  1.00  0.00    -0.267 OA
HETATM   33  C   UNL     1       8.419  22.166  55.572  1.00  0.00    -0.008 A 
HETATM   34  C   UNL     1       7.675  21.810  53.192  1.00  0.00     0.041 C 
HETATM   35  C   UNL     1       9.159  20.869  55.674  1.00  0.00     0.047 C 
HETATM   36  C   UNL     1       8.768  19.936  54.518  1.00  0.00     0.005 C 
HETATM   37  C   UNL     1       8.720  20.683  53.178  1.00  0.00     0.005 C 
ENDBRANCH  23  24
ENDBRANCH   1  23
TORSDOF 10
ENDMDL
MODEL 9
REMARK VINA RESULT:      -9.2      1.742      2.066
REMARK  10 active torsions:
REMARK  status: ('A' for Active; 'I' for Inactive)
REMARK    1  A    between atoms: N_2  and  C_3 
REMARK    2  A    between atoms: C_3  and  C_4 
REMARK       I    between atoms: C_4  and  N_5 
REMARK    3  A    between atoms: N_5  and  C_6 
REMARK    4  A    between atoms: C_6  and  C_7 
REMARK    5  A    between atoms: C_7  and  C_8 
REMARK    6  A    between atoms: C_8  and  C_9 
REMARK       I    between atoms: C_9  and  N_10 
REMARK    7  A    between atoms: N_10  and  C_11 
REMARK    8  A    between atoms: C_11  and  C_12 
REMARK    9  A    between atoms: C_12  and  C_13 
REMARK   10  A    between atoms: C_13  and  N_14 
ROOT
HETATM    1  C   UNL     1       6.346  28.563  56.991  1.00  0.00     0.235 C 
HETATM    2  N   UNL     1       6.576  29.875  56.616  1.00  0.00    -0.360 N 
HETATM    3  O   UNL     1       5.229  28.138  57.267  1.00  0.00    -0.272 OA
HETATM    4  H   UNL     1       7.523  30.189  56.442  1.00  0.00     0.162 HD
ENDROOT
BRANCH   2   5
HETATM    5  C   UNL     1       5.503  30.842  56.524  1.00  0.00     0.123 C 
BRANCH   5   6
HETATM    6  C   UNL     1       5.727  32.030  57.457  1.00  0.00     0.029 C 
BRANCH   6   7
HETATM    7  C   UNL     1       5.536  31.621  58.913  1.00  0.00     0.104 C 
BRANCH   7   8
HETATM    8  C   UNL     1       6.785  31.900  59.717  1.00  0.00     0.217 C 
HETATM    9  N   UNL     1       6.696  31.571  61.051  1.00  0.00    -0.361 N 
HETATM   10  H   UNL     1       5.785  31.310  61.418  1.00  0.00     0.162 HD
HETATM   11  O   UNL     1       7.818  32.323  59.208  1.00  0.00    -0.274 OA
BRANCH   9  12
HETATM   12  C   UNL     1       7.734  31.927  61.999  1.00  0.00     0.124 C 
BRANCH  12  13
HETATM   13  C   UNL     1       7.320  33.032  62.975  1.00  0.00     0.047 C 
BRANCH  13  14
HETATM   14  C   UNL     1       5.827  33.351  62.897  1.00  0.00     0.236 C 
BRANCH  14  15
HETATM   15  N   UNL     1       5.225  33.628  64.281  1.00  0.00    -0.071 N 
HETATM   16  H   UNL     1       4.792  32.748  64.590  1.00  0.00     0.279 HD
HETATM   17  C   UNL     1       6.286  34.005  65.289  1.00  0.00     0.235 C 
HETATM   18  C   UNL     1       5.734  34.200  66.696  1.00  0.00     0.028 C 
HETATM   19  C   UNL     1       4.986  35.516  66.869  1.00  0.00     0.002 C 
HETATM   20  C   UNL     1       3.512  35.463  66.493  1.00  0.00     0.002 C 
HETATM   21  C   UNL     1       3.144  34.580  65.305  1.00  0.00     0.028 C 
HETATM   22  C   UNL     1       4.109  34.653  64.132  1.00  0.00     0.235 C 
ENDBRANCH  14  15
ENDBRANCH  13  14
ENDBRANCH  12  13
ENDBRANCH   9  12
ENDBRANCH   7   8
ENDBRANCH   6   7
ENDBRANCH   5   6
ENDBRANCH   2   5
BRANCH   1  23
HETATM   23  C   UNL     1       7.605  27.694  56.964  1.00  0.00     0.235 C 
BRANCH  23  24
HETATM   24  N   UNL     1       7.548  26.716  55.896  1.00  0.00    -0.299 N 
HETATM   25  C   UNL     1       7.354  27.127  54.590  1.00  0.00     0.214 A 
HETATM   26  N   UNL     1       7.340  26.358  53.551  1.00  0.00    -0.235 NA
HETATM   27  C   UNL     1       7.522  25.043  53.829  1.00  0.00     0.115 A 
HETATM   28  C   UNL     1       7.671  24.478  55.080  1.00  0.00     0.075 A 
HETATM   29  S   UNL     1       7.604  23.874  52.589  1.00  0.00    -0.073 SA
HETATM   30  C   UNL     1       7.668  25.369  56.228  1.00  0.00     0.262 A 
HETATM   31  C   UNL     1       7.820  23.055  55.021  1.00  0.00    -0.026 A 
HETATM   32  O   UNL     1       7.782  24.968  57.385  1.00  0.00    -0.267 OA
HETATM   33  C   UNL     1       7.833  22.614  53.709  1.00  0.00    -0.008 A 
HETATM   34  C   UNL     1       7.994  22.111  56.173  1.00  0.00     0.041 C 
HETATM   35  C   UNL     1       7.993  21.190  53.274  1.00  0.00     0.047 C 
HETATM   36  C   UNL     1       8.514  20.329  54.435  1.00  0.00     0.005 C 
HETATM   37  C   UNL     1       7.786  20.648  55.748  1.00  0.00     0.005 C 
ENDBRANCH  23  24
ENDBRANCH   1  23
TORSDOF 10
ENDMDL
MODEL 10
REMARK VINA RESULT:      -9.1      1.787      2.530
REMARK  10 active torsions:
REMARK  status: ('A' for Active; 'I' for Inactive)
REMARK    1  A    between atoms: N_2  and  C_3 
REMARK    2  A    between atoms: C_3  and  C_4 
REMARK       I    between atoms: C_4  and  N_5 
REMARK    3  A    between atoms: N_5  and  C_6 
REMARK    4  A    between atoms: C_6  and  C_7 
REMARK    5  A    between atoms: C_7  and  C_8 
REMARK    6  A    between atoms: C_8  and  C_9 
REMARK       I    between atoms: C_9  and  N_10 
REMARK    7  A    between atoms: N_10  and  C_11 
REMARK    8  A    between atoms: C_11  and  C_12 
REMARK    9  A    between atoms: C_12  and  C_13 
REMARK   10  A    between atoms: C_13  and  N_14 
ROOT
HETATM    1  C   UNL     1       7.939  28.617  57.779  1.00  0.00     0.235 C 
HETATM    2  N   UNL     1       7.729  29.553  58.777  1.00  0.00    -0.360 N 
HETATM    3  O   UNL     1       9.054  28.351  57.342  1.00  0.00    -0.272 OA
HETATM    4  H   UNL     1       6.785  29.771  59.071  1.00  0.00     0.162 HD
ENDROOT
BRANCH   2   5
HETATM    5  C   UNL     1       8.824  30.286  59.378  1.00  0.00     0.123 C 
BRANCH   5   6
HETATM    6  C   UNL     1       8.326  31.430  60.258  1.00  0.00     0.029 C 
BRANCH   6   7
HETATM    7  C   UNL     1       8.781  31.244  61.700  1.00  0.00     0.104 C 
BRANCH   7   8
HETATM    8  C   UNL     1       7.750  31.785  62.663  1.00  0.00     0.217 C 
HETATM    9  N   UNL     1       6.460  31.365  62.422  1.00  0.00    -0.361 N 
HETATM   10  H   UNL     1       6.278  30.859  61.561  1.00  0.00     0.162 HD
HETATM   11  O   UNL     1       8.047  32.489  63.623  1.00  0.00    -0.274 OA
BRANCH   9  12
HETATM   12  C   UNL     1       5.327  31.918  63.139  1.00  0.00     0.124 C 
BRANCH  12  13
HETATM   13  C   UNL     1       4.707  33.140  62.455  1.00  0.00     0.047 C 
BRANCH  13  14
HETATM   14  C   UNL     1       3.883  33.994  63.420  1.00  0.00     0.236 C 
BRANCH  14  15
HETATM   15  N   UNL     1       4.167  35.491  63.248  1.00  0.00    -0.071 N 
HETATM   16  H   UNL     1       3.585  35.978  63.942  1.00  0.00     0.279 HD
HETATM   17  C   UNL     1       5.613  35.825  63.534  1.00  0.00     0.235 C 
HETATM   18  C   UNL     1       5.910  37.318  63.460  1.00  0.00     0.028 C 
HETATM   19  C   UNL     1       5.986  37.843  62.032  1.00  0.00     0.002 C 
HETATM   20  C   UNL     1       4.649  38.264  61.437  1.00  0.00     0.002 C 
HETATM   21  C   UNL     1       3.436  37.426  61.828  1.00  0.00     0.028 C 
HETATM   22  C   UNL     1       3.683  35.925  61.870  1.00  0.00     0.235 C 
ENDBRANCH  14  15
ENDBRANCH  13  14
ENDBRANCH  12  13
ENDBRANCH   9  12
ENDBRANCH   7   8
ENDBRANCH   6   7
ENDBRANCH   5   6
ENDBRANCH   2   5
BRANCH   1  23
HETATM   23  C   UNL     1       6.658  27.915  57.326  1.00  0.00     0.235 C 
BRANCH  23  24
HETATM   24  N   UNL     1       6.884  27.122  56.133  1.00  0.00    -0.299 N 
HETATM   25  C   UNL     1       6.903  27.730  54.892  1.00  0.00     0.214 A 
HETATM   26  N   UNL     1       7.148  27.141  53.767  1.00  0.00    -0.235 NA
HETATM   27  C   UNL     1       7.385  25.810  53.876  1.00  0.00     0.115 A 
HETATM   28  C   UNL     1       7.346  25.058  55.033  1.00  0.00     0.075 A 
HETATM   29  S   UNL     1       7.797  24.865  52.516  1.00  0.00    -0.073 SA
HETATM   30  C   UNL     1       7.053  25.748  56.277  1.00  0.00     0.262 A 
HETATM   31  C   UNL     1       7.623  23.673  54.792  1.00  0.00    -0.026 A 
HETATM   32  O   UNL     1       6.982  25.170  57.362  1.00  0.00    -0.267 OA
HETATM   33  C   UNL     1       7.918  23.453  53.458  1.00  0.00    -0.008 A 
HETATM   34  C   UNL     1       7.657  22.565  55.801  1.00  0.00     0.041 C 
HETATM   35  C   UNL     1       8.275  22.131  52.855  1.00  0.00     0.047 C 
HETATM   36  C   UNL     1       8.641  21.121  53.954  1.00  0.00     0.005 C 
HETATM   37  C   UNL     1       7.657  21.182  55.130  1.00  0.00     0.005 C 
ENDBRANCH  23  24
ENDBRANCH   1  23
TORSDOF 10
ENDMDL
