MODEL 1
REMARK VINA RESULT:     -10.2      0.000      0.000
REMARK  8 active torsions:
REMARK  status: ('A' for Active; 'I' for Inactive)
REMARK    1  A    between atoms: C_2  and  C_3 
REMARK    2  A    between atoms: C_3  and  O_4 
REMARK    3  A    between atoms: O_4  and  C_5 
REMARK    4  A    between atoms: C_7  and  C_8 
REMARK       I    between atoms: C_8  and  N_9 
REMARK    5  A    between atoms: N_9  and  C_10 
REMARK    6  A    between atoms: N_11  and  C_12 
REMARK    7  A    between atoms: C_14  and  C_15 
REMARK    8  A    between atoms: C_24  and  O_25 
ROOT
HETATM    1  C   UNL     1       6.543  29.673  56.594  1.00  0.00     0.035 A 
HETATM    2  C   UNL     1       6.341  30.367  57.791  1.00  0.00     0.046 A 
HETATM    3  C   UNL     1       7.425  30.800  58.581  1.00  0.00     0.036 A 
HETATM    4  C   UNL     1       8.727  30.490  58.132  1.00  0.00     0.084 A 
HETATM    5  C   UNL     1       8.949  29.749  56.963  1.00  0.00    -0.026 A 
HETATM    6  C   UNL     1      10.342  29.444  56.489  1.00  0.00     0.051 C 
HETATM    7  C   UNL     1       7.845  29.347  56.202  1.00  0.00     0.039 A 
ENDROOT
BRANCH   1   8
HETATM    8  N   UNL     1       5.493  29.208  55.773  1.00  0.00    -0.333 N 
HETATM    9  C   UNL     1       5.421  28.135  54.955  1.00  0.00     0.179 C 
HETATM   10  S   UNL     1       4.526  28.255  53.544  1.00  0.00    -0.040 SA
HETATM   11  H   UNL     1       4.748  29.880  55.626  1.00  0.00     0.168 HD
BRANCH   9  12
HETATM   12  N   UNL     1       5.978  26.926  55.247  1.00  0.00    -0.299 N 
HETATM   13  C   UNL     1       7.072  26.289  54.669  1.00  0.00     0.257 C 
HETATM   14  O   UNL     1       7.615  26.548  53.606  1.00  0.00    -0.267 OA
HETATM   15  H   UNL     1       5.750  26.624  56.185  1.00  0.00     0.171 HD
BRANCH  13  16
HETATM   16  C   UNL     1       7.579  25.138  55.448  1.00  0.00     0.035 A 
HETATM   17  C   UNL     1       7.401  23.829  54.984  1.00  0.00     0.053 A 
HETATM   18  C   UNL     1       7.837  22.771  55.780  1.00  0.00     0.069 A 
HETATM   19  C   UNL     1       8.427  23.010  57.022  1.00  0.00     0.037 A 
HETATM   20  C   UNL     1       8.609  24.318  57.472  1.00  0.00     0.004 A 
HETATM   21  C   UNL     1       8.176  25.386  56.689  1.00  0.00     0.017 A 
BRANCH  18  22
HETATM   22  O   UNL     1       7.601  21.467  55.448  1.00  0.00    -0.351 OA
BRANCH  22  23
HETATM   23  C   UNL     1       8.800  20.685  55.396  1.00  0.00     0.175 C 
BRANCH  23  24
HETATM   24  C   UNL     1       8.787  19.929  54.070  1.00  0.00     0.022 C 
HETATM   25  C   UNL     1       8.020  20.673  52.991  1.00  0.00     0.007 C 
ENDBRANCH  23  24
ENDBRANCH  22  23
ENDBRANCH  18  22
ENDBRANCH  13  16
ENDBRANCH   9  12
ENDBRANCH   1   8
BRANCH   3  26
HETATM   26  C   UNL     1       7.234  31.558  59.840  1.00  0.00     0.112 A 
HETATM   27  S   UNL     1       5.955  32.688  60.064  1.00  0.00    -0.067 SA
HETATM   28  C   UNL     1       6.475  32.990  61.675  1.00  0.00     0.035 A 
HETATM   29  C   UNL     1       7.599  32.210  61.939  1.00  0.00     0.075 A 
HETATM   30  C   UNL     1       5.929  33.855  62.637  1.00  0.00     0.021 A 
HETATM   31  N   UNL     1       8.013  31.397  60.896  1.00  0.00    -0.239 NA
HETATM   32  C   UNL     1       8.207  32.299  63.208  1.00  0.00     0.033 A 
HETATM   33  C   UNL     1       7.674  33.159  64.174  1.00  0.00     0.002 A 
HETATM   34  C   UNL     1       6.547  33.924  63.890  1.00  0.00     0.002 A 
ENDBRANCH   3  26
BRANCH   4  35
HETATM   35  O   UNL     1       9.849  30.892  58.821  1.00  0.00    -0.359 OA
HETATM   36  H   UNL     1      10.625  30.441  58.423  1.00  0.00     0.218 HD
ENDBRANCH   4  35
TORSDOF 8
ENDMDL
MODEL 2
REMARK VINA RESULT:     -10.2      1.089      1.651
REMARK  8 active torsions:
REMARK  status: ('A' for Active; 'I' for Inactive)
REMARK    1  A    between atoms: C_2  and  C_3 
REMARK    2  A    between atoms: C_3  and  O_4 
REMARK    3  A    between atoms: O_4  and  C_5 
REMARK    4  A    between atoms: C_7  and  C_8 
REMARK       I    between atoms: C_8  and  N_9 
REMARK    5  A    between atoms: N_9  and  C_10 
REMARK    6  A    between atoms: N_11  and  C_12 
REMARK    7  A    between atoms: C_14  and  C_15 
REMARK    8  A    between atoms: C_24  and  O_25 
ROOT
HETATM    1  C   UNL     1       6.570  29.799  56.465  1.00  0.00     0.035 A 
HETATM    2  C   UNL     1       6.365  30.482  57.668  1.00  0.00     0.046 A 
HETATM    3  C   UNL     1       7.437  30.790  58.529  1.00  0.00     0.036 A 
HETATM    4  C   UNL     1       8.728  30.366  58.145  1.00  0.00     0.084 A 
HETATM    5  C   UNL     1       8.947  29.634  56.970  1.00  0.00    -0.026 A 
HETATM    6  C   UNL     1      10.330  29.207  56.566  1.00  0.00     0.051 C 
HETATM    7  C   UNL     1       7.856  29.357  56.138  1.00  0.00     0.039 A 
ENDROOT
BRANCH   1   8
HETATM    8  N   UNL     1       5.530  29.455  55.574  1.00  0.00    -0.333 N 
HETATM    9  C   UNL     1       5.531  28.660  54.482  1.00  0.00     0.179 C 
HETATM   10  S   UNL     1       4.539  29.061  53.192  1.00  0.00    -0.040 SA
HETATM   11  H   UNL     1       4.705  30.041  55.649  1.00  0.00     0.168 HD
BRANCH   9  12
HETATM   12  N   UNL     1       6.240  27.500  54.394  1.00  0.00    -0.299 N 
HETATM   13  C   UNL     1       6.065  26.298  55.072  1.00  0.00     0.257 C 
HETATM   14  O   UNL     1       5.406  26.096  56.082  1.00  0.00    -0.267 OA
HETATM   15  H   UNL     1       6.738  27.431  53.516  1.00  0.00     0.171 HD
BRANCH  13  16
HETATM   16  C   UNL     1       6.819  25.165  54.494  1.00  0.00     0.035 A 
HETATM   17  C   UNL     1       7.537  24.291  55.318  1.00  0.00     0.053 A 
HETATM   18  C   UNL     1       8.287  23.275  54.727  1.00  0.00     0.069 A 
HETATM   19  C   UNL     1       8.331  23.139  53.338  1.00  0.00     0.037 A 
HETATM   20  C   UNL     1       7.603  24.007  52.525  1.00  0.00     0.004 A 
HETATM   21  C   UNL     1       6.852  25.030  53.101  1.00  0.00     0.017 A 
BRANCH  18  22
HETATM   22  O   UNL     1       9.099  22.453  55.455  1.00  0.00    -0.351 OA
BRANCH  22  23
HETATM   23  C   UNL     1       8.439  21.891  56.594  1.00  0.00     0.175 C 
BRANCH  23  24
HETATM   24  C   UNL     1       7.918  20.517  56.181  1.00  0.00     0.022 C 
HETATM   25  C   UNL     1       8.764  19.887  55.089  1.00  0.00     0.007 C 
ENDBRANCH  23  24
ENDBRANCH  22  23
ENDBRANCH  18  22
ENDBRANCH  13  16
ENDBRANCH   9  12
ENDBRANCH   1   8
BRANCH   3  26
HETATM   26  C   UNL     1       7.247  31.534  59.797  1.00  0.00     0.112 A 
HETATM   27  S   UNL     1       6.008  32.711  60.010  1.00  0.00    -0.067 SA
HETATM   28  C   UNL     1       6.500  32.964  61.638  1.00  0.00     0.035 A 
HETATM   29  C   UNL     1       7.586  32.135  61.914  1.00  0.00     0.075 A 
HETATM   30  C   UNL     1       5.966  33.834  62.602  1.00  0.00     0.021 A 
HETATM   31  N   UNL     1       7.993  31.324  60.867  1.00  0.00    -0.239 NA
HETATM   32  C   UNL     1       8.166  32.179  63.199  1.00  0.00     0.033 A 
HETATM   33  C   UNL     1       7.644  33.043  64.167  1.00  0.00     0.002 A 
HETATM   34  C   UNL     1       6.555  33.857  63.870  1.00  0.00     0.002 A 
ENDBRANCH   3  26
BRANCH   4  35
HETATM   35  O   UNL     1       9.841  30.643  58.907  1.00  0.00    -0.359 OA
HETATM   36  H   UNL     1      10.627  30.299  58.428  1.00  0.00     0.218 HD
ENDBRANCH   4  35
TORSDOF 8
ENDMDL
MODEL 3
REMARK VINA RESULT:     -10.0      2.583     10.652
REMARK  8 active torsions:
REMARK  status: ('A' for Active; 'I' for Inactive)
REMARK    1  A    between atoms: C_2  and  C_3 
REMARK    2  A    between atoms: C_3  and  O_4 
REMARK    3  A    between atoms: O_4  and  C_5 
REMARK    4  A    between atoms: C_7  and  C_8 
REMARK       I    between atoms: C_8  and  N_9 
REMARK    5  A    between atoms: N_9  and  C_10 
REMARK    6  A    between atoms: N_11  and  C_12 
REMARK    7  A    between atoms: C_14  and  C_15 
REMARK    8  A    between atoms: C_24  and  O_25 
ROOT
HETATM    1  C   UNL     1       8.189  28.378  57.216  1.00  0.00     0.035 A 
HETATM    2  C   UNL     1       8.400  27.064  56.788  1.00  0.00     0.046 A 
HETATM    3  C   UNL     1       7.357  26.298  56.229  1.00  0.00     0.036 A 
HETATM    4  C   UNL     1       6.082  26.896  56.135  1.00  0.00     0.084 A 
HETATM    5  C   UNL     1       5.838  28.194  56.607  1.00  0.00    -0.026 A 
HETATM    6  C   UNL     1       4.480  28.823  56.481  1.00  0.00     0.051 C 
HETATM    7  C   UNL     1       6.903  28.924  57.146  1.00  0.00     0.039 A 
ENDROOT
BRANCH   1   8
HETATM    8  N   UNL     1       9.195  29.183  57.793  1.00  0.00    -0.333 N 
HETATM    9  C   UNL     1       9.124  30.398  58.380  1.00  0.00     0.179 C 
HETATM   10  S   UNL     1      10.410  31.456  58.201  1.00  0.00    -0.040 SA
HETATM   11  H   UNL     1      10.141  28.898  57.565  1.00  0.00     0.168 HD
BRANCH   9  12
HETATM   12  N   UNL     1       8.093  30.791  59.179  1.00  0.00    -0.299 N 
HETATM   13  C   UNL     1       8.061  30.991  60.556  1.00  0.00     0.257 C 
HETATM   14  O   UNL     1       8.872  30.610  61.388  1.00  0.00    -0.267 OA
HETATM   15  H   UNL     1       7.379  31.282  58.656  1.00  0.00     0.171 HD
BRANCH  13  16
HETATM   16  C   UNL     1       6.864  31.717  61.032  1.00  0.00     0.035 A 
HETATM   17  C   UNL     1       6.549  31.757  62.395  1.00  0.00     0.053 A 
HETATM   18  C   UNL     1       5.377  32.398  62.793  1.00  0.00     0.069 A 
HETATM   19  C   UNL     1       4.526  32.978  61.851  1.00  0.00     0.037 A 
HETATM   20  C   UNL     1       4.853  32.942  60.495  1.00  0.00     0.004 A 
HETATM   21  C   UNL     1       6.020  32.303  60.081  1.00  0.00     0.017 A 
BRANCH  18  22
HETATM   22  O   UNL     1       4.945  32.384  64.090  1.00  0.00    -0.351 OA
BRANCH  22  23
HETATM   23  C   UNL     1       4.725  33.699  64.612  1.00  0.00     0.175 C 
BRANCH  23  24
HETATM   24  C   UNL     1       5.621  33.853  65.838  1.00  0.00     0.022 C 
HETATM   25  C   UNL     1       7.096  33.830  65.478  1.00  0.00     0.007 C 
ENDBRANCH  23  24
ENDBRANCH  22  23
ENDBRANCH  18  22
ENDBRANCH  13  16
ENDBRANCH   9  12
ENDBRANCH   1   8
BRANCH   3  26
HETATM   26  C   UNL     1       7.564  24.911  55.747  1.00  0.00     0.112 A 
HETATM   27  S   UNL     1       7.887  23.594  56.807  1.00  0.00    -0.067 SA
HETATM   28  C   UNL     1       7.926  22.506  55.476  1.00  0.00     0.035 A 
HETATM   29  C   UNL     1       7.694  23.220  54.303  1.00  0.00     0.075 A 
HETATM   30  C   UNL     1       8.147  21.119  55.469  1.00  0.00     0.021 A 
HETATM   31  N   UNL     1       7.481  24.579  54.470  1.00  0.00    -0.239 NA
HETATM   32  C   UNL     1       7.688  22.529  53.075  1.00  0.00     0.033 A 
HETATM   33  C   UNL     1       7.909  21.148  53.055  1.00  0.00     0.002 A 
HETATM   34  C   UNL     1       8.133  20.453  54.239  1.00  0.00     0.002 A 
ENDBRANCH   3  26
BRANCH   4  35
HETATM   35  O   UNL     1       5.008  26.238  55.580  1.00  0.00    -0.359 OA
HETATM   36  H   UNL     1       4.798  26.672  54.725  1.00  0.00     0.218 HD
ENDBRANCH   4  35
TORSDOF 8
ENDMDL
MODEL 4
REMARK VINA RESULT:     -10.0      2.650      9.061
REMARK  8 active torsions:
REMARK  status: ('A' for Active; 'I' for Inactive)
REMARK    1  A    between atoms: C_2  and  C_3 
REMARK    2  A    between atoms: C_3  and  O_4 
REMARK    3  A    between atoms: O_4  and  C_5 
REMARK    4  A    between atoms: C_7  and  C_8 
REMARK       I    between atoms: C_8  and  N_9 
REMARK    5  A    between atoms: N_9  and  C_10 
REMARK    6  A    between atoms: N_11  and  C_12 
REMARK    7  A    between atoms: C_14  and  C_15 
REMARK    8  A    between atoms: C_24  and  O_25 
ROOT
HETATM    1  C   UNL     1       4.838  28.647  53.714  1.00  0.00     0.035 A 
HETATM    2  C   UNL     1       5.430  27.520  54.289  1.00  0.00     0.046 A 
HETATM    3  C   UNL     1       6.039  26.525  53.498  1.00  0.00     0.036 A 
HETATM    4  C   UNL     1       6.012  26.695  52.097  1.00  0.00     0.084 A 
HETATM    5  C   UNL     1       5.377  27.792  51.497  1.00  0.00    -0.026 A 
HETATM    6  C   UNL     1       5.374  27.969  50.006  1.00  0.00     0.051 C 
HETATM    7  C   UNL     1       4.793  28.762  52.320  1.00  0.00     0.039 A 
ENDROOT
BRANCH   1   8
HETATM    8  N   UNL     1       4.205  29.665  54.459  1.00  0.00    -0.333 N 
HETATM    9  C   UNL     1       4.446  30.125  55.707  1.00  0.00     0.179 C 
HETATM   10  S   UNL     1       3.154  30.647  56.637  1.00  0.00    -0.040 SA
HETATM   11  H   UNL     1       3.314  29.969  54.080  1.00  0.00     0.168 HD
BRANCH   9  12
HETATM   12  N   UNL     1       5.695  30.262  56.232  1.00  0.00    -0.299 N 
HETATM   13  C   UNL     1       6.421  29.389  57.037  1.00  0.00     0.257 C 
HETATM   14  O   UNL     1       6.004  28.427  57.666  1.00  0.00    -0.267 OA
HETATM   15  H   UNL     1       6.250  30.930  55.713  1.00  0.00     0.171 HD
BRANCH  13  16
HETATM   16  C   UNL     1       7.856  29.728  57.153  1.00  0.00     0.035 A 
HETATM   17  C   UNL     1       8.305  30.597  58.154  1.00  0.00     0.053 A 
HETATM   18  C   UNL     1       9.655  30.941  58.188  1.00  0.00     0.069 A 
HETATM   19  C   UNL     1      10.542  30.438  57.234  1.00  0.00     0.037 A 
HETATM   20  C   UNL     1      10.088  29.565  56.246  1.00  0.00     0.004 A 
HETATM   21  C   UNL     1       8.740  29.214  56.197  1.00  0.00     0.017 A 
BRANCH  18  22
HETATM   22  O   UNL     1      10.148  31.866  59.063  1.00  0.00    -0.351 OA
BRANCH  22  23
HETATM   23  C   UNL     1       9.194  32.247  60.060  1.00  0.00     0.175 C 
BRANCH  23  24
HETATM   24  C   UNL     1       9.754  31.809  61.411  1.00  0.00     0.022 C 
HETATM   25  C   UNL     1       9.126  30.518  61.903  1.00  0.00     0.007 C 
ENDBRANCH  23  24
ENDBRANCH  22  23
ENDBRANCH  18  22
ENDBRANCH  13  16
ENDBRANCH   9  12
ENDBRANCH   1   8
BRANCH   3  26
HETATM   26  C   UNL     1       6.694  25.334  54.088  1.00  0.00     0.112 A 
HETATM   27  S   UNL     1       7.360  25.326  55.676  1.00  0.00    -0.067 SA
HETATM   28  C   UNL     1       7.806  23.675  55.503  1.00  0.00     0.035 A 
HETATM   29  C   UNL     1       7.421  23.234  54.239  1.00  0.00     0.075 A 
HETATM   30  C   UNL     1       8.451  22.828  56.421  1.00  0.00     0.021 A 
HETATM   31  N   UNL     1       6.785  24.179  53.451  1.00  0.00    -0.239 NA
HETATM   32  C   UNL     1       7.695  21.901  53.871  1.00  0.00     0.033 A 
HETATM   33  C   UNL     1       8.339  21.049  54.775  1.00  0.00     0.002 A 
HETATM   34  C   UNL     1       8.708  21.509  56.034  1.00  0.00     0.002 A 
ENDBRANCH   3  26
BRANCH   4  35
HETATM   35  O   UNL     1       6.603  25.792  51.242  1.00  0.00    -0.359 OA
HETATM   36  H   UNL     1       7.102  25.145  51.786  1.00  0.00     0.218 HD
ENDBRANCH   4  35
TORSDOF 8
ENDMDL
MODEL 5
REMARK VINA RESULT:      -9.6      2.681      9.529
REMARK  8 active torsions:
REMARK  status: ('A' for Active; 'I' for Inactive)
REMARK    1  A    between atoms: C_2  and  C_3 
REMARK    2  A    between atoms: C_3  and  O_4 
REMARK    3  A    between atoms: O_4  and  C_5 
REMARK    4  A    between atoms: C_7  and  C_8 
REMARK       I    between atoms: C_8  and  N_9 
REMARK    5  A    between atoms: N_9  and  C_10 
REMARK    6  A    between atoms: N_11  and  C_12 
REMARK    7  A    between atoms: C_14  and  C_15 
REMARK    8  A    between atoms: C_24  and  O_25 
ROOT
HETATM    1  C   UNL     1       6.210  28.599  54.919  1.00  0.00     0.035 A 
HETATM    2  C   UNL     1       6.400  27.280  54.496  1.00  0.00     0.046 A 
HETATM    3  C   UNL     1       7.177  26.374  55.245  1.00  0.00     0.036 A 
HETATM    4  C   UNL     1       7.777  26.850  56.431  1.00  0.00     0.084 A 
HETATM    5  C   UNL     1       7.642  28.183  56.845  1.00  0.00    -0.026 A 
HETATM    6  C   UNL     1       8.270  28.668  58.120  1.00  0.00     0.051 C 
HETATM    7  C   UNL     1       6.853  29.048  56.077  1.00  0.00     0.039 A 
ENDROOT
BRANCH   1   8
HETATM    8  N   UNL     1       5.452  29.549  54.201  1.00  0.00    -0.333 N 
HETATM    9  C   UNL     1       4.545  30.458  54.623  1.00  0.00     0.179 C 
HETATM   10  S   UNL     1       3.244  30.820  53.632  1.00  0.00    -0.040 SA
HETATM   11  H   UNL     1       5.441  29.402  53.197  1.00  0.00     0.168 HD
BRANCH   9  12
HETATM   12  N   UNL     1       4.666  31.158  55.785  1.00  0.00    -0.299 N 
HETATM   13  C   UNL     1       3.892  31.103  56.941  1.00  0.00     0.257 C 
HETATM   14  O   UNL     1       2.782  30.609  57.077  1.00  0.00    -0.267 OA
HETATM   15  H   UNL     1       5.603  31.517  55.912  1.00  0.00     0.171 HD
BRANCH  13  16
HETATM   16  C   UNL     1       4.504  31.773  58.108  1.00  0.00     0.035 A 
HETATM   17  C   UNL     1       5.895  31.844  58.242  1.00  0.00     0.053 A 
HETATM   18  C   UNL     1       6.430  32.426  59.390  1.00  0.00     0.069 A 
HETATM   19  C   UNL     1       5.594  32.918  60.394  1.00  0.00     0.037 A 
HETATM   20  C   UNL     1       4.209  32.853  60.248  1.00  0.00     0.004 A 
HETATM   21  C   UNL     1       3.659  32.270  59.108  1.00  0.00     0.017 A 
BRANCH  18  22
HETATM   22  O   UNL     1       7.772  32.434  59.644  1.00  0.00    -0.351 OA
BRANCH  22  23
HETATM   23  C   UNL     1       8.071  32.613  61.033  1.00  0.00     0.175 C 
BRANCH  23  24
HETATM   24  C   UNL     1       9.422  31.952  61.292  1.00  0.00     0.022 C 
HETATM   25  C   UNL     1       9.287  30.474  61.610  1.00  0.00     0.007 C 
ENDBRANCH  23  24
ENDBRANCH  22  23
ENDBRANCH  18  22
ENDBRANCH  13  16
ENDBRANCH   9  12
ENDBRANCH   1   8
BRANCH   3  26
HETATM   26  C   UNL     1       7.373  24.965  54.828  1.00  0.00     0.112 A 
HETATM   27  S   UNL     1       7.608  24.503  53.186  1.00  0.00    -0.067 SA
HETATM   28  C   UNL     1       7.771  22.856  53.652  1.00  0.00     0.035 A 
HETATM   29  C   UNL     1       7.630  22.762  55.035  1.00  0.00     0.075 A 
HETATM   30  C   UNL     1       8.006  21.725  52.852  1.00  0.00     0.021 A 
HETATM   31  N   UNL     1       7.414  23.964  55.690  1.00  0.00    -0.239 NA
HETATM   32  C   UNL     1       7.720  21.494  55.645  1.00  0.00     0.033 A 
HETATM   33  C   UNL     1       7.952  20.361  54.858  1.00  0.00     0.002 A 
HETATM   34  C   UNL     1       8.096  20.479  53.479  1.00  0.00     0.002 A 
ENDBRANCH   3  26
BRANCH   4  35
HETATM   35  O   UNL     1       8.531  26.034  57.244  1.00  0.00    -0.359 OA
HETATM   36  H   UNL     1       7.994  25.240  57.455  1.00  0.00     0.218 HD
ENDBRANCH   4  35
TORSDOF 8
ENDMDL
MODEL 6
REMARK VINA RESULT:      -9.3      4.060      8.763
REMARK  8 active torsions:
REMARK  status: ('A' for Active; 'I' for Inactive)
REMARK    1  A    between atoms: C_2  and  C_3 
REMARK    2  A    between atoms: C_3  and  O_4 
REMARK    3  A    between atoms: O_4  and  C_5 
REMARK    4  A    between atoms: C_7  and  C_8 
REMARK       I    between atoms: C_8  and  N_9 
REMARK    5  A    between atoms: N_9  and  C_10 
REMARK    6  A    between atoms: N_11  and  C_12 
REMARK    7  A    between atoms: C_14  and  C_15 
REMARK    8  A    between atoms: C_24  and  O_25 
ROOT
HETATM    1  C   UNL     1       5.114  28.740  56.357  1.00  0.00     0.035 A 
HETATM    2  C   UNL     1       5.419  27.516  55.755  1.00  0.00     0.046 A 
HETATM    3  C   UNL     1       6.609  26.825  56.058  1.00  0.00     0.036 A 
HETATM    4  C   UNL     1       7.498  27.423  56.978  1.00  0.00     0.084 A 
HETATM    5  C   UNL     1       7.235  28.675  57.552  1.00  0.00    -0.026 A 
HETATM    6  C   UNL     1       8.182  29.288  58.544  1.00  0.00     0.051 C 
HETATM    7  C   UNL     1       6.036  29.323  57.232  1.00  0.00     0.039 A 
ENDROOT
BRANCH   1   8
HETATM    8  N   UNL     1       3.942  29.477  56.080  1.00  0.00    -0.333 N 
HETATM    9  C   UNL     1       3.636  30.293  55.047  1.00  0.00     0.179 C 
HETATM   10  S   UNL     1       2.665  31.627  55.335  1.00  0.00    -0.040 SA
HETATM   11  H   UNL     1       3.306  29.562  56.866  1.00  0.00     0.168 HD
BRANCH   9  12
HETATM   12  N   UNL     1       4.011  30.052  53.760  1.00  0.00    -0.299 N 
HETATM   13  C   UNL     1       3.698  28.981  52.928  1.00  0.00     0.257 C 
HETATM   14  O   UNL     1       3.236  27.895  53.246  1.00  0.00    -0.267 OA
HETATM   15  H   UNL     1       4.283  30.902  53.284  1.00  0.00     0.171 HD
BRANCH  13  16
HETATM   16  C   UNL     1       4.020  29.211  51.503  1.00  0.00     0.035 A 
HETATM   17  C   UNL     1       3.048  29.026  50.513  1.00  0.00     0.053 A 
HETATM   18  C   UNL     1       3.411  29.190  49.178  1.00  0.00     0.069 A 
HETATM   19  C   UNL     1       4.722  29.521  48.832  1.00  0.00     0.037 A 
HETATM   20  C   UNL     1       5.682  29.714  49.825  1.00  0.00     0.004 A 
HETATM   21  C   UNL     1       5.335  29.550  51.164  1.00  0.00     0.017 A 
BRANCH  18  22
HETATM   22  O   UNL     1       2.550  28.921  48.151  1.00  0.00    -0.351 OA
BRANCH  22  23
HETATM   23  C   UNL     1       3.096  28.000  47.200  1.00  0.00     0.175 C 
BRANCH  23  24
HETATM   24  C   UNL     1       2.396  26.661  47.417  1.00  0.00     0.022 C 
HETATM   25  C   UNL     1       3.259  25.680  48.190  1.00  0.00     0.007 C 
ENDBRANCH  23  24
ENDBRANCH  22  23
ENDBRANCH  18  22
ENDBRANCH  13  16
ENDBRANCH   9  12
ENDBRANCH   1   8
BRANCH   3  26
HETATM   26  C   UNL     1       6.942  25.515  55.449  1.00  0.00     0.112 A 
HETATM   27  S   UNL     1       7.214  25.313  53.761  1.00  0.00    -0.067 SA
HETATM   28  C   UNL     1       7.542  23.641  53.994  1.00  0.00     0.035 A 
HETATM   29  C   UNL     1       7.417  23.341  55.348  1.00  0.00     0.075 A 
HETATM   30  C   UNL     1       7.885  22.663  53.045  1.00  0.00     0.021 A 
HETATM   31  N   UNL     1       7.086  24.412  56.163  1.00  0.00    -0.239 NA
HETATM   32  C   UNL     1       7.636  22.015  55.775  1.00  0.00     0.033 A 
HETATM   33  C   UNL     1       7.975  21.032  54.839  1.00  0.00     0.002 A 
HETATM   34  C   UNL     1       8.100  21.355  53.492  1.00  0.00     0.002 A 
ENDBRANCH   3  26
BRANCH   4  35
HETATM   35  O   UNL     1       8.672  26.813  57.357  1.00  0.00    -0.359 OA
HETATM   36  H   UNL     1       8.562  26.494  58.278  1.00  0.00     0.218 HD
ENDBRANCH   4  35
TORSDOF 8
ENDMDL
MODEL 7
REMARK VINA RESULT:      -9.2      3.138     10.526
REMARK  8 active torsions:
REMARK  status: ('A' for Active; 'I' for Inactive)
REMARK    1  A    between atoms: C_2  and  C_3 
REMARK    2  A    between atoms: C_3  and  O_4 
REMARK    3  A    between atoms: O_4  and  C_5 
REMARK    4  A    between atoms: C_7  and  C_8 
REMARK       I    between atoms: C_8  and  N_9 
REMARK    5  A    between atoms: N_9  and  C_10 
REMARK    6  A    between atoms: N_11  and  C_12 
REMARK    7  A    between atoms: C_14  and  C_15 
REMARK    8  A    between atoms: C_24  and  O_25 
ROOT
HETATM    1  C   UNL     1       6.050  31.656  57.877  1.00  0.00     0.035 A 
HETATM    2  C   UNL     1       5.869  30.639  56.934  1.00  0.00     0.046 A 
HETATM    3  C   UNL     1       6.678  29.485  56.934  1.00  0.00     0.036 A 
HETATM    4  C   UNL     1       7.695  29.398  57.909  1.00  0.00     0.084 A 
HETATM    5  C   UNL     1       7.927  30.430  58.830  1.00  0.00    -0.026 A 
HETATM    6  C   UNL     1       9.001  30.313  59.874  1.00  0.00     0.051 C 
HETATM    7  C   UNL     1       7.094  31.555  58.802  1.00  0.00     0.039 A 
ENDROOT
BRANCH   1   8
HETATM    8  N   UNL     1       5.276  32.836  57.912  1.00  0.00    -0.333 N 
HETATM    9  C   UNL     1       4.603  33.420  58.928  1.00  0.00     0.179 C 
HETATM   10  S   UNL     1       3.172  34.222  58.591  1.00  0.00    -0.040 SA
HETATM   11  H   UNL     1       5.028  33.201  56.999  1.00  0.00     0.168 HD
BRANCH   9  12
HETATM   12  N   UNL     1       5.060  33.460  60.211  1.00  0.00    -0.299 N 
HETATM   13  C   UNL     1       4.713  32.671  61.303  1.00  0.00     0.257 C 
HETATM   14  O   UNL     1       3.738  31.943  61.423  1.00  0.00    -0.267 OA
HETATM   15  H   UNL     1       5.966  33.905  60.273  1.00  0.00     0.171 HD
BRANCH  13  16
HETATM   16  C   UNL     1       5.637  32.790  62.451  1.00  0.00     0.035 A 
HETATM   17  C   UNL     1       5.162  33.162  63.714  1.00  0.00     0.053 A 
HETATM   18  C   UNL     1       6.077  33.326  64.753  1.00  0.00     0.069 A 
HETATM   19  C   UNL     1       7.443  33.135  64.536  1.00  0.00     0.037 A 
HETATM   20  C   UNL     1       7.907  32.755  63.277  1.00  0.00     0.004 A 
HETATM   21  C   UNL     1       7.005  32.591  62.228  1.00  0.00     0.017 A 
BRANCH  18  22
HETATM   22  O   UNL     1       5.705  33.792  65.983  1.00  0.00    -0.351 OA
BRANCH  22  23
HETATM   23  C   UNL     1       4.332  34.195  66.028  1.00  0.00     0.175 C 
BRANCH  23  24
HETATM   24  C   UNL     1       4.313  35.699  66.287  1.00  0.00     0.022 C 
HETATM   25  C   UNL     1       4.204  36.502  65.003  1.00  0.00     0.007 C 
ENDBRANCH  23  24
ENDBRANCH  22  23
ENDBRANCH  18  22
ENDBRANCH  13  16
ENDBRANCH   9  12
ENDBRANCH   1   8
BRANCH   3  26
HETATM   26  C   UNL     1       6.488  28.385  55.959  1.00  0.00     0.112 A 
HETATM   27  S   UNL     1       5.004  27.526  55.800  1.00  0.00    -0.067 SA
HETATM   28  C   UNL     1       5.666  26.578  54.527  1.00  0.00     0.035 A 
HETATM   29  C   UNL     1       6.983  26.975  54.307  1.00  0.00     0.075 A 
HETATM   30  C   UNL     1       5.064  25.555  53.776  1.00  0.00     0.021 A 
HETATM   31  N   UNL     1       7.434  28.005  55.118  1.00  0.00    -0.239 NA
HETATM   32  C   UNL     1       7.733  26.325  53.306  1.00  0.00     0.033 A 
HETATM   33  C   UNL     1       7.144  25.303  52.553  1.00  0.00     0.002 A 
HETATM   34  C   UNL     1       5.826  24.927  52.785  1.00  0.00     0.002 A 
ENDBRANCH   3  26
BRANCH   4  35
HETATM   35  O   UNL     1       8.518  28.299  58.006  1.00  0.00    -0.359 OA
HETATM   36  H   UNL     1       9.083  28.415  58.801  1.00  0.00     0.218 HD
ENDBRANCH   4  35
TORSDOF 8
ENDMDL
MODEL 8
REMARK VINA RESULT:      -9.1      3.606      9.869
REMARK  8 active torsions:
REMARK  status: ('A' for Active; 'I' for Inactive)
REMARK    1  A    between atoms: C_2  and  C_3 
REMARK    2  A    between atoms: C_3  and  O_4 
REMARK    3  A    between atoms: O_4  and  C_5 
REMARK    4  A    between atoms: C_7  and  C_8 
REMARK       I    between atoms: C_8  and  N_9 
REMARK    5  A    between atoms: N_9  and  C_10 
REMARK    6  A    between atoms: N_11  and  C_12 
REMARK    7  A    between atoms: C_14  and  C_15 
REMARK    8  A    between atoms: C_24  and  O_25 
ROOT
HETATM    1  C   UNL     1       5.619  26.837  55.754  1.00  0.00     0.035 A 
HETATM    2  C   UNL     1       5.485  26.736  54.366  1.00  0.00     0.046 A 
HETATM    3  C   UNL     1       4.740  27.680  53.630  1.00  0.00     0.036 A 
HETATM    4  C   UNL     1       4.113  28.723  54.346  1.00  0.00     0.084 A 
HETATM    5  C   UNL     1       4.191  28.811  55.743  1.00  0.00    -0.026 A 
HETATM    6  C   UNL     1       3.535  29.938  56.489  1.00  0.00     0.051 C 
HETATM    7  C   UNL     1       4.949  27.859  56.435  1.00  0.00     0.039 A 
ENDROOT
BRANCH   1   8
HETATM    8  N   UNL     1       6.342  25.913  56.539  1.00  0.00    -0.333 N 
HETATM    9  C   UNL     1       7.623  25.932  56.968  1.00  0.00     0.179 C 
HETATM   10  S   UNL     1       8.451  24.481  57.100  1.00  0.00    -0.040 SA
HETATM   11  H   UNL     1       5.895  25.007  56.637  1.00  0.00     0.168 HD
BRANCH   9  12
HETATM   12  N   UNL     1       8.265  27.062  57.375  1.00  0.00    -0.299 N 
HETATM   13  C   UNL     1       8.496  28.250  56.687  1.00  0.00     0.257 C 
HETATM   14  O   UNL     1       8.407  28.449  55.484  1.00  0.00    -0.267 OA
HETATM   15  H   UNL     1       8.290  27.137  58.384  1.00  0.00     0.171 HD
BRANCH  13  16
HETATM   16  C   UNL     1       8.943  29.367  57.547  1.00  0.00     0.035 A 
HETATM   17  C   UNL     1       8.194  29.752  58.664  1.00  0.00     0.053 A 
HETATM   18  C   UNL     1       8.617  30.851  59.410  1.00  0.00     0.069 A 
HETATM   19  C   UNL     1       9.760  31.563  59.042  1.00  0.00     0.037 A 
HETATM   20  C   UNL     1      10.507  31.167  57.933  1.00  0.00     0.004 A 
HETATM   21  C   UNL     1      10.094  30.072  57.176  1.00  0.00     0.017 A 
BRANCH  18  22
HETATM   22  O   UNL     1       7.882  31.354  60.446  1.00  0.00    -0.351 OA
BRANCH  22  23
HETATM   23  C   UNL     1       8.691  32.000  61.435  1.00  0.00     0.175 C 
BRANCH  23  24
HETATM   24  C   UNL     1       8.157  31.578  62.801  1.00  0.00     0.022 C 
HETATM   25  C   UNL     1       7.871  32.767  63.699  1.00  0.00     0.007 C 
ENDBRANCH  23  24
ENDBRANCH  22  23
ENDBRANCH  18  22
ENDBRANCH  13  16
ENDBRANCH   9  12
ENDBRANCH   1   8
BRANCH   3  26
HETATM   26  C   UNL     1       4.605  27.607  52.156  1.00  0.00     0.112 A 
HETATM   27  S   UNL     1       5.150  26.257  51.235  1.00  0.00    -0.067 SA
HETATM   28  C   UNL     1       4.582  26.990  49.787  1.00  0.00     0.035 A 
HETATM   29  C   UNL     1       4.015  28.224  50.098  1.00  0.00     0.075 A 
HETATM   30  C   UNL     1       4.633  26.508  48.469  1.00  0.00     0.021 A 
HETATM   31  N   UNL     1       4.026  28.557  51.443  1.00  0.00    -0.239 NA
HETATM   32  C   UNL     1       3.486  29.012  49.056  1.00  0.00     0.033 A 
HETATM   33  C   UNL     1       3.534  28.544  47.739  1.00  0.00     0.002 A 
HETATM   34  C   UNL     1       4.099  27.306  47.452  1.00  0.00     0.002 A 
ENDBRANCH   3  26
BRANCH   4  35
HETATM   35  O   UNL     1       3.387  29.706  53.714  1.00  0.00    -0.359 OA
HETATM   36  H   UNL     1       4.021  30.308  53.267  1.00  0.00     0.218 HD
ENDBRANCH   4  35
TORSDOF 8
ENDMDL
MODEL 9
REMARK VINA RESULT:      -9.0      2.878      9.924
REMARK  8 active torsions:
REMARK  status: ('A' for Active; 'I' for Inactive)
REMARK    1  A    between atoms: C_2  and  C_3 
REMARK    2  A    between atoms: C_3  and  O_4 
REMARK    3  A    between atoms: O_4  and  C_5 
REMARK    4  A    between atoms: C_7  and  C_8 
REMARK       I    between atoms: C_8  and  N_9 
REMARK    5  A    between atoms: N_9  and  C_10 
REMARK    6  A    between atoms: N_11  and  C_12 
REMARK    7  A    between atoms: C_14  and  C_15 
REMARK    8  A    between atoms: C_24  and  O_25 
ROOT
HETATM    1  C   UNL     1       5.845  29.950  55.860  1.00  0.00     0.035 A 
HETATM    2  C   UNL     1       6.055  28.717  55.236  1.00  0.00     0.046 A 
HETATM    3  C   UNL     1       6.945  27.765  55.772  1.00  0.00     0.036 A 
HETATM    4  C   UNL     1       7.637  28.108  56.954  1.00  0.00     0.084 A 
HETATM    5  C   UNL     1       7.480  29.360  57.566  1.00  0.00    -0.026 A 
HETATM    6  C   UNL     1       8.208  29.701  58.835  1.00  0.00     0.051 C 
HETATM    7  C   UNL     1       6.578  30.273  57.006  1.00  0.00     0.039 A 
ENDROOT
BRANCH   1   8
HETATM    8  N   UNL     1       4.974  30.942  55.358  1.00  0.00    -0.333 N 
HETATM    9  C   UNL     1       3.940  31.586  55.942  1.00  0.00     0.179 C 
HETATM   10  S   UNL     1       2.621  32.012  55.001  1.00  0.00    -0.040 SA
HETATM   11  H   UNL     1       5.005  31.054  54.350  1.00  0.00     0.168 HD
BRANCH   9  12
HETATM   12  N   UNL     1       3.936  31.980  57.246  1.00  0.00    -0.299 N 
HETATM   13  C   UNL     1       4.470  33.125  57.830  1.00  0.00     0.257 C 
HETATM   14  O   UNL     1       5.285  33.901  57.352  1.00  0.00    -0.267 OA
HETATM   15  H   UNL     1       3.194  31.535  57.770  1.00  0.00     0.171 HD
BRANCH  13  16
HETATM   16  C   UNL     1       4.003  33.370  59.212  1.00  0.00     0.035 A 
HETATM   17  C   UNL     1       4.309  32.470  60.239  1.00  0.00     0.053 A 
HETATM   18  C   UNL     1       3.794  32.705  61.512  1.00  0.00     0.069 A 
HETATM   19  C   UNL     1       2.978  33.812  61.757  1.00  0.00     0.037 A 
HETATM   20  C   UNL     1       2.688  34.710  60.731  1.00  0.00     0.004 A 
HETATM   21  C   UNL     1       3.192  34.486  59.451  1.00  0.00     0.017 A 
BRANCH  18  22
HETATM   22  O   UNL     1       3.956  31.817  62.538  1.00  0.00    -0.351 OA
BRANCH  22  23
HETATM   23  C   UNL     1       5.331  31.616  62.883  1.00  0.00     0.175 C 
BRANCH  23  24
HETATM   24  C   UNL     1       5.731  32.753  63.820  1.00  0.00     0.022 C 
HETATM   25  C   UNL     1       7.155  33.221  63.581  1.00  0.00     0.007 C 
ENDBRANCH  23  24
ENDBRANCH  22  23
ENDBRANCH  18  22
ENDBRANCH  13  16
ENDBRANCH   9  12
ENDBRANCH   1   8
BRANCH   3  26
HETATM   26  C   UNL     1       7.165  26.442  55.141  1.00  0.00     0.112 A 
HETATM   27  S   UNL     1       7.456  26.251  53.454  1.00  0.00    -0.067 SA
HETATM   28  C   UNL     1       7.618  24.551  53.655  1.00  0.00     0.035 A 
HETATM   29  C   UNL     1       7.435  24.235  54.999  1.00  0.00     0.075 A 
HETATM   30  C   UNL     1       7.888  23.565  52.691  1.00  0.00     0.021 A 
HETATM   31  N   UNL     1       7.189  25.316  55.832  1.00  0.00    -0.239 NA
HETATM   32  C   UNL     1       7.517  22.886  55.400  1.00  0.00     0.033 A 
HETATM   33  C   UNL     1       7.782  21.895  54.449  1.00  0.00     0.002 A 
HETATM   34  C   UNL     1       7.968  22.233  53.112  1.00  0.00     0.002 A 
ENDBRANCH   3  26
BRANCH   4  35
HETATM   35  O   UNL     1       8.506  27.235  57.568  1.00  0.00    -0.359 OA
HETATM   36  H   UNL     1       8.589  26.441  56.997  1.00  0.00     0.218 HD
ENDBRANCH   4  35
TORSDOF 8
ENDMDL
MODEL 10
REMARK VINA RESULT:      -8.9      1.600      2.661
REMARK  8 active torsions:
REMARK  status: ('A' for Active; 'I' for Inactive)
REMARK    1  A    between atoms: C_2  and  C_3 
REMARK    2  A    between atoms: C_3  and  O_4 
REMARK    3  A    between atoms: O_4  and  C_5 
REMARK    4  A    between atoms: C_7  and  C_8 
REMARK       I    between atoms: C_8  and  N_9 
REMARK    5  A    between atoms: N_9  and  C_10 
REMARK    6  A    between atoms: N_11  and  C_12 
REMARK    7  A    between atoms: C_14  and  C_15 
REMARK    8  A    between atoms: C_24  and  O_25 
ROOT
HETATM    1  C   UNL     1       5.708  29.587  55.814  1.00  0.00     0.035 A 
HETATM    2  C   UNL     1       5.727  30.232  57.054  1.00  0.00     0.046 A 
HETATM    3  C   UNL     1       6.934  30.454  57.748  1.00  0.00     0.036 A 
HETATM    4  C   UNL     1       8.126  29.983  57.156  1.00  0.00     0.084 A 
HETATM    5  C   UNL     1       8.122  29.287  55.939  1.00  0.00    -0.026 A 
HETATM    6  C   UNL     1       9.401  28.809  55.312  1.00  0.00     0.051 C 
HETATM    7  C   UNL     1       6.903  29.097  55.277  1.00  0.00     0.039 A 
ENDROOT
BRANCH   1   8
HETATM    8  N   UNL     1       4.527  29.330  55.084  1.00  0.00    -0.333 N 
HETATM    9  C   UNL     1       4.311  28.554  54.000  1.00  0.00     0.179 C 
HETATM   10  S   UNL     1       3.171  29.042  52.873  1.00  0.00    -0.040 SA
HETATM   11  H   UNL     1       3.765  29.969  55.284  1.00  0.00     0.168 HD
BRANCH   9  12
HETATM   12  N   UNL     1       4.916  27.349  53.802  1.00  0.00    -0.299 N 
HETATM   13  C   UNL     1       5.653  26.894  52.712  1.00  0.00     0.257 C 
HETATM   14  O   UNL     1       5.702  27.370  51.588  1.00  0.00    -0.267 OA
HETATM   15  H   UNL     1       5.100  26.874  54.675  1.00  0.00     0.171 HD
BRANCH  13  16
HETATM   16  C   UNL     1       6.420  25.658  52.979  1.00  0.00     0.035 A 
HETATM   17  C   UNL     1       6.328  25.014  54.218  1.00  0.00     0.053 A 
HETATM   18  C   UNL     1       7.117  23.888  54.449  1.00  0.00     0.069 A 
HETATM   19  C   UNL     1       7.993  23.419  53.469  1.00  0.00     0.037 A 
HETATM   20  C   UNL     1       8.071  24.060  52.233  1.00  0.00     0.004 A 
HETATM   21  C   UNL     1       7.291  25.189  51.988  1.00  0.00     0.017 A 
BRANCH  18  22
HETATM   22  O   UNL     1       7.165  23.272  55.668  1.00  0.00    -0.351 OA
BRANCH  22  23
HETATM   23  C   UNL     1       6.855  24.158  56.748  1.00  0.00     0.175 C 
BRANCH  23  24
HETATM   24  C   UNL     1       8.137  24.908  57.097  1.00  0.00     0.022 C 
HETATM   25  C   UNL     1       7.860  26.245  57.760  1.00  0.00     0.007 C 
ENDBRANCH  23  24
ENDBRANCH  22  23
ENDBRANCH  18  22
ENDBRANCH  13  16
ENDBRANCH   9  12
ENDBRANCH   1   8
BRANCH   3  26
HETATM   26  C   UNL     1       6.980  31.156  59.052  1.00  0.00     0.112 A 
HETATM   27  S   UNL     1       5.899  32.431  59.463  1.00  0.00    -0.067 SA
HETATM   28  C   UNL     1       6.618  32.567  61.019  1.00  0.00     0.035 A 
HETATM   29  C   UNL     1       7.645  31.631  61.125  1.00  0.00     0.075 A 
HETATM   30  C   UNL     1       6.298  33.440  62.073  1.00  0.00     0.021 A 
HETATM   31  N   UNL     1       7.834  30.832  60.008  1.00  0.00    -0.239 NA
HETATM   32  C   UNL     1       8.386  31.565  62.322  1.00  0.00     0.033 A 
HETATM   33  C   UNL     1       8.079  32.431  63.377  1.00  0.00     0.002 A 
HETATM   34  C   UNL     1       7.045  33.354  63.252  1.00  0.00     0.002 A 
ENDBRANCH   3  26
BRANCH   4  35
HETATM   35  O   UNL     1       9.356  30.175  57.744  1.00  0.00    -0.359 OA
HETATM   36  H   UNL     1       9.285  29.905  58.685  1.00  0.00     0.218 HD
ENDBRANCH   4  35
TORSDOF 8
ENDMDL
