MODEL 1
REMARK VINA RESULT:      -9.1      0.000      0.000
REMARK  6 active torsions:
REMARK  status: ('A' for Active; 'I' for Inactive)
REMARK    1  A    between atoms: C_3  and  C_4 
REMARK       I    between atoms: C_4  and  N_5 
REMARK    2  A    between atoms: N_5  and  C_6 
REMARK    3  A    between atoms: C_6  and  C_7 
REMARK    4  A    between atoms: C_7  and  N_8 
REMARK    5  A    between atoms: C_7  and  C_14 
REMARK    6  A    between atoms: C_21  and  C_22 
ROOT
HETATM    1  C   UNL     1       5.836  27.069  52.846  1.00  0.00     0.272 C 
HETATM    2  N   UNL     1       4.683  26.994  52.088  1.00  0.00    -0.354 N 
HETATM    3  O   UNL     1       6.510  28.090  52.929  1.00  0.00    -0.266 OA
HETATM    4  H   UNL     1       4.325  26.042  52.007  1.00  0.00     0.162 HD
ENDROOT
BRANCH   1   5
HETATM    5  C   UNL     1       6.124  25.817  53.567  1.00  0.00     0.152 A 
HETATM    6  C   UNL     1       6.959  24.734  53.161  1.00  0.00     0.003 A 
HETATM    7  C   UNL     1       7.698  24.611  51.876  1.00  0.00     0.053 C 
HETATM    8  C   UNL     1       6.912  23.830  54.213  1.00  0.00     0.069 A 
HETATM    9  N   UNL     1       6.061  24.388  55.130  1.00  0.00    -0.276 N 
HETATM   10  N   UNL     1       5.563  25.586  54.773  1.00  0.00    -0.168 NA
HETATM   11  H   UNL     1       5.798  23.998  56.031  1.00  0.00     0.189 HD
BRANCH   8  12
HETATM   12  C   UNL     1       7.572  22.546  54.442  1.00  0.00    -0.007 A 
HETATM   13  C   UNL     1       7.903  21.709  53.367  1.00  0.00     0.014 A 
HETATM   14  C   UNL     1       8.519  20.476  53.593  1.00  0.00     0.001 A 
HETATM   15  C   UNL     1       8.811  20.067  54.892  1.00  0.00     0.000 A 
HETATM   16  C   UNL     1       8.488  20.891  55.968  1.00  0.00     0.001 A 
HETATM   17  C   UNL     1       7.870  22.124  55.744  1.00  0.00     0.014 A 
ENDBRANCH   8  12
ENDBRANCH   1   5
BRANCH   2  18
HETATM   18  C   UNL     1       4.307  28.017  51.139  1.00  0.00     0.156 C 
BRANCH  18  19
HETATM   19  C   UNL     1       4.335  27.577  49.643  1.00  0.00     0.209 C 
BRANCH  19  20
HETATM   20  N   UNL     1       2.990  27.018  49.147  1.00  0.00    -0.065 N 
HETATM   21  H   UNL     1       2.516  26.637  49.971  1.00  0.00     0.280 HD
HETATM   22  C   UNL     1       3.028  25.864  48.158  1.00  0.00     0.235 C 
HETATM   23  C   UNL     1       2.122  26.293  47.018  1.00  0.00     0.029 C 
HETATM   24  C   UNL     1       1.134  27.242  47.663  1.00  0.00     0.029 C 
HETATM   25  C   UNL     1       1.991  28.036  48.627  1.00  0.00     0.235 C 
ENDBRANCH  19  20
BRANCH  19  26
HETATM   26  C   UNL     1       4.791  28.737  48.703  1.00  0.00     0.010 C 
HETATM   27  C   UNL     1       5.759  29.700  49.408  1.00  0.00     0.011 C 
HETATM   28  C   UNL     1       5.473  28.234  47.422  1.00  0.00     0.011 C 
ENDBRANCH  19  26
ENDBRANCH  18  19
ENDBRANCH   2  18
TORSDOF 6
ENDMDL
MODEL 2
REMARK VINA RESULT:      -8.6      5.412      8.211
REMARK  6 active torsions:
REMARK  status: ('A' for Active; 'I' for Inactive)
REMARK    1  A    between atoms: C_3  and  C_4 
REMARK       I    between atoms: C_4  and  N_5 
REMARK    2  A    between atoms: N_5  and  C_6 
REMARK    3  A    between atoms: C_6  and  C_7 
REMARK    4  A    between atoms: C_7  and  N_8 
REMARK    5  A    between atoms: C_7  and  C_14 
REMARK    6  A    between atoms: C_21  and  C_22 
ROOT
HETATM    1  C   UNL     1       6.692  27.250  57.215  1.00  0.00     0.272 C 
HETATM    2  N   UNL     1       7.765  28.114  57.323  1.00  0.00    -0.354 N 
HETATM    3  O   UNL     1       5.528  27.620  57.325  1.00  0.00    -0.266 OA
HETATM    4  H   UNL     1       8.662  27.628  57.355  1.00  0.00     0.162 HD
ENDROOT
BRANCH   1   5
HETATM    5  C   UNL     1       7.104  25.869  56.908  1.00  0.00     0.152 A 
HETATM    6  C   UNL     1       6.917  25.137  55.697  1.00  0.00     0.003 A 
HETATM    7  C   UNL     1       6.208  25.603  54.475  1.00  0.00     0.053 C 
HETATM    8  C   UNL     1       7.521  23.908  55.923  1.00  0.00     0.069 A 
HETATM    9  N   UNL     1       7.984  23.965  57.211  1.00  0.00    -0.276 N 
HETATM   10  N   UNL     1       7.747  25.131  57.839  1.00  0.00    -0.168 NA
HETATM   11  H   UNL     1       8.486  23.236  57.709  1.00  0.00     0.189 HD
BRANCH   8  12
HETATM   12  C   UNL     1       7.712  22.733  55.077  1.00  0.00    -0.007 A 
HETATM   13  C   UNL     1       7.840  22.864  53.687  1.00  0.00     0.014 A 
HETATM   14  C   UNL     1       8.006  21.734  52.881  1.00  0.00     0.001 A 
HETATM   15  C   UNL     1       8.047  20.466  53.454  1.00  0.00     0.000 A 
HETATM   16  C   UNL     1       7.924  20.324  54.834  1.00  0.00     0.001 A 
HETATM   17  C   UNL     1       7.755  21.451  55.641  1.00  0.00     0.014 A 
ENDBRANCH   8  12
ENDBRANCH   1   5
BRANCH   2  18
HETATM   18  C   UNL     1       7.630  29.465  57.817  1.00  0.00     0.156 C 
BRANCH  18  19
HETATM   19  C   UNL     1       8.949  30.296  57.846  1.00  0.00     0.209 C 
BRANCH  19  20
HETATM   20  N   UNL     1       9.392  30.686  59.267  1.00  0.00    -0.065 N 
HETATM   21  H   UNL     1      10.297  30.231  59.421  1.00  0.00     0.280 HD
HETATM   22  C   UNL     1       8.527  30.223  60.428  1.00  0.00     0.235 C 
HETATM   23  C   UNL     1       8.271  31.472  61.252  1.00  0.00     0.029 C 
HETATM   24  C   UNL     1       9.469  32.356  60.971  1.00  0.00     0.029 C 
HETATM   25  C   UNL     1       9.714  32.153  59.490  1.00  0.00     0.235 C 
ENDBRANCH  19  20
BRANCH  19  26
HETATM   26  C   UNL     1      10.120  29.556  57.125  1.00  0.00     0.010 C 
HETATM   27  C   UNL     1       9.998  29.642  55.596  1.00  0.00     0.011 C 
HETATM   28  C   UNL     1      11.502  30.098  57.521  1.00  0.00     0.011 C 
ENDBRANCH  19  26
ENDBRANCH  18  19
ENDBRANCH   2  18
TORSDOF 6
ENDMDL
MODEL 3
REMARK VINA RESULT:      -8.4      1.407      2.779
REMARK  6 active torsions:
REMARK  status: ('A' for Active; 'I' for Inactive)
REMARK    1  A    between atoms: C_3  and  C_4 
REMARK       I    between atoms: C_4  and  N_5 
REMARK    2  A    between atoms: N_5  and  C_6 
REMARK    3  A    between atoms: C_6  and  C_7 
REMARK    4  A    between atoms: C_7  and  N_8 
REMARK    5  A    between atoms: C_7  and  C_14 
REMARK    6  A    between atoms: C_21  and  C_22 
ROOT
HETATM    1  C   UNL     1       5.373  26.771  51.282  1.00  0.00     0.272 C 
HETATM    2  N   UNL     1       4.715  26.114  50.259  1.00  0.00    -0.354 N 
HETATM    3  O   UNL     1       5.708  27.948  51.207  1.00  0.00    -0.266 OA
HETATM    4  H   UNL     1       4.641  25.109  50.418  1.00  0.00     0.162 HD
ENDROOT
BRANCH   1   5
HETATM    5  C   UNL     1       5.574  25.918  52.466  1.00  0.00     0.152 A 
HETATM    6  C   UNL     1       6.686  25.080  52.776  1.00  0.00     0.003 A 
HETATM    7  C   UNL     1       7.886  24.843  51.929  1.00  0.00     0.053 C 
HETATM    8  C   UNL     1       6.389  24.532  54.016  1.00  0.00     0.069 A 
HETATM    9  N   UNL     1       5.155  25.029  54.344  1.00  0.00    -0.276 N 
HETATM   10  N   UNL     1       4.630  25.866  53.431  1.00  0.00    -0.168 NA
HETATM   11  H   UNL     1       4.631  24.840  55.193  1.00  0.00     0.189 HD
BRANCH   8  12
HETATM   12  C   UNL     1       7.127  23.631  54.899  1.00  0.00    -0.007 A 
HETATM   13  C   UNL     1       7.413  22.316  54.504  1.00  0.00     0.014 A 
HETATM   14  C   UNL     1       8.104  21.454  55.360  1.00  0.00     0.001 A 
HETATM   15  C   UNL     1       8.517  21.896  56.614  1.00  0.00     0.000 A 
HETATM   16  C   UNL     1       8.240  23.201  57.016  1.00  0.00     0.001 A 
HETATM   17  C   UNL     1       7.547  24.063  56.163  1.00  0.00     0.014 A 
ENDBRANCH   8  12
ENDBRANCH   1   5
BRANCH   2  18
HETATM   18  C   UNL     1       4.586  26.671  48.932  1.00  0.00     0.156 C 
BRANCH  18  19
HETATM   19  C   UNL     1       3.193  27.289  48.604  1.00  0.00     0.209 C 
BRANCH  19  20
HETATM   20  N   UNL     1       3.194  28.828  48.607  1.00  0.00    -0.065 N 
HETATM   21  H   UNL     1       2.423  29.116  47.997  1.00  0.00     0.280 HD
HETATM   22  C   UNL     1       4.416  29.534  48.042  1.00  0.00     0.235 C 
HETATM   23  C   UNL     1       4.820  30.536  49.108  1.00  0.00     0.029 C 
HETATM   24  C   UNL     1       3.529  30.845  49.838  1.00  0.00     0.029 C 
HETATM   25  C   UNL     1       2.845  29.496  49.924  1.00  0.00     0.235 C 
ENDBRANCH  19  20
BRANCH  19  26
HETATM   26  C   UNL     1       2.634  26.775  47.240  1.00  0.00     0.010 C 
HETATM   27  C   UNL     1       2.794  25.255  47.090  1.00  0.00     0.011 C 
HETATM   28  C   UNL     1       1.151  27.118  47.036  1.00  0.00     0.011 C 
ENDBRANCH  19  26
ENDBRANCH  18  19
ENDBRANCH   2  18
TORSDOF 6
ENDMDL
MODEL 4
REMARK VINA RESULT:      -8.3      1.120      2.179
REMARK  6 active torsions:
REMARK  status: ('A' for Active; 'I' for Inactive)
REMARK    1  A    between atoms: C_3  and  C_4 
REMARK       I    between atoms: C_4  and  N_5 
REMARK    2  A    between atoms: N_5  and  C_6 
REMARK    3  A    between atoms: C_6  and  C_7 
REMARK    4  A    between atoms: C_7  and  N_8 
REMARK    5  A    between atoms: C_7  and  C_14 
REMARK    6  A    between atoms: C_21  and  C_22 
ROOT
HETATM    1  C   UNL     1       6.205  27.144  52.926  1.00  0.00     0.272 C 
HETATM    2  N   UNL     1       5.342  26.996  51.857  1.00  0.00    -0.354 N 
HETATM    3  O   UNL     1       6.704  28.221  53.232  1.00  0.00    -0.266 OA
HETATM    4  H   UNL     1       5.134  26.019  51.649  1.00  0.00     0.162 HD
ENDROOT
BRANCH   1   5
HETATM    5  C   UNL     1       6.407  25.888  53.670  1.00  0.00     0.152 A 
HETATM    6  C   UNL     1       7.177  24.749  53.291  1.00  0.00     0.003 A 
HETATM    7  C   UNL     1       7.920  24.559  52.015  1.00  0.00     0.053 C 
HETATM    8  C   UNL     1       7.063  23.867  54.356  1.00  0.00     0.069 A 
HETATM    9  N   UNL     1       6.240  24.492  55.255  1.00  0.00    -0.276 N 
HETATM   10  N   UNL     1       5.820  25.712  54.873  1.00  0.00    -0.168 NA
HETATM   11  H   UNL     1       5.944  24.134  56.158  1.00  0.00     0.189 HD
BRANCH   8  12
HETATM   12  C   UNL     1       7.640  22.549  54.612  1.00  0.00    -0.007 A 
HETATM   13  C   UNL     1       8.049  22.185  55.903  1.00  0.00     0.014 A 
HETATM   14  C   UNL     1       8.616  20.929  56.139  1.00  0.00     0.001 A 
HETATM   15  C   UNL     1       8.778  20.027  55.091  1.00  0.00     0.000 A 
HETATM   16  C   UNL     1       8.374  20.378  53.805  1.00  0.00     0.001 A 
HETATM   17  C   UNL     1       7.810  21.633  53.567  1.00  0.00     0.014 A 
ENDBRANCH   8  12
ENDBRANCH   1   5
BRANCH   2  18
HETATM   18  C   UNL     1       5.149  28.027  50.863  1.00  0.00     0.156 C 
BRANCH  18  19
HETATM   19  C   UNL     1       4.105  27.694  49.754  1.00  0.00     0.209 C 
BRANCH  19  20
HETATM   20  N   UNL     1       3.285  28.915  49.302  1.00  0.00    -0.065 N 
HETATM   21  H   UNL     1       3.528  29.075  48.319  1.00  0.00     0.280 HD
HETATM   22  C   UNL     1       3.560  30.243  49.988  1.00  0.00     0.235 C 
HETATM   23  C   UNL     1       2.197  30.753  50.420  1.00  0.00     0.029 C 
HETATM   24  C   UNL     1       1.235  30.131  49.430  1.00  0.00     0.029 C 
HETATM   25  C   UNL     1       1.780  28.729  49.247  1.00  0.00     0.235 C 
ENDBRANCH  19  20
BRANCH  19  26
HETATM   26  C   UNL     1       4.770  27.027  48.508  1.00  0.00     0.010 C 
HETATM   27  C   UNL     1       3.838  26.006  47.839  1.00  0.00     0.011 C 
HETATM   28  C   UNL     1       5.198  28.047  47.443  1.00  0.00     0.011 C 
ENDBRANCH  19  26
ENDBRANCH  18  19
ENDBRANCH   2  18
TORSDOF 6
ENDMDL
MODEL 5
REMARK VINA RESULT:      -8.3      6.429      9.058
REMARK  6 active torsions:
REMARK  status: ('A' for Active; 'I' for Inactive)
REMARK    1  A    between atoms: C_3  and  C_4 
REMARK       I    between atoms: C_4  and  N_5 
REMARK    2  A    between atoms: N_5  and  C_6 
REMARK    3  A    between atoms: C_6  and  C_7 
REMARK    4  A    between atoms: C_7  and  N_8 
REMARK    5  A    between atoms: C_7  and  C_14 
REMARK    6  A    between atoms: C_21  and  C_22 
ROOT
HETATM    1  C   UNL     1       7.926  29.040  58.067  1.00  0.00     0.272 C 
HETATM    2  N   UNL     1       6.766  29.787  57.988  1.00  0.00    -0.354 N 
HETATM    3  O   UNL     1       8.947  29.456  58.605  1.00  0.00    -0.266 OA
HETATM    4  H   UNL     1       6.062  29.360  57.384  1.00  0.00     0.162 HD
ENDROOT
BRANCH   1   5
HETATM    5  C   UNL     1       7.776  27.695  57.486  1.00  0.00     0.152 A 
HETATM    6  C   UNL     1       7.744  27.324  56.108  1.00  0.00     0.003 A 
HETATM    7  C   UNL     1       7.809  28.240  54.937  1.00  0.00     0.053 C 
HETATM    8  C   UNL     1       7.623  25.942  56.110  1.00  0.00     0.069 A 
HETATM    9  N   UNL     1       7.559  25.588  57.432  1.00  0.00    -0.276 N 
HETATM   10  N   UNL     1       7.644  26.620  58.291  1.00  0.00    -0.168 NA
HETATM   11  H   UNL     1       7.473  24.647  57.805  1.00  0.00     0.189 HD
BRANCH   8  12
HETATM   12  C   UNL     1       7.577  24.954  55.035  1.00  0.00    -0.007 A 
HETATM   13  C   UNL     1       6.677  25.097  53.969  1.00  0.00     0.014 A 
HETATM   14  C   UNL     1       6.626  24.140  52.952  1.00  0.00     0.001 A 
HETATM   15  C   UNL     1       7.471  23.034  52.989  1.00  0.00     0.000 A 
HETATM   16  C   UNL     1       8.370  22.882  54.043  1.00  0.00     0.001 A 
HETATM   17  C   UNL     1       8.421  23.836  55.061  1.00  0.00     0.014 A 
ENDBRANCH   8  12
ENDBRANCH   1   5
BRANCH   2  18
HETATM   18  C   UNL     1       6.724  31.197  58.301  1.00  0.00     0.156 C 
BRANCH  18  19
HETATM   19  C   UNL     1       6.092  31.551  59.682  1.00  0.00     0.209 C 
BRANCH  19  20
HETATM   20  N   UNL     1       7.063  32.278  60.628  1.00  0.00    -0.065 N 
HETATM   21  H   UNL     1       6.731  33.245  60.694  1.00  0.00     0.280 HD
HETATM   22  C   UNL     1       8.514  32.399  60.192  1.00  0.00     0.235 C 
HETATM   23  C   UNL     1       9.324  31.901  61.376  1.00  0.00     0.029 C 
HETATM   24  C   UNL     1       8.441  32.177  62.575  1.00  0.00     0.029 C 
HETATM   25  C   UNL     1       7.055  31.823  62.077  1.00  0.00     0.235 C 
ENDBRANCH  19  20
BRANCH  19  26
HETATM   26  C   UNL     1       4.790  32.400  59.527  1.00  0.00     0.010 C 
HETATM   27  C   UNL     1       4.960  33.528  58.498  1.00  0.00     0.011 C 
HETATM   28  C   UNL     1       3.575  31.559  59.111  1.00  0.00     0.011 C 
ENDBRANCH  19  26
ENDBRANCH  18  19
ENDBRANCH   2  18
TORSDOF 6
ENDMDL
MODEL 6
REMARK VINA RESULT:      -8.2      1.534      2.799
REMARK  6 active torsions:
REMARK  status: ('A' for Active; 'I' for Inactive)
REMARK    1  A    between atoms: C_3  and  C_4 
REMARK       I    between atoms: C_4  and  N_5 
REMARK    2  A    between atoms: N_5  and  C_6 
REMARK    3  A    between atoms: C_6  and  C_7 
REMARK    4  A    between atoms: C_7  and  N_8 
REMARK    5  A    between atoms: C_7  and  C_14 
REMARK    6  A    between atoms: C_21  and  C_22 
ROOT
HETATM    1  C   UNL     1       5.697  27.056  52.446  1.00  0.00     0.272 C 
HETATM    2  N   UNL     1       4.743  26.922  51.455  1.00  0.00    -0.354 N 
HETATM    3  O   UNL     1       5.851  28.092  53.083  1.00  0.00    -0.266 OA
HETATM    4  H   UNL     1       4.843  26.056  50.925  1.00  0.00     0.162 HD
ENDROOT
BRANCH   1   5
HETATM    5  C   UNL     1       6.457  25.815  52.674  1.00  0.00     0.152 A 
HETATM    6  C   UNL     1       6.422  24.950  53.809  1.00  0.00     0.003 A 
HETATM    7  C   UNL     1       5.631  25.146  55.054  1.00  0.00     0.053 C 
HETATM    8  C   UNL     1       7.292  23.915  53.499  1.00  0.00     0.069 A 
HETATM    9  N   UNL     1       7.798  24.226  52.265  1.00  0.00    -0.276 N 
HETATM   10  N   UNL     1       7.320  25.367  51.737  1.00  0.00    -0.168 NA
HETATM   11  H   UNL     1       8.465  23.680  51.727  1.00  0.00     0.189 HD
BRANCH   8  12
HETATM   12  C   UNL     1       7.672  22.699  54.214  1.00  0.00    -0.007 A 
HETATM   13  C   UNL     1       7.826  21.484  53.530  1.00  0.00     0.014 A 
HETATM   14  C   UNL     1       8.174  20.321  54.222  1.00  0.00     0.001 A 
HETATM   15  C   UNL     1       8.372  20.359  55.600  1.00  0.00     0.000 A 
HETATM   16  C   UNL     1       8.223  21.560  56.289  1.00  0.00     0.001 A 
HETATM   17  C   UNL     1       7.873  22.723  55.600  1.00  0.00     0.014 A 
ENDBRANCH   8  12
ENDBRANCH   1   5
BRANCH   2  18
HETATM   18  C   UNL     1       4.019  28.049  50.913  1.00  0.00     0.156 C 
BRANCH  18  19
HETATM   19  C   UNL     1       3.965  28.117  49.357  1.00  0.00     0.209 C 
BRANCH  19  20
HETATM   20  N   UNL     1       4.798  29.269  48.767  1.00  0.00    -0.065 N 
HETATM   21  H   UNL     1       5.329  28.869  47.988  1.00  0.00     0.280 HD
HETATM   22  C   UNL     1       5.848  29.909  49.661  1.00  0.00     0.235 C 
HETATM   23  C   UNL     1       5.580  31.401  49.576  1.00  0.00     0.029 C 
HETATM   24  C   UNL     1       4.934  31.588  48.220  1.00  0.00     0.029 C 
HETATM   25  C   UNL     1       4.018  30.387  48.100  1.00  0.00     0.235 C 
ENDBRANCH  19  20
BRANCH  19  26
HETATM   26  C   UNL     1       4.405  26.771  48.698  1.00  0.00     0.010 C 
HETATM   27  C   UNL     1       3.200  25.898  48.318  1.00  0.00     0.011 C 
HETATM   28  C   UNL     1       5.260  26.974  47.439  1.00  0.00     0.011 C 
ENDBRANCH  19  26
ENDBRANCH  18  19
ENDBRANCH   2  18
TORSDOF 6
ENDMDL
MODEL 7
REMARK VINA RESULT:      -8.1      1.346      1.848
REMARK  6 active torsions:
REMARK  status: ('A' for Active; 'I' for Inactive)
REMARK    1  A    between atoms: C_3  and  C_4 
REMARK       I    between atoms: C_4  and  N_5 
REMARK    2  A    between atoms: N_5  and  C_6 
REMARK    3  A    between atoms: C_6  and  C_7 
REMARK    4  A    between atoms: C_7  and  N_8 
REMARK    5  A    between atoms: C_7  and  C_14 
REMARK    6  A    between atoms: C_21  and  C_22 
ROOT
HETATM    1  C   UNL     1       5.567  26.886  52.510  1.00  0.00     0.272 C 
HETATM    2  N   UNL     1       4.965  26.866  51.266  1.00  0.00    -0.354 N 
HETATM    3  O   UNL     1       5.392  27.792  53.317  1.00  0.00    -0.266 OA
HETATM    4  H   UNL     1       5.328  26.126  50.663  1.00  0.00     0.162 HD
ENDROOT
BRANCH   1   5
HETATM    5  C   UNL     1       6.386  25.687  52.763  1.00  0.00     0.152 A 
HETATM    6  C   UNL     1       6.379  24.836  53.908  1.00  0.00     0.003 A 
HETATM    7  C   UNL     1       5.561  25.004  55.139  1.00  0.00     0.053 C 
HETATM    8  C   UNL     1       7.306  23.843  53.623  1.00  0.00     0.069 A 
HETATM    9  N   UNL     1       7.813  24.165  52.392  1.00  0.00    -0.276 N 
HETATM   10  N   UNL     1       7.285  25.275  51.844  1.00  0.00    -0.168 NA
HETATM   11  H   UNL     1       8.515  23.649  51.870  1.00  0.00     0.189 HD
BRANCH   8  12
HETATM   12  C   UNL     1       7.738  22.656  54.358  1.00  0.00    -0.007 A 
HETATM   13  C   UNL     1       7.906  21.429  53.701  1.00  0.00     0.014 A 
HETATM   14  C   UNL     1       8.303  20.293  54.412  1.00  0.00     0.001 A 
HETATM   15  C   UNL     1       8.537  20.373  55.783  1.00  0.00     0.000 A 
HETATM   16  C   UNL     1       8.375  21.587  56.445  1.00  0.00     0.001 A 
HETATM   17  C   UNL     1       7.976  22.722  55.736  1.00  0.00     0.014 A 
ENDBRANCH   8  12
ENDBRANCH   1   5
BRANCH   2  18
HETATM   18  C   UNL     1       4.286  28.013  50.711  1.00  0.00     0.156 C 
BRANCH  18  19
HETATM   19  C   UNL     1       4.636  28.339  49.227  1.00  0.00     0.209 C 
BRANCH  19  20
HETATM   20  N   UNL     1       3.410  28.347  48.298  1.00  0.00    -0.065 N 
HETATM   21  H   UNL     1       3.500  29.182  47.711  1.00  0.00     0.280 HD
HETATM   22  C   UNL     1       2.039  28.476  48.942  1.00  0.00     0.235 C 
HETATM   23  C   UNL     1       1.218  27.343  48.352  1.00  0.00     0.029 C 
HETATM   24  C   UNL     1       1.851  27.089  47.000  1.00  0.00     0.029 C 
HETATM   25  C   UNL     1       3.334  27.227  47.276  1.00  0.00     0.235 C 
ENDBRANCH  19  20
BRANCH  19  26
HETATM   26  C   UNL     1       5.395  29.697  49.091  1.00  0.00     0.010 C 
HETATM   27  C   UNL     1       4.692  30.652  48.115  1.00  0.00     0.011 C 
HETATM   28  C   UNL     1       5.559  30.426  50.433  1.00  0.00     0.011 C 
ENDBRANCH  19  26
ENDBRANCH  18  19
ENDBRANCH   2  18
TORSDOF 6
ENDMDL
MODEL 8
REMARK VINA RESULT:      -8.0      5.260      7.973
REMARK  6 active torsions:
REMARK  status: ('A' for Active; 'I' for Inactive)
REMARK    1  A    between atoms: C_3  and  C_4 
REMARK       I    between atoms: C_4  and  N_5 
REMARK    2  A    between atoms: N_5  and  C_6 
REMARK    3  A    between atoms: C_6  and  C_7 
REMARK    4  A    between atoms: C_7  and  N_8 
REMARK    5  A    between atoms: C_7  and  C_14 
REMARK    6  A    between atoms: C_21  and  C_22 
ROOT
HETATM    1  C   UNL     1       7.360  27.803  56.191  1.00  0.00     0.272 C 
HETATM    2  N   UNL     1       8.227  28.502  57.010  1.00  0.00    -0.354 N 
HETATM    3  O   UNL     1       6.622  28.354  55.383  1.00  0.00    -0.266 OA
HETATM    4  H   UNL     1       8.659  27.913  57.722  1.00  0.00     0.162 HD
ENDROOT
BRANCH   1   5
HETATM    5  C   UNL     1       7.466  26.344  56.368  1.00  0.00     0.152 A 
HETATM    6  C   UNL     1       7.632  25.340  55.368  1.00  0.00     0.003 A 
HETATM    7  C   UNL     1       7.685  25.550  53.896  1.00  0.00     0.053 C 
HETATM    8  C   UNL     1       7.711  24.145  56.067  1.00  0.00     0.069 A 
HETATM    9  N   UNL     1       7.562  24.488  57.385  1.00  0.00    -0.276 N 
HETATM   10  N   UNL     1       7.407  25.806  57.605  1.00  0.00    -0.168 NA
HETATM   11  H   UNL     1       7.574  23.857  58.182  1.00  0.00     0.189 HD
BRANCH   8  12
HETATM   12  C   UNL     1       7.919  22.763  55.640  1.00  0.00    -0.007 A 
HETATM   13  C   UNL     1       7.640  22.371  54.323  1.00  0.00     0.014 A 
HETATM   14  C   UNL     1       7.825  21.044  53.924  1.00  0.00     0.001 A 
HETATM   15  C   UNL     1       8.291  20.099  54.835  1.00  0.00     0.000 A 
HETATM   16  C   UNL     1       8.573  20.478  56.145  1.00  0.00     0.001 A 
HETATM   17  C   UNL     1       8.386  21.802  56.546  1.00  0.00     0.014 A 
ENDBRANCH   8  12
ENDBRANCH   1   5
BRANCH   2  18
HETATM   18  C   UNL     1       8.164  29.937  57.166  1.00  0.00     0.156 C 
BRANCH  18  19
HETATM   19  C   UNL     1       7.127  30.447  58.212  1.00  0.00     0.209 C 
BRANCH  19  20
HETATM   20  N   UNL     1       7.695  31.513  59.165  1.00  0.00    -0.065 N 
HETATM   21  H   UNL     1       7.210  32.387  58.939  1.00  0.00     0.280 HD
HETATM   22  C   UNL     1       9.172  31.851  59.044  1.00  0.00     0.235 C 
HETATM   23  C   UNL     1       9.717  31.747  60.457  1.00  0.00     0.029 C 
HETATM   24  C   UNL     1       8.523  32.043  61.340  1.00  0.00     0.029 C 
HETATM   25  C   UNL     1       7.385  31.330  60.639  1.00  0.00     0.235 C 
ENDBRANCH  19  20
BRANCH  19  26
HETATM   26  C   UNL     1       5.834  30.998  57.532  1.00  0.00     0.010 C 
HETATM   27  C   UNL     1       4.643  30.043  57.704  1.00  0.00     0.011 C 
HETATM   28  C   UNL     1       5.418  32.376  58.068  1.00  0.00     0.011 C 
ENDBRANCH  19  26
ENDBRANCH  18  19
ENDBRANCH   2  18
TORSDOF 6
ENDMDL
MODEL 9
REMARK VINA RESULT:      -7.9      1.638      2.665
REMARK  6 active torsions:
REMARK  status: ('A' for Active; 'I' for Inactive)
REMARK    1  A    between atoms: C_3  and  C_4 
REMARK       I    between atoms: C_4  and  N_5 
REMARK    2  A    between atoms: N_5  and  C_6 
REMARK    3  A    between atoms: C_6  and  C_7 
REMARK    4  A    between atoms: C_7  and  N_8 
REMARK    5  A    between atoms: C_7  and  C_14 
REMARK    6  A    between atoms: C_21  and  C_22 
ROOT
HETATM    1  C   UNL     1       5.379  28.280  51.490  1.00  0.00     0.272 C 
HETATM    2  N   UNL     1       4.163  27.804  51.035  1.00  0.00    -0.354 N 
HETATM    3  O   UNL     1       5.786  29.408  51.236  1.00  0.00    -0.266 OA
HETATM    4  H   UNL     1       4.041  26.805  51.207  1.00  0.00     0.162 HD
ENDROOT
BRANCH   1   5
HETATM    5  C   UNL     1       6.087  27.307  52.339  1.00  0.00     0.152 A 
HETATM    6  C   UNL     1       5.961  25.886  52.352  1.00  0.00     0.003 A 
HETATM    7  C   UNL     1       5.031  25.066  51.528  1.00  0.00     0.053 C 
HETATM    8  C   UNL     1       6.872  25.452  53.304  1.00  0.00     0.069 A 
HETATM    9  N   UNL     1       7.441  26.593  53.804  1.00  0.00    -0.276 N 
HETATM   10  N   UNL     1       6.989  27.732  53.249  1.00  0.00    -0.168 NA
HETATM   11  H   UNL     1       8.160  26.650  54.520  1.00  0.00     0.189 HD
BRANCH   8  12
HETATM   12  C   UNL     1       7.260  24.121  53.765  1.00  0.00    -0.007 A 
HETATM   13  C   UNL     1       7.109  23.757  55.111  1.00  0.00     0.014 A 
HETATM   14  C   UNL     1       7.497  22.488  55.550  1.00  0.00     0.001 A 
HETATM   15  C   UNL     1       8.036  21.572  54.650  1.00  0.00     0.000 A 
HETATM   16  C   UNL     1       8.188  21.922  53.311  1.00  0.00     0.001 A 
HETATM   17  C   UNL     1       7.804  23.190  52.871  1.00  0.00     0.014 A 
ENDBRANCH   8  12
ENDBRANCH   1   5
BRANCH   2  18
HETATM   18  C   UNL     1       3.386  28.489  50.028  1.00  0.00     0.156 C 
BRANCH  18  19
HETATM   19  C   UNL     1       2.827  27.581  48.890  1.00  0.00     0.209 C 
BRANCH  19  20
HETATM   20  N   UNL     1       2.434  28.363  47.625  1.00  0.00    -0.065 N 
HETATM   21  H   UNL     1       2.984  27.965  46.858  1.00  0.00     0.280 HD
HETATM   22  C   UNL     1       2.745  29.851  47.589  1.00  0.00     0.235 C 
HETATM   23  C   UNL     1       1.443  30.517  47.185  1.00  0.00     0.029 C 
HETATM   24  C   UNL     1       0.717  29.459  46.380  1.00  0.00     0.029 C 
HETATM   25  C   UNL     1       1.007  28.181  47.140  1.00  0.00     0.235 C 
ENDBRANCH  19  20
BRANCH  19  26
HETATM   26  C   UNL     1       3.828  26.446  48.505  1.00  0.00     0.010 C 
HETATM   27  C   UNL     1       3.128  25.286  47.780  1.00  0.00     0.011 C 
HETATM   28  C   UNL     1       4.976  26.939  47.612  1.00  0.00     0.011 C 
ENDBRANCH  19  26
ENDBRANCH  18  19
ENDBRANCH   2  18
TORSDOF 6
ENDMDL
MODEL 10
REMARK VINA RESULT:      -7.8     15.845     18.730
REMARK  6 active torsions:
REMARK  status: ('A' for Active; 'I' for Inactive)
REMARK    1  A    between atoms: C_3  and  C_4 
REMARK       I    between atoms: C_4  and  N_5 
REMARK    2  A    between atoms: N_5  and  C_6 
REMARK    3  A    between atoms: C_6  and  C_7 
REMARK    4  A    between atoms: C_7  and  N_8 
REMARK    5  A    between atoms: C_7  and  C_14 
REMARK    6  A    between atoms: C_21  and  C_22 
ROOT
HETATM    1  C   UNL     1       5.346  34.501  67.018  1.00  0.00     0.272 C 
HETATM    2  N   UNL     1       6.106  33.850  67.971  1.00  0.00    -0.354 N 
HETATM    3  O   UNL     1       4.750  35.548  67.246  1.00  0.00    -0.266 OA
HETATM    4  H   UNL     1       6.412  32.925  67.668  1.00  0.00     0.162 HD
ENDROOT
BRANCH   1   5
HETATM    5  C   UNL     1       5.378  33.826  65.709  1.00  0.00     0.152 A 
HETATM    6  C   UNL     1       6.491  33.641  64.835  1.00  0.00     0.003 A 
HETATM    7  C   UNL     1       7.877  34.141  65.039  1.00  0.00     0.053 C 
HETATM    8  C   UNL     1       5.990  32.916  63.763  1.00  0.00     0.069 A 
HETATM    9  N   UNL     1       4.658  32.747  64.033  1.00  0.00    -0.276 N 
HETATM   10  N   UNL     1       4.251  33.287  65.196  1.00  0.00    -0.168 NA
HETATM   11  H   UNL     1       3.979  32.254  63.460  1.00  0.00     0.189 HD
BRANCH   8  12
HETATM   12  C   UNL     1       6.617  32.373  62.560  1.00  0.00    -0.007 A 
HETATM   13  C   UNL     1       7.764  31.572  62.649  1.00  0.00     0.014 A 
HETATM   14  C   UNL     1       8.369  31.069  61.494  1.00  0.00     0.001 A 
HETATM   15  C   UNL     1       7.834  31.360  60.241  1.00  0.00     0.000 A 
HETATM   16  C   UNL     1       6.693  32.154  60.141  1.00  0.00     0.001 A 
HETATM   17  C   UNL     1       6.089  32.659  61.294  1.00  0.00     0.014 A 
ENDBRANCH   8  12
ENDBRANCH   1   5
BRANCH   2  18
HETATM   18  C   UNL     1       6.067  34.202  69.372  1.00  0.00     0.156 C 
BRANCH  18  19
HETATM   19  C   UNL     1       7.360  33.866  70.177  1.00  0.00     0.209 C 
BRANCH  19  20
HETATM   20  N   UNL     1       8.215  35.104  70.500  1.00  0.00    -0.065 N 
HETATM   21  H   UNL     1       9.053  35.034  69.914  1.00  0.00     0.280 HD
HETATM   22  C   UNL     1       8.746  35.243  71.917  1.00  0.00     0.235 C 
HETATM   23  C   UNL     1       8.360  36.647  72.347  1.00  0.00     0.029 C 
HETATM   24  C   UNL     1       8.281  37.426  71.050  1.00  0.00     0.029 C 
HETATM   25  C   UNL     1       7.634  36.446  70.092  1.00  0.00     0.235 C 
ENDBRANCH  19  20
BRANCH  19  26
HETATM   26  C   UNL     1       7.041  33.099  71.499  1.00  0.00     0.010 C 
HETATM   27  C   UNL     1       5.752  33.609  72.161  1.00  0.00     0.011 C 
HETATM   28  C   UNL     1       6.900  31.584  71.292  1.00  0.00     0.011 C 
ENDBRANCH  19  26
ENDBRANCH  18  19
ENDBRANCH   2  18
TORSDOF 6
ENDMDL
