MODEL 1
REMARK VINA RESULT:      -8.0      0.000      0.000
REMARK  5 active torsions:
REMARK  status: ('A' for Active; 'I' for Inactive)
REMARK    1  A    between atoms: C_2  and  N_3 
REMARK       I    between atoms: N_3  and  C_4 
REMARK    2  A    between atoms: C_4  and  C_5 
REMARK    3  A    between atoms: C_5  and  N_6 
REMARK    4  A    between atoms: N_6  and  C_7 
REMARK    5  A    between atoms: C_11  and  C_12 
ROOT
HETATM    1  C   UNL     1       7.372  26.308  54.815  1.00  0.00     0.022 A 
HETATM    2  C   UNL     1       7.579  24.940  54.464  1.00  0.00     0.012 A 
HETATM    3  C   UNL     1       7.454  23.948  55.470  1.00  0.00     0.044 A 
HETATM    4  C   UNL     1       7.618  22.583  55.177  1.00  0.00     0.046 A 
HETATM    5  C   UNL     1       7.925  22.160  53.876  1.00  0.00     0.050 A 
HETATM    6  C   UNL     1       8.071  23.126  52.876  1.00  0.00     0.017 A 
HETATM    7  C   UNL     1       7.905  24.486  53.165  1.00  0.00     0.016 A 
HETATM    8  N   UNL     1       7.182  24.323  56.734  1.00  0.00    -0.365 N 
HETATM    9  H   UNL     1       7.099  23.602  57.451  1.00  0.00     0.165 HD
HETATM   10  C   UNL     1       7.037  25.600  57.100  1.00  0.00     0.090 A 
HETATM   11  C   UNL     1       7.141  26.612  56.160  1.00  0.00     0.041 A 
ENDROOT
BRANCH   1  12
HETATM   12  N   UNL     1       7.547  27.320  53.855  1.00  0.00    -0.283 NA
HETATM   13  H   UNL     1       8.047  26.989  53.029  1.00  0.00     0.128 HD
BRANCH  12  14
HETATM   14  C   UNL     1       6.391  28.142  53.422  1.00  0.00     0.195 C 
BRANCH  14  15
HETATM   15  C   UNL     1       5.369  27.286  52.665  1.00  0.00     0.230 C 
HETATM   16  N   UNL     1       5.819  26.838  51.441  1.00  0.00    -0.360 N 
HETATM   17  H   UNL     1       6.780  27.041  51.186  1.00  0.00     0.162 HD
HETATM   18  O   UNL     1       4.246  27.068  53.106  1.00  0.00    -0.272 OA
BRANCH  16  19
HETATM   19  C   UNL     1       4.999  26.036  50.558  1.00  0.00     0.118 C 
HETATM   20  C   UNL     1       4.627  26.794  49.298  1.00  0.00     0.026 C 
ENDBRANCH  16  19
ENDBRANCH  14  15
ENDBRANCH  12  14
ENDBRANCH   1  12
BRANCH   5  21
HETATM   21  C   UNL     1       8.099  20.691  53.545  1.00  0.00     0.417 C 
HETATM   22  F   UNL     1       7.111  20.223  52.736  1.00  0.00    -0.166 F 
HETATM   23  F   UNL     1       9.268  20.445  52.902  1.00  0.00    -0.166 F 
HETATM   24  F   UNL     1       8.087  19.909  54.654  1.00  0.00    -0.166 F 
ENDBRANCH   5  21
TORSDOF 5
ENDMDL
MODEL 2
REMARK VINA RESULT:      -7.9      1.556      2.073
REMARK  5 active torsions:
REMARK  status: ('A' for Active; 'I' for Inactive)
REMARK    1  A    between atoms: C_2  and  N_3 
REMARK       I    between atoms: N_3  and  C_4 
REMARK    2  A    between atoms: C_4  and  C_5 
REMARK    3  A    between atoms: C_5  and  N_6 
REMARK    4  A    between atoms: N_6  and  C_7 
REMARK    5  A    between atoms: C_11  and  C_12 
ROOT
HETATM    1  C   UNL     1       6.959  25.754  53.657  1.00  0.00     0.022 A 
HETATM    2  C   UNL     1       7.357  24.443  54.057  1.00  0.00     0.012 A 
HETATM    3  C   UNL     1       7.777  24.233  55.396  1.00  0.00     0.044 A 
HETATM    4  C   UNL     1       8.153  22.959  55.853  1.00  0.00     0.046 A 
HETATM    5  C   UNL     1       8.137  21.852  54.992  1.00  0.00     0.050 A 
HETATM    6  C   UNL     1       7.744  22.046  53.664  1.00  0.00     0.017 A 
HETATM    7  C   UNL     1       7.366  23.314  53.206  1.00  0.00     0.016 A 
HETATM    8  N   UNL     1       7.825  25.279  56.241  1.00  0.00    -0.365 N 
HETATM    9  H   UNL     1       8.134  25.118  57.201  1.00  0.00     0.165 HD
HETATM   10  C   UNL     1       7.510  26.526  55.879  1.00  0.00     0.090 A 
HETATM   11  C   UNL     1       7.086  26.791  54.587  1.00  0.00     0.041 A 
ENDROOT
BRANCH   1  12
HETATM   12  N   UNL     1       6.595  26.008  52.323  1.00  0.00    -0.283 NA
HETATM   13  H   UNL     1       7.125  25.440  51.661  1.00  0.00     0.128 HD
BRANCH  12  14
HETATM   14  C   UNL     1       5.166  26.000  51.927  1.00  0.00     0.195 C 
BRANCH  14  15
HETATM   15  C   UNL     1       4.985  26.600  50.528  1.00  0.00     0.230 C 
HETATM   16  N   UNL     1       4.168  25.852  49.706  1.00  0.00    -0.360 N 
HETATM   17  H   UNL     1       3.711  25.039  50.105  1.00  0.00     0.162 HD
HETATM   18  O   UNL     1       5.556  27.626  50.179  1.00  0.00    -0.272 OA
BRANCH  16  19
HETATM   19  C   UNL     1       3.888  26.230  48.336  1.00  0.00     0.118 C 
HETATM   20  C   UNL     1       3.061  25.176  47.624  1.00  0.00     0.026 C 
ENDBRANCH  16  19
ENDBRANCH  14  15
ENDBRANCH  12  14
ENDBRANCH   1  12
BRANCH   5  21
HETATM   21  C   UNL     1       8.534  20.472  55.474  1.00  0.00     0.417 C 
HETATM   22  F   UNL     1       7.588  19.913  56.276  1.00  0.00    -0.166 F 
HETATM   23  F   UNL     1       8.726  19.605  54.448  1.00  0.00    -0.166 F 
HETATM   24  F   UNL     1       9.684  20.489  56.195  1.00  0.00    -0.166 F 
ENDBRANCH   5  21
TORSDOF 5
ENDMDL
MODEL 3
REMARK VINA RESULT:      -7.9      2.704      4.545
REMARK  5 active torsions:
REMARK  status: ('A' for Active; 'I' for Inactive)
REMARK    1  A    between atoms: C_2  and  N_3 
REMARK       I    between atoms: N_3  and  C_4 
REMARK    2  A    between atoms: C_4  and  C_5 
REMARK    3  A    between atoms: C_5  and  N_6 
REMARK    4  A    between atoms: N_6  and  C_7 
REMARK    5  A    between atoms: C_11  and  C_12 
ROOT
HETATM    1  C   UNL     1       7.300  25.901  54.458  1.00  0.00     0.022 A 
HETATM    2  C   UNL     1       7.623  24.550  54.787  1.00  0.00     0.012 A 
HETATM    3  C   UNL     1       7.988  23.659  53.745  1.00  0.00     0.044 A 
HETATM    4  C   UNL     1       8.343  22.326  54.013  1.00  0.00     0.046 A 
HETATM    5  C   UNL     1       8.335  21.830  55.325  1.00  0.00     0.050 A 
HETATM    6  C   UNL     1       7.959  22.690  56.361  1.00  0.00     0.017 A 
HETATM    7  C   UNL     1       7.607  24.019  56.098  1.00  0.00     0.016 A 
HETATM    8  N   UNL     1       7.984  24.098  52.473  1.00  0.00    -0.365 N 
HETATM    9  H   UNL     1       8.243  23.448  51.730  1.00  0.00     0.165 HD
HETATM   10  C   UNL     1       7.634  25.342  52.132  1.00  0.00     0.090 A 
HETATM   11  C   UNL     1       7.275  26.258  53.106  1.00  0.00     0.041 A 
ENDROOT
BRANCH   1  12
HETATM   12  N   UNL     1       6.876  26.792  55.459  1.00  0.00    -0.283 NA
HETATM   13  H   UNL     1       6.952  26.390  56.394  1.00  0.00     0.128 HD
BRANCH  12  14
HETATM   14  C   UNL     1       7.398  28.180  55.488  1.00  0.00     0.195 C 
BRANCH  14  15
HETATM   15  C   UNL     1       8.531  28.314  56.512  1.00  0.00     0.230 C 
HETATM   16  N   UNL     1       9.445  29.299  56.202  1.00  0.00    -0.360 N 
HETATM   17  H   UNL     1       9.258  29.882  55.394  1.00  0.00     0.162 HD
HETATM   18  O   UNL     1       8.620  27.576  57.487  1.00  0.00    -0.272 OA
BRANCH  16  19
HETATM   19  C   UNL     1      10.604  29.571  57.027  1.00  0.00     0.118 C 
HETATM   20  C   UNL     1      10.501  30.923  57.707  1.00  0.00     0.026 C 
ENDBRANCH  16  19
ENDBRANCH  14  15
ENDBRANCH  12  14
ENDBRANCH   1  12
BRANCH   5  21
HETATM   21  C   UNL     1       8.722  20.396  55.628  1.00  0.00     0.417 C 
HETATM   22  F   UNL     1       7.759  19.739  56.329  1.00  0.00    -0.166 F 
HETATM   23  F   UNL     1       8.935  19.673  54.500  1.00  0.00    -0.166 F 
HETATM   24  F   UNL     1       9.857  20.314  56.368  1.00  0.00    -0.166 F 
ENDBRANCH   5  21
TORSDOF 5
ENDMDL
MODEL 4
REMARK VINA RESULT:      -7.8      2.813      4.811
REMARK  5 active torsions:
REMARK  status: ('A' for Active; 'I' for Inactive)
REMARK    1  A    between atoms: C_2  and  N_3 
REMARK       I    between atoms: N_3  and  C_4 
REMARK    2  A    between atoms: C_4  and  C_5 
REMARK    3  A    between atoms: C_5  and  N_6 
REMARK    4  A    between atoms: N_6  and  C_7 
REMARK    5  A    between atoms: C_11  and  C_12 
ROOT
HETATM    1  C   UNL     1       7.444  26.166  55.488  1.00  0.00     0.022 A 
HETATM    2  C   UNL     1       7.606  24.807  55.079  1.00  0.00     0.012 A 
HETATM    3  C   UNL     1       7.650  24.510  53.693  1.00  0.00     0.044 A 
HETATM    4  C   UNL     1       7.835  23.195  53.232  1.00  0.00     0.046 A 
HETATM    5  C   UNL     1       7.971  22.130  54.134  1.00  0.00     0.050 A 
HETATM    6  C   UNL     1       7.910  22.404  55.504  1.00  0.00     0.017 A 
HETATM    7  C   UNL     1       7.728  23.713  55.966  1.00  0.00     0.016 A 
HETATM    8  N   UNL     1       7.501  25.507  52.801  1.00  0.00    -0.365 N 
HETATM    9  H   UNL     1       7.529  25.281  51.806  1.00  0.00     0.165 HD
HETATM   10  C   UNL     1       7.294  26.778  53.156  1.00  0.00     0.090 A 
HETATM   11  C   UNL     1       7.249  27.131  54.495  1.00  0.00     0.041 A 
ENDROOT
BRANCH   1  12
HETATM   12  N   UNL     1       7.337  26.487  56.853  1.00  0.00    -0.283 NA
HETATM   13  H   UNL     1       8.183  26.255  57.374  1.00  0.00     0.128 HD
BRANCH  12  14
HETATM   14  C   UNL     1       6.870  27.833  57.265  1.00  0.00     0.195 C 
BRANCH  14  15
HETATM   15  C   UNL     1       8.031  28.660  57.830  1.00  0.00     0.230 C 
HETATM   16  N   UNL     1       7.674  29.460  58.896  1.00  0.00    -0.360 N 
HETATM   17  H   UNL     1       6.727  29.379  59.253  1.00  0.00     0.162 HD
HETATM   18  O   UNL     1       9.153  28.632  57.339  1.00  0.00    -0.272 OA
BRANCH  16  19
HETATM   19  C   UNL     1       8.615  30.338  59.559  1.00  0.00     0.118 C 
HETATM   20  C   UNL     1       8.191  31.791  59.456  1.00  0.00     0.026 C 
ENDBRANCH  16  19
ENDBRANCH  14  15
ENDBRANCH  12  14
ENDBRANCH   1  12
BRANCH   5  21
HETATM   21  C   UNL     1       8.177  20.709  53.651  1.00  0.00     0.417 C 
HETATM   22  F   UNL     1       7.197  20.306  52.798  1.00  0.00    -0.166 F 
HETATM   23  F   UNL     1       9.349  20.559  52.983  1.00  0.00    -0.166 F 
HETATM   24  F   UNL     1       8.189  19.814  54.671  1.00  0.00    -0.166 F 
ENDBRANCH   5  21
TORSDOF 5
ENDMDL
MODEL 5
REMARK VINA RESULT:      -7.7      1.551      2.720
REMARK  5 active torsions:
REMARK  status: ('A' for Active; 'I' for Inactive)
REMARK    1  A    between atoms: C_2  and  N_3 
REMARK       I    between atoms: N_3  and  C_4 
REMARK    2  A    between atoms: C_4  and  C_5 
REMARK    3  A    between atoms: C_5  and  N_6 
REMARK    4  A    between atoms: N_6  and  C_7 
REMARK    5  A    between atoms: C_11  and  C_12 
ROOT
HETATM    1  C   UNL     1       7.358  26.253  55.117  1.00  0.00     0.022 A 
HETATM    2  C   UNL     1       7.571  24.903  54.703  1.00  0.00     0.012 A 
HETATM    3  C   UNL     1       7.536  23.874  55.678  1.00  0.00     0.044 A 
HETATM    4  C   UNL     1       7.710  22.525  55.324  1.00  0.00     0.046 A 
HETATM    5  C   UNL     1       7.938  22.156  53.991  1.00  0.00     0.050 A 
HETATM    6  C   UNL     1       7.994  23.160  53.020  1.00  0.00     0.017 A 
HETATM    7  C   UNL     1       7.818  24.505  53.369  1.00  0.00     0.016 A 
HETATM    8  N   UNL     1       7.342  24.198  56.970  1.00  0.00    -0.365 N 
HETATM    9  H   UNL     1       7.324  23.450  57.664  1.00  0.00     0.165 HD
HETATM   10  C   UNL     1       7.195  25.457  57.392  1.00  0.00     0.090 A 
HETATM   11  C   UNL     1       7.212  26.504  56.485  1.00  0.00     0.041 A 
ENDROOT
BRANCH   1  12
HETATM   12  N   UNL     1       7.446  27.303  54.186  1.00  0.00    -0.283 NA
HETATM   13  H   UNL     1       8.198  27.160  53.510  1.00  0.00     0.128 HD
BRANCH  12  14
HETATM   14  C   UNL     1       6.233  27.762  53.467  1.00  0.00     0.195 C 
BRANCH  14  15
HETATM   15  C   UNL     1       5.319  28.564  54.401  1.00  0.00     0.230 C 
HETATM   16  N   UNL     1       5.959  29.601  55.047  1.00  0.00    -0.360 N 
HETATM   17  H   UNL     1       6.926  29.787  54.803  1.00  0.00     0.162 HD
HETATM   18  O   UNL     1       4.142  28.269  54.575  1.00  0.00    -0.272 OA
BRANCH  16  19
HETATM   19  C   UNL     1       5.282  30.465  55.991  1.00  0.00     0.118 C 
HETATM   20  C   UNL     1       5.382  29.931  57.408  1.00  0.00     0.026 C 
ENDBRANCH  16  19
ENDBRANCH  14  15
ENDBRANCH  12  14
ENDBRANCH   1  12
BRANCH   5  21
HETATM   21  C   UNL     1       8.121  20.704  53.595  1.00  0.00     0.417 C 
HETATM   22  F   UNL     1       7.114  20.255  52.799  1.00  0.00    -0.166 F 
HETATM   23  F   UNL     1       9.272  20.501  52.907  1.00  0.00    -0.166 F 
HETATM   24  F   UNL     1       8.155  19.877  54.671  1.00  0.00    -0.166 F 
ENDBRANCH   5  21
TORSDOF 5
ENDMDL
MODEL 6
REMARK VINA RESULT:      -7.6      4.256      6.295
REMARK  5 active torsions:
REMARK  status: ('A' for Active; 'I' for Inactive)
REMARK    1  A    between atoms: C_2  and  N_3 
REMARK       I    between atoms: N_3  and  C_4 
REMARK    2  A    between atoms: C_4  and  C_5 
REMARK    3  A    between atoms: C_5  and  N_6 
REMARK    4  A    between atoms: N_6  and  C_7 
REMARK    5  A    between atoms: C_11  and  C_12 
ROOT
HETATM    1  C   UNL     1       6.673  28.107  57.297  1.00  0.00     0.022 A 
HETATM    2  C   UNL     1       7.069  26.763  57.023  1.00  0.00     0.012 A 
HETATM    3  C   UNL     1       6.204  25.936  56.262  1.00  0.00     0.044 A 
HETATM    4  C   UNL     1       6.555  24.614  55.937  1.00  0.00     0.046 A 
HETATM    5  C   UNL     1       7.772  24.067  56.368  1.00  0.00     0.050 A 
HETATM    6  C   UNL     1       8.627  24.863  57.136  1.00  0.00     0.017 A 
HETATM    7  C   UNL     1       8.282  26.181  57.459  1.00  0.00     0.016 A 
HETATM    8  N   UNL     1       5.019  26.424  55.852  1.00  0.00    -0.365 N 
HETATM    9  H   UNL     1       4.402  25.819  55.309  1.00  0.00     0.165 HD
HETATM   10  C   UNL     1       4.600  27.659  56.141  1.00  0.00     0.090 A 
HETATM   11  C   UNL     1       5.405  28.516  56.874  1.00  0.00     0.041 A 
ENDROOT
BRANCH   1  12
HETATM   12  N   UNL     1       7.479  28.934  58.099  1.00  0.00    -0.283 NA
HETATM   13  H   UNL     1       8.473  28.829  57.889  1.00  0.00     0.128 HD
BRANCH  12  14
HETATM   14  C   UNL     1       7.164  30.377  58.231  1.00  0.00     0.195 C 
BRANCH  14  15
HETATM   15  C   UNL     1       8.103  31.048  59.241  1.00  0.00     0.230 C 
HETATM   16  N   UNL     1       8.190  30.381  60.445  1.00  0.00    -0.360 N 
HETATM   17  H   UNL     1       7.704  29.495  60.532  1.00  0.00     0.162 HD
HETATM   18  O   UNL     1       8.679  32.102  58.996  1.00  0.00    -0.272 OA
BRANCH  16  19
HETATM   19  C   UNL     1       9.002  30.862  61.543  1.00  0.00     0.118 C 
HETATM   20  C   UNL     1       8.148  31.390  62.680  1.00  0.00     0.026 C 
ENDBRANCH  16  19
ENDBRANCH  14  15
ENDBRANCH  12  14
ENDBRANCH   1  12
BRANCH   5  21
HETATM   21  C   UNL     1       8.164  22.645  56.019  1.00  0.00     0.417 C 
HETATM   22  F   UNL     1       9.345  22.586  55.346  1.00  0.00    -0.166 F 
HETATM   23  F   UNL     1       8.313  21.869  57.122  1.00  0.00    -0.166 F 
HETATM   24  F   UNL     1       7.244  22.035  55.230  1.00  0.00    -0.166 F 
ENDBRANCH   5  21
TORSDOF 5
ENDMDL
MODEL 7
REMARK VINA RESULT:      -7.5     12.029     14.454
REMARK  5 active torsions:
REMARK  status: ('A' for Active; 'I' for Inactive)
REMARK    1  A    between atoms: C_2  and  N_3 
REMARK       I    between atoms: N_3  and  C_4 
REMARK    2  A    between atoms: C_4  and  C_5 
REMARK    3  A    between atoms: C_5  and  N_6 
REMARK    4  A    between atoms: N_6  and  C_7 
REMARK    5  A    between atoms: C_11  and  C_12 
ROOT
HETATM    1  C   UNL     1       4.661  33.545  63.962  1.00  0.00     0.022 A 
HETATM    2  C   UNL     1       5.834  33.102  63.279  1.00  0.00     0.012 A 
HETATM    3  C   UNL     1       5.820  33.041  61.862  1.00  0.00     0.044 A 
HETATM    4  C   UNL     1       6.954  32.640  61.136  1.00  0.00     0.046 A 
HETATM    5  C   UNL     1       8.137  32.273  61.795  1.00  0.00     0.050 A 
HETATM    6  C   UNL     1       8.161  32.310  63.192  1.00  0.00     0.017 A 
HETATM    7  C   UNL     1       7.033  32.712  63.918  1.00  0.00     0.016 A 
HETATM    8  N   UNL     1       4.693  33.365  61.201  1.00  0.00    -0.365 N 
HETATM    9  H   UNL     1       4.692  33.312  60.182  1.00  0.00     0.165 HD
HETATM   10  C   UNL     1       3.565  33.730  61.817  1.00  0.00     0.090 A 
HETATM   11  C   UNL     1       3.520  33.815  63.199  1.00  0.00     0.041 A 
ENDROOT
BRANCH   1  12
HETATM   12  N   UNL     1       4.621  33.560  65.367  1.00  0.00    -0.283 NA
HETATM   13  H   UNL     1       5.208  32.834  65.780  1.00  0.00     0.128 HD
BRANCH  12  14
HETATM   14  C   UNL     1       4.837  34.830  66.103  1.00  0.00     0.195 C 
BRANCH  14  15
HETATM   15  C   UNL     1       5.105  34.558  67.588  1.00  0.00     0.230 C 
HETATM   16  N   UNL     1       6.198  35.236  68.087  1.00  0.00    -0.360 N 
HETATM   17  H   UNL     1       6.670  35.891  67.473  1.00  0.00     0.162 HD
HETATM   18  O   UNL     1       4.425  33.775  68.242  1.00  0.00    -0.272 OA
BRANCH  16  19
HETATM   19  C   UNL     1       6.637  35.098  69.460  1.00  0.00     0.118 C 
HETATM   20  C   UNL     1       8.141  34.915  69.550  1.00  0.00     0.026 C 
ENDBRANCH  16  19
ENDBRANCH  14  15
ENDBRANCH  12  14
ENDBRANCH   1  12
BRANCH   5  21
HETATM   21  C   UNL     1       9.369  31.845  61.024  1.00  0.00     0.417 C 
HETATM   22  F   UNL     1       9.413  30.499  60.828  1.00  0.00    -0.166 F 
HETATM   23  F   UNL     1       9.426  32.411  59.793  1.00  0.00    -0.166 F 
HETATM   24  F   UNL     1      10.519  32.176  61.664  1.00  0.00    -0.166 F 
ENDBRANCH   5  21
TORSDOF 5
ENDMDL
MODEL 8
REMARK VINA RESULT:      -7.2     11.780     13.891
REMARK  5 active torsions:
REMARK  status: ('A' for Active; 'I' for Inactive)
REMARK    1  A    between atoms: C_2  and  N_3 
REMARK       I    between atoms: N_3  and  C_4 
REMARK    2  A    between atoms: C_4  and  C_5 
REMARK    3  A    between atoms: C_5  and  N_6 
REMARK    4  A    between atoms: N_6  and  C_7 
REMARK    5  A    between atoms: C_11  and  C_12 
ROOT
HETATM    1  C   UNL     1       5.843  32.234  62.387  1.00  0.00     0.022 A 
HETATM    2  C   UNL     1       5.872  32.876  63.662  1.00  0.00     0.012 A 
HETATM    3  C   UNL     1       4.676  33.441  64.172  1.00  0.00     0.044 A 
HETATM    4  C   UNL     1       4.639  34.059  65.434  1.00  0.00     0.046 A 
HETATM    5  C   UNL     1       5.793  34.147  66.225  1.00  0.00     0.050 A 
HETATM    6  C   UNL     1       6.985  33.611  65.729  1.00  0.00     0.017 A 
HETATM    7  C   UNL     1       7.025  32.992  64.473  1.00  0.00     0.016 A 
HETATM    8  N   UNL     1       3.556  33.393  63.427  1.00  0.00    -0.365 N 
HETATM    9  H   UNL     1       2.702  33.808  63.802  1.00  0.00     0.165 HD
HETATM   10  C   UNL     1       3.513  32.848  62.208  1.00  0.00     0.090 A 
HETATM   11  C   UNL     1       4.649  32.274  61.660  1.00  0.00     0.041 A 
ENDROOT
BRANCH   1  12
HETATM   12  N   UNL     1       7.024  31.717  61.826  1.00  0.00    -0.283 NA
HETATM   13  H   UNL     1       6.867  30.837  61.333  1.00  0.00     0.128 HD
BRANCH  12  14
HETATM   14  C   UNL     1       7.895  32.585  60.996  1.00  0.00     0.195 C 
BRANCH  14  15
HETATM   15  C   UNL     1       8.126  31.961  59.615  1.00  0.00     0.230 C 
HETATM   16  N   UNL     1       7.180  31.020  59.267  1.00  0.00    -0.360 N 
HETATM   17  H   UNL     1       6.397  30.879  59.896  1.00  0.00     0.162 HD
HETATM   18  O   UNL     1       9.091  32.255  58.919  1.00  0.00    -0.272 OA
BRANCH  16  19
HETATM   19  C   UNL     1       7.230  30.295  58.014  1.00  0.00     0.118 C 
HETATM   20  C   UNL     1       8.017  29.005  58.146  1.00  0.00     0.026 C 
ENDBRANCH  16  19
ENDBRANCH  14  15
ENDBRANCH  12  14
ENDBRANCH   1  12
BRANCH   5  21
HETATM   21  C   UNL     1       5.765  34.805  67.590  1.00  0.00     0.417 C 
HETATM   22  F   UNL     1       7.002  34.881  68.152  1.00  0.00    -0.166 F 
HETATM   23  F   UNL     1       5.291  36.075  67.538  1.00  0.00    -0.166 F 
HETATM   24  F   UNL     1       4.986  34.130  68.472  1.00  0.00    -0.166 F 
ENDBRANCH   5  21
TORSDOF 5
ENDMDL
MODEL 9
REMARK VINA RESULT:      -7.2      1.903      2.308
REMARK  5 active torsions:
REMARK  status: ('A' for Active; 'I' for Inactive)
REMARK    1  A    between atoms: C_2  and  N_3 
REMARK       I    between atoms: N_3  and  C_4 
REMARK    2  A    between atoms: C_4  and  C_5 
REMARK    3  A    between atoms: C_5  and  N_6 
REMARK    4  A    between atoms: N_6  and  C_7 
REMARK    5  A    between atoms: C_11  and  C_12 
ROOT
HETATM    1  C   UNL     1       4.892  27.007  54.153  1.00  0.00     0.022 A 
HETATM    2  C   UNL     1       5.701  25.832  54.083  1.00  0.00     0.012 A 
HETATM    3  C   UNL     1       6.742  25.660  55.031  1.00  0.00     0.044 A 
HETATM    4  C   UNL     1       7.552  24.511  55.028  1.00  0.00     0.046 A 
HETATM    5  C   UNL     1       7.361  23.500  54.074  1.00  0.00     0.050 A 
HETATM    6  C   UNL     1       6.351  23.664  53.121  1.00  0.00     0.017 A 
HETATM    7  C   UNL     1       5.542  24.806  53.123  1.00  0.00     0.016 A 
HETATM    8  N   UNL     1       6.966  26.622  55.945  1.00  0.00    -0.365 N 
HETATM    9  H   UNL     1       7.721  26.491  56.619  1.00  0.00     0.165 HD
HETATM   10  C   UNL     1       6.260  27.755  55.999  1.00  0.00     0.090 A 
HETATM   11  C   UNL     1       5.225  27.977  55.104  1.00  0.00     0.041 A 
ENDROOT
BRANCH   1  12
HETATM   12  N   UNL     1       3.892  27.237  53.193  1.00  0.00    -0.283 NA
HETATM   13  H   UNL     1       2.954  27.071  53.562  1.00  0.00     0.128 HD
BRANCH  12  14
HETATM   14  C   UNL     1       3.887  28.498  52.412  1.00  0.00     0.195 C 
BRANCH  14  15
HETATM   15  C   UNL     1       4.295  28.238  50.957  1.00  0.00     0.230 C 
HETATM   16  N   UNL     1       4.177  26.917  50.576  1.00  0.00    -0.360 N 
HETATM   17  H   UNL     1       3.774  26.266  51.241  1.00  0.00     0.162 HD
HETATM   18  O   UNL     1       4.723  29.127  50.230  1.00  0.00    -0.272 OA
BRANCH  16  19
HETATM   19  C   UNL     1       4.536  26.456  49.251  1.00  0.00     0.118 C 
HETATM   20  C   UNL     1       3.314  26.296  48.366  1.00  0.00     0.026 C 
ENDBRANCH  16  19
ENDBRANCH  14  15
ENDBRANCH  12  14
ENDBRANCH   1  12
BRANCH   5  21
HETATM   21  C   UNL     1       8.222  22.254  54.064  1.00  0.00     0.417 C 
HETATM   22  F   UNL     1       8.357  21.730  52.816  1.00  0.00    -0.166 F 
HETATM   23  F   UNL     1       9.479  22.494  54.514  1.00  0.00    -0.166 F 
HETATM   24  F   UNL     1       7.708  21.266  54.840  1.00  0.00    -0.166 F 
ENDBRANCH   5  21
TORSDOF 5
ENDMDL
MODEL 10
REMARK VINA RESULT:      -7.1      2.255      3.783
REMARK  5 active torsions:
REMARK  status: ('A' for Active; 'I' for Inactive)
REMARK    1  A    between atoms: C_2  and  N_3 
REMARK       I    between atoms: N_3  and  C_4 
REMARK    2  A    between atoms: C_4  and  C_5 
REMARK    3  A    between atoms: C_5  and  N_6 
REMARK    4  A    between atoms: N_6  and  C_7 
REMARK    5  A    between atoms: C_11  and  C_12 
ROOT
HETATM    1  C   UNL     1       6.498  26.467  54.403  1.00  0.00     0.022 A 
HETATM    2  C   UNL     1       6.865  25.092  54.284  1.00  0.00     0.012 A 
HETATM    3  C   UNL     1       6.984  24.524  52.990  1.00  0.00     0.044 A 
HETATM    4  C   UNL     1       7.370  23.185  52.811  1.00  0.00     0.046 A 
HETATM    5  C   UNL     1       7.638  22.361  53.915  1.00  0.00     0.050 A 
HETATM    6  C   UNL     1       7.507  22.901  55.198  1.00  0.00     0.017 A 
HETATM    7  C   UNL     1       7.126  24.235  55.378  1.00  0.00     0.016 A 
HETATM    8  N   UNL     1       6.712  25.282  51.911  1.00  0.00    -0.365 N 
HETATM    9  H   UNL     1       6.796  24.862  50.985  1.00  0.00     0.165 HD
HETATM   10  C   UNL     1       6.314  26.555  51.996  1.00  0.00     0.090 A 
HETATM   11  C   UNL     1       6.187  27.166  53.232  1.00  0.00     0.041 A 
ENDROOT
BRANCH   1  12
HETATM   12  N   UNL     1       6.313  27.044  55.671  1.00  0.00    -0.283 NA
HETATM   13  H   UNL     1       6.244  26.343  56.411  1.00  0.00     0.128 HD
BRANCH  12  14
HETATM   14  C   UNL     1       7.205  28.138  56.128  1.00  0.00     0.195 C 
BRANCH  14  15
HETATM   15  C   UNL     1       6.390  29.372  56.530  1.00  0.00     0.230 C 
HETATM   16  N   UNL     1       5.761  29.991  55.469  1.00  0.00    -0.360 N 
HETATM   17  H   UNL     1       5.826  29.551  54.558  1.00  0.00     0.162 HD
HETATM   18  O   UNL     1       6.348  29.779  57.685  1.00  0.00    -0.272 OA
BRANCH  16  19
HETATM   19  C   UNL     1       4.961  31.187  55.631  1.00  0.00     0.118 C 
HETATM   20  C   UNL     1       3.549  30.990  55.112  1.00  0.00     0.026 C 
ENDBRANCH  16  19
ENDBRANCH  14  15
ENDBRANCH  12  14
ENDBRANCH   1  12
BRANCH   5  21
HETATM   21  C   UNL     1       8.061  20.917  53.736  1.00  0.00     0.417 C 
HETATM   22  F   UNL     1       9.376  20.801  53.409  1.00  0.00    -0.166 F 
HETATM   23  F   UNL     1       7.882  20.186  54.864  1.00  0.00    -0.166 F 
HETATM   24  F   UNL     1       7.366  20.295  52.750  1.00  0.00    -0.166 F 
ENDBRANCH   5  21
TORSDOF 5
ENDMDL
