MODEL 1
REMARK VINA RESULT:     -10.4      0.000      0.000
REMARK  6 active torsions:
REMARK  status: ('A' for Active; 'I' for Inactive)
REMARK    1  A    between atoms: C_3  and  O_4 
REMARK    2  A    between atoms: O_4  and  C_5 
REMARK    3  A    between atoms: C_5  and  C_6 
REMARK       I    between atoms: C_6  and  N_7 
REMARK    4  A    between atoms: N_7  and  C_8 
REMARK    5  A    between atoms: C_15  and  C_16 
REMARK       I    between atoms: C_16  and  N_17 
REMARK    6  A    between atoms: C_23  and  C_24 
ROOT
HETATM    1  C   UNL     1       7.280  25.977  57.545  1.00  0.00     0.246 C 
HETATM    2  N   UNL     1       7.015  27.310  57.259  1.00  0.00    -0.325 N 
HETATM    3  O   UNL     1       8.251  25.541  58.152  1.00  0.00    -0.271 OA
HETATM    4  H   UNL     1       6.120  27.507  56.830  1.00  0.00     0.169 HD
ENDROOT
BRANCH   2   5
HETATM    5  C   UNL     1       7.855  28.422  57.490  1.00  0.00     0.035 A 
HETATM    6  C   UNL     1       7.641  29.361  58.509  1.00  0.00     0.046 A 
HETATM    7  C   UNL     1       8.555  30.424  58.686  1.00  0.00     0.030 A 
HETATM    8  C   UNL     1       9.654  30.509  57.841  1.00  0.00     0.063 A 
HETATM    9  C   UNL     1       8.681  31.537  59.571  1.00  0.00     0.156 A 
HETATM   10  N   UNL     1      10.345  31.614  58.256  1.00  0.00    -0.277 N 
HETATM   11  C   UNL     1       9.898  29.597  56.813  1.00  0.00     0.034 A 
HETATM   12  H   UNL     1      11.208  31.979  57.869  1.00  0.00     0.189 HD
HETATM   13  N   UNL     1       9.789  32.262  59.293  1.00  0.00    -0.168 NA
HETATM   14  C   UNL     1       8.973  28.557  56.655  1.00  0.00     0.032 A 
BRANCH   9  15
HETATM   15  C   UNL     1       7.775  31.922  60.664  1.00  0.00     0.270 C 
HETATM   16  N   UNL     1       7.577  30.942  61.597  1.00  0.00    -0.365 N 
HETATM   17  H   UNL     1       8.054  30.056  61.479  1.00  0.00     0.159 HD
HETATM   18  H   UNL     1       6.981  31.121  62.388  1.00  0.00     0.159 HD
HETATM   19  O   UNL     1       7.228  33.015  60.767  1.00  0.00    -0.266 OA
ENDBRANCH   9  15
ENDBRANCH   2   5
BRANCH   1  20
HETATM   20  C   UNL     1       6.230  25.029  56.965  1.00  0.00     0.278 C 
BRANCH  20  21
HETATM   21  O   UNL     1       5.928  25.390  55.622  1.00  0.00    -0.342 OA
BRANCH  21  22
HETATM   22  C   UNL     1       6.632  24.689  54.672  1.00  0.00     0.075 A 
HETATM   23  C   UNL     1       6.906  25.350  53.466  1.00  0.00    -0.029 A 
HETATM   24  C   UNL     1       6.423  26.750  53.215  1.00  0.00     0.051 C 
HETATM   25  C   UNL     1       7.659  24.690  52.482  1.00  0.00     0.010 A 
HETATM   26  C   UNL     1       8.123  23.390  52.692  1.00  0.00     0.008 A 
HETATM   27  C   UNL     1       7.860  22.723  53.894  1.00  0.00    -0.052 A 
HETATM   28  C   UNL     1       7.114  23.390  54.881  1.00  0.00     0.044 A 
BRANCH  27  29
HETATM   29  C   UNL     1       8.373  21.309  54.105  1.00  0.00     0.010 C 
HETATM   30  C   UNL     1       7.785  20.665  55.364  1.00  0.00     0.015 C 
HETATM   31  C   UNL     1       8.106  20.439  52.874  1.00  0.00     0.015 C 
ENDBRANCH  27  29
ENDBRANCH  21  22
ENDBRANCH  20  21
ENDBRANCH   1  20
TORSDOF 6
ENDMDL
MODEL 2
REMARK VINA RESULT:      -9.6      0.917      2.796
REMARK  6 active torsions:
REMARK  status: ('A' for Active; 'I' for Inactive)
REMARK    1  A    between atoms: C_3  and  O_4 
REMARK    2  A    between atoms: O_4  and  C_5 
REMARK    3  A    between atoms: C_5  and  C_6 
REMARK       I    between atoms: C_6  and  N_7 
REMARK    4  A    between atoms: N_7  and  C_8 
REMARK    5  A    between atoms: C_15  and  C_16 
REMARK       I    between atoms: C_16  and  N_17 
REMARK    6  A    between atoms: C_23  and  C_24 
ROOT
HETATM    1  C   UNL     1       7.317  25.963  57.499  1.00  0.00     0.246 C 
HETATM    2  N   UNL     1       7.068  27.285  57.155  1.00  0.00    -0.325 N 
HETATM    3  O   UNL     1       8.222  25.555  58.217  1.00  0.00    -0.271 OA
HETATM    4  H   UNL     1       6.223  27.460  56.627  1.00  0.00     0.169 HD
ENDROOT
BRANCH   2   5
HETATM    5  C   UNL     1       7.863  28.415  57.452  1.00  0.00     0.035 A 
HETATM    6  C   UNL     1       7.545  29.352  58.445  1.00  0.00     0.046 A 
HETATM    7  C   UNL     1       8.419  30.434  58.693  1.00  0.00     0.030 A 
HETATM    8  C   UNL     1       9.584  30.539  57.944  1.00  0.00     0.063 A 
HETATM    9  C   UNL     1       8.447  31.552  59.580  1.00  0.00     0.156 A 
HETATM   10  N   UNL     1      10.215  31.659  58.411  1.00  0.00    -0.277 N 
HETATM   11  C   UNL     1       9.932  29.629  56.945  1.00  0.00     0.034 A 
HETATM   12  H   UNL     1      11.100  32.040  58.097  1.00  0.00     0.189 HD
HETATM   13  N   UNL     1       9.560  32.298  59.393  1.00  0.00    -0.168 NA
HETATM   14  C   UNL     1       9.045  28.569  56.713  1.00  0.00     0.032 A 
BRANCH   9  15
HETATM   15  C   UNL     1       7.445  31.923  60.590  1.00  0.00     0.270 C 
HETATM   16  N   UNL     1       7.408  31.087  61.673  1.00  0.00    -0.365 N 
HETATM   17  H   UNL     1       8.053  30.306  61.706  1.00  0.00     0.159 HD
HETATM   18  H   UNL     1       6.760  31.271  62.422  1.00  0.00     0.159 HD
HETATM   19  O   UNL     1       6.691  32.886  60.509  1.00  0.00    -0.266 OA
ENDBRANCH   9  15
ENDBRANCH   2   5
BRANCH   1  20
HETATM   20  C   UNL     1       6.349  24.987  56.829  1.00  0.00     0.278 C 
BRANCH  20  21
HETATM   21  O   UNL     1       7.069  24.014  56.081  1.00  0.00    -0.342 OA
BRANCH  21  22
HETATM   22  C   UNL     1       7.169  24.287  54.738  1.00  0.00     0.075 A 
HETATM   23  C   UNL     1       8.036  23.479  53.987  1.00  0.00    -0.029 A 
HETATM   24  C   UNL     1       8.840  22.386  54.632  1.00  0.00     0.051 C 
HETATM   25  C   UNL     1       8.139  23.691  52.604  1.00  0.00     0.010 A 
HETATM   26  C   UNL     1       7.398  24.697  51.979  1.00  0.00     0.008 A 
HETATM   27  C   UNL     1       6.526  25.505  52.719  1.00  0.00    -0.052 A 
HETATM   28  C   UNL     1       6.419  25.284  54.102  1.00  0.00     0.044 A 
BRANCH  27  29
HETATM   29  C   UNL     1       5.730  26.595  52.023  1.00  0.00     0.010 C 
HETATM   30  C   UNL     1       5.146  26.119  50.689  1.00  0.00     0.015 C 
HETATM   31  C   UNL     1       4.628  27.138  52.936  1.00  0.00     0.015 C 
ENDBRANCH  27  29
ENDBRANCH  21  22
ENDBRANCH  20  21
ENDBRANCH   1  20
TORSDOF 6
ENDMDL
MODEL 3
REMARK VINA RESULT:      -9.4      2.860      9.119
REMARK  6 active torsions:
REMARK  status: ('A' for Active; 'I' for Inactive)
REMARK    1  A    between atoms: C_3  and  O_4 
REMARK    2  A    between atoms: O_4  and  C_5 
REMARK    3  A    between atoms: C_5  and  C_6 
REMARK       I    between atoms: C_6  and  N_7 
REMARK    4  A    between atoms: N_7  and  C_8 
REMARK    5  A    between atoms: C_15  and  C_16 
REMARK       I    between atoms: C_16  and  N_17 
REMARK    6  A    between atoms: C_23  and  C_24 
ROOT
HETATM    1  C   UNL     1       6.443  27.379  56.540  1.00  0.00     0.246 C 
HETATM    2  N   UNL     1       7.545  26.568  56.304  1.00  0.00    -0.325 N 
HETATM    3  O   UNL     1       5.313  27.221  56.095  1.00  0.00    -0.271 OA
HETATM    4  H   UNL     1       8.384  26.788  56.824  1.00  0.00     0.169 HD
ENDROOT
BRANCH   2   5
HETATM    5  C   UNL     1       7.633  25.475  55.413  1.00  0.00     0.035 A 
HETATM    6  C   UNL     1       7.895  24.158  55.819  1.00  0.00     0.046 A 
HETATM    7  C   UNL     1       7.931  23.123  54.859  1.00  0.00     0.030 A 
HETATM    8  C   UNL     1       7.698  23.438  53.526  1.00  0.00     0.063 A 
HETATM    9  C   UNL     1       8.158  21.714  54.872  1.00  0.00     0.156 A 
HETATM   10  N   UNL     1       7.787  22.251  52.853  1.00  0.00    -0.277 N 
HETATM   11  C   UNL     1       7.437  24.735  53.083  1.00  0.00     0.034 A 
HETATM   12  H   UNL     1       7.667  22.099  51.858  1.00  0.00     0.189 HD
HETATM   13  N   UNL     1       8.067  21.191  53.628  1.00  0.00    -0.168 NA
HETATM   14  C   UNL     1       7.414  25.745  54.055  1.00  0.00     0.032 A 
BRANCH   9  15
HETATM   15  C   UNL     1       8.460  20.864  56.034  1.00  0.00     0.270 C 
HETATM   16  N   UNL     1       8.886  19.606  55.709  1.00  0.00    -0.365 N 
HETATM   17  H   UNL     1       8.968  19.358  54.730  1.00  0.00     0.159 HD
HETATM   18  H   UNL     1       9.127  18.957  56.441  1.00  0.00     0.159 HD
HETATM   19  O   UNL     1       8.353  21.213  57.204  1.00  0.00    -0.266 OA
ENDBRANCH   9  15
ENDBRANCH   2   5
BRANCH   1  20
HETATM   20  C   UNL     1       6.778  28.590  57.411  1.00  0.00     0.278 C 
BRANCH  20  21
HETATM   21  O   UNL     1       8.079  28.450  57.971  1.00  0.00    -0.342 OA
BRANCH  21  22
HETATM   22  C   UNL     1       8.632  29.623  58.426  1.00  0.00     0.075 A 
HETATM   23  C   UNL     1       9.791  30.073  57.777  1.00  0.00    -0.029 A 
HETATM   24  C   UNL     1      10.414  29.290  56.656  1.00  0.00     0.051 C 
HETATM   25  C   UNL     1      10.369  31.288  58.178  1.00  0.00     0.010 A 
HETATM   26  C   UNL     1       9.807  32.037  59.214  1.00  0.00     0.008 A 
HETATM   27  C   UNL     1       8.648  31.599  59.864  1.00  0.00    -0.052 A 
HETATM   28  C   UNL     1       8.067  30.387  59.455  1.00  0.00     0.044 A 
BRANCH  27  29
HETATM   29  C   UNL     1       8.052  32.427  60.990  1.00  0.00     0.010 C 
HETATM   30  C   UNL     1       6.522  32.359  61.006  1.00  0.00     0.015 C 
HETATM   31  C   UNL     1       8.630  32.009  62.345  1.00  0.00     0.015 C 
ENDBRANCH  27  29
ENDBRANCH  21  22
ENDBRANCH  20  21
ENDBRANCH   1  20
TORSDOF 6
ENDMDL
MODEL 4
REMARK VINA RESULT:      -9.1      6.172      9.417
REMARK  6 active torsions:
REMARK  status: ('A' for Active; 'I' for Inactive)
REMARK    1  A    between atoms: C_3  and  O_4 
REMARK    2  A    between atoms: O_4  and  C_5 
REMARK    3  A    between atoms: C_5  and  C_6 
REMARK       I    between atoms: C_6  and  N_7 
REMARK    4  A    between atoms: N_7  and  C_8 
REMARK    5  A    between atoms: C_15  and  C_16 
REMARK       I    between atoms: C_16  and  N_17 
REMARK    6  A    between atoms: C_23  and  C_24 
ROOT
HETATM    1  C   UNL     1       5.543  26.651  51.263  1.00  0.00     0.246 C 
HETATM    2  N   UNL     1       5.385  26.579  49.885  1.00  0.00    -0.325 N 
HETATM    3  O   UNL     1       5.095  27.519  52.003  1.00  0.00    -0.271 OA
HETATM    4  H   UNL     1       5.741  25.745  49.436  1.00  0.00     0.169 HD
ENDROOT
BRANCH   2   5
HETATM    5  C   UNL     1       4.792  27.539  49.036  1.00  0.00     0.035 A 
HETATM    6  C   UNL     1       3.528  27.386  48.449  1.00  0.00     0.046 A 
HETATM    7  C   UNL     1       3.002  28.416  47.639  1.00  0.00     0.030 A 
HETATM    8  C   UNL     1       3.754  29.568  47.448  1.00  0.00     0.063 A 
HETATM    9  C   UNL     1       1.803  28.630  46.894  1.00  0.00     0.156 A 
HETATM   10  N   UNL     1       2.992  30.369  46.643  1.00  0.00    -0.277 N 
HETATM   11  C   UNL     1       5.016  29.756  48.012  1.00  0.00     0.034 A 
HETATM   12  H   UNL     1       3.224  31.295  46.301  1.00  0.00     0.189 HD
HETATM   13  N   UNL     1       1.812  29.837  46.285  1.00  0.00    -0.168 NA
HETATM   14  C   UNL     1       5.519  28.716  48.805  1.00  0.00     0.032 A 
BRANCH   9  15
HETATM   15  C   UNL     1       0.660  27.715  46.750  1.00  0.00     0.270 C 
HETATM   16  N   UNL     1       0.145  27.661  45.484  1.00  0.00    -0.365 N 
HETATM   17  H   UNL     1       0.572  28.227  44.761  1.00  0.00     0.159 HD
HETATM   18  H   UNL     1      -0.633  27.051  45.289  1.00  0.00     0.159 HD
HETATM   19  O   UNL     1       0.183  27.041  47.657  1.00  0.00    -0.266 OA
ENDBRANCH   9  15
ENDBRANCH   2   5
BRANCH   1  20
HETATM   20  C   UNL     1       6.416  25.525  51.817  1.00  0.00     0.278 C 
BRANCH  20  21
HETATM   21  O   UNL     1       5.691  24.765  52.777  1.00  0.00    -0.342 OA
BRANCH  21  22
HETATM   22  C   UNL     1       6.474  24.128  53.709  1.00  0.00     0.075 A 
HETATM   23  C   UNL     1       6.458  24.642  55.013  1.00  0.00    -0.029 A 
HETATM   24  C   UNL     1       5.645  25.855  55.365  1.00  0.00     0.051 C 
HETATM   25  C   UNL     1       7.208  23.999  56.010  1.00  0.00     0.010 A 
HETATM   26  C   UNL     1       7.969  22.867  55.710  1.00  0.00     0.008 A 
HETATM   27  C   UNL     1       7.988  22.342  54.413  1.00  0.00    -0.052 A 
HETATM   28  C   UNL     1       7.228  22.983  53.419  1.00  0.00     0.044 A 
BRANCH  27  29
HETATM   29  C   UNL     1       8.822  21.110  54.105  1.00  0.00     0.010 C 
HETATM   30  C   UNL     1       8.787  20.091  55.248  1.00  0.00     0.015 C 
HETATM   31  C   UNL     1       8.385  20.466  52.787  1.00  0.00     0.015 C 
ENDBRANCH  27  29
ENDBRANCH  21  22
ENDBRANCH  20  21
ENDBRANCH   1  20
TORSDOF 6
ENDMDL
MODEL 5
REMARK VINA RESULT:      -8.9      2.808      9.454
REMARK  6 active torsions:
REMARK  status: ('A' for Active; 'I' for Inactive)
REMARK    1  A    between atoms: C_3  and  O_4 
REMARK    2  A    between atoms: O_4  and  C_5 
REMARK    3  A    between atoms: C_5  and  C_6 
REMARK       I    between atoms: C_6  and  N_7 
REMARK    4  A    between atoms: N_7  and  C_8 
REMARK    5  A    between atoms: C_15  and  C_16 
REMARK       I    between atoms: C_16  and  N_17 
REMARK    6  A    between atoms: C_23  and  C_24 
ROOT
HETATM    1  C   UNL     1       7.144  29.515  57.289  1.00  0.00     0.246 C 
HETATM    2  N   UNL     1       6.505  28.283  57.347  1.00  0.00    -0.325 N 
HETATM    3  O   UNL     1       8.179  29.771  56.685  1.00  0.00    -0.271 OA
HETATM    4  H   UNL     1       5.607  28.265  57.815  1.00  0.00     0.169 HD
ENDROOT
BRANCH   2   5
HETATM    5  C   UNL     1       6.965  27.050  56.834  1.00  0.00     0.035 A 
HETATM    6  C   UNL     1       6.681  26.589  55.541  1.00  0.00     0.046 A 
HETATM    7  C   UNL     1       7.214  25.356  55.104  1.00  0.00     0.030 A 
HETATM    8  C   UNL     1       8.019  24.629  55.973  1.00  0.00     0.063 A 
HETATM    9  C   UNL     1       7.158  24.575  53.911  1.00  0.00     0.156 A 
HETATM   10  N   UNL     1       8.384  23.510  55.276  1.00  0.00    -0.277 N 
HETATM   11  C   UNL     1       8.321  25.053  57.267  1.00  0.00     0.034 A 
HETATM   12  H   UNL     1       8.978  22.754  55.598  1.00  0.00     0.189 HD
HETATM   13  N   UNL     1       7.883  23.439  54.033  1.00  0.00    -0.168 NA
HETATM   14  C   UNL     1       7.773  26.275  57.679  1.00  0.00     0.032 A 
BRANCH   9  15
HETATM   15  C   UNL     1       6.432  24.883  52.670  1.00  0.00     0.270 C 
HETATM   16  N   UNL     1       7.240  25.216  51.618  1.00  0.00    -0.365 N 
HETATM   17  H   UNL     1       8.244  25.221  51.759  1.00  0.00     0.159 HD
HETATM   18  H   UNL     1       6.831  25.432  50.723  1.00  0.00     0.159 HD
HETATM   19  O   UNL     1       5.212  24.854  52.545  1.00  0.00    -0.266 OA
ENDBRANCH   9  15
ENDBRANCH   2   5
BRANCH   1  20
HETATM   20  C   UNL     1       6.446  30.582  58.133  1.00  0.00     0.278 C 
BRANCH  20  21
HETATM   21  O   UNL     1       7.299  31.707  58.309  1.00  0.00    -0.342 OA
BRANCH  21  22
HETATM   22  C   UNL     1       7.806  31.844  59.579  1.00  0.00     0.075 A 
HETATM   23  C   UNL     1       9.201  31.783  59.717  1.00  0.00    -0.029 A 
HETATM   24  C   UNL     1      10.094  31.548  58.531  1.00  0.00     0.051 C 
HETATM   25  C   UNL     1       9.769  31.960  60.987  1.00  0.00     0.010 A 
HETATM   26  C   UNL     1       8.962  32.185  62.104  1.00  0.00     0.008 A 
HETATM   27  C   UNL     1       7.570  32.253  61.977  1.00  0.00    -0.052 A 
HETATM   28  C   UNL     1       7.004  32.084  60.702  1.00  0.00     0.044 A 
BRANCH  27  29
HETATM   29  C   UNL     1       6.707  32.496  63.204  1.00  0.00     0.010 C 
HETATM   30  C   UNL     1       7.498  33.146  64.343  1.00  0.00     0.015 C 
HETATM   31  C   UNL     1       5.474  33.332  62.851  1.00  0.00     0.015 C 
ENDBRANCH  27  29
ENDBRANCH  21  22
ENDBRANCH  20  21
ENDBRANCH   1  20
TORSDOF 6
ENDMDL
MODEL 6
REMARK VINA RESULT:      -8.9      3.322      6.251
REMARK  6 active torsions:
REMARK  status: ('A' for Active; 'I' for Inactive)
REMARK    1  A    between atoms: C_3  and  O_4 
REMARK    2  A    between atoms: O_4  and  C_5 
REMARK    3  A    between atoms: C_5  and  C_6 
REMARK       I    between atoms: C_6  and  N_7 
REMARK    4  A    between atoms: N_7  and  C_8 
REMARK    5  A    between atoms: C_15  and  C_16 
REMARK       I    between atoms: C_16  and  N_17 
REMARK    6  A    between atoms: C_23  and  C_24 
ROOT
HETATM    1  C   UNL     1       8.386  31.377  59.978  1.00  0.00     0.246 C 
HETATM    2  N   UNL     1       7.695  31.015  61.127  1.00  0.00    -0.325 N 
HETATM    3  O   UNL     1       8.762  32.504  59.679  1.00  0.00    -0.271 OA
HETATM    4  H   UNL     1       7.540  30.024  61.264  1.00  0.00     0.169 HD
ENDROOT
BRANCH   2   5
HETATM    5  C   UNL     1       7.174  31.870  62.123  1.00  0.00     0.035 A 
HETATM    6  C   UNL     1       5.852  32.335  62.139  1.00  0.00     0.046 A 
HETATM    7  C   UNL     1       5.412  33.162  63.196  1.00  0.00     0.030 A 
HETATM    8  C   UNL     1       6.307  33.491  64.206  1.00  0.00     0.063 A 
HETATM    9  C   UNL     1       4.193  33.813  63.555  1.00  0.00     0.156 A 
HETATM   10  N   UNL     1       5.600  34.278  65.073  1.00  0.00    -0.277 N 
HETATM   11  C   UNL     1       7.631  33.052  64.224  1.00  0.00     0.034 A 
HETATM   12  H   UNL     1       5.936  34.697  65.933  1.00  0.00     0.189 HD
HETATM   13  N   UNL     1       4.325  34.498  64.714  1.00  0.00    -0.168 NA
HETATM   14  C   UNL     1       8.045  32.239  63.159  1.00  0.00     0.032 A 
BRANCH   9  15
HETATM   15  C   UNL     1       2.917  33.798  62.822  1.00  0.00     0.270 C 
HETATM   16  N   UNL     1       1.812  33.755  63.627  1.00  0.00    -0.365 N 
HETATM   17  H   UNL     1       1.943  33.742  64.632  1.00  0.00     0.159 HD
HETATM   18  H   UNL     1       0.894  33.754  63.213  1.00  0.00     0.159 HD
HETATM   19  O   UNL     1       2.810  33.824  61.601  1.00  0.00    -0.266 OA
ENDBRANCH   9  15
ENDBRANCH   2   5
BRANCH   1  20
HETATM   20  C   UNL     1       8.610  30.200  59.029  1.00  0.00     0.278 C 
BRANCH  20  21
HETATM   21  O   UNL     1       7.813  30.350  57.860  1.00  0.00    -0.342 OA
BRANCH  21  22
HETATM   22  C   UNL     1       7.129  29.218  57.486  1.00  0.00     0.075 A 
HETATM   23  C   UNL     1       5.734  29.321  57.387  1.00  0.00    -0.029 A 
HETATM   24  C   UNL     1       5.020  30.604  57.706  1.00  0.00     0.051 C 
HETATM   25  C   UNL     1       4.996  28.204  56.968  1.00  0.00     0.010 A 
HETATM   26  C   UNL     1       5.636  27.001  56.661  1.00  0.00     0.008 A 
HETATM   27  C   UNL     1       7.028  26.889  56.751  1.00  0.00    -0.052 A 
HETATM   28  C   UNL     1       7.765  28.012  57.163  1.00  0.00     0.044 A 
BRANCH  27  29
HETATM   29  C   UNL     1       7.706  25.572  56.414  1.00  0.00     0.010 C 
HETATM   30  C   UNL     1       8.576  25.062  57.567  1.00  0.00     0.015 C 
HETATM   31  C   UNL     1       6.679  24.516  55.998  1.00  0.00     0.015 C 
ENDBRANCH  27  29
ENDBRANCH  21  22
ENDBRANCH  20  21
ENDBRANCH   1  20
TORSDOF 6
ENDMDL
MODEL 7
REMARK VINA RESULT:      -8.9      1.766      3.131
REMARK  6 active torsions:
REMARK  status: ('A' for Active; 'I' for Inactive)
REMARK    1  A    between atoms: C_3  and  O_4 
REMARK    2  A    between atoms: O_4  and  C_5 
REMARK    3  A    between atoms: C_5  and  C_6 
REMARK       I    between atoms: C_6  and  N_7 
REMARK    4  A    between atoms: N_7  and  C_8 
REMARK    5  A    between atoms: C_15  and  C_16 
REMARK       I    between atoms: C_16  and  N_17 
REMARK    6  A    between atoms: C_23  and  C_24 
ROOT
HETATM    1  C   UNL     1       8.121  25.781  57.617  1.00  0.00     0.246 C 
HETATM    2  N   UNL     1       7.996  26.883  56.782  1.00  0.00    -0.325 N 
HETATM    3  O   UNL     1       7.697  25.683  58.763  1.00  0.00    -0.271 OA
HETATM    4  H   UNL     1       8.322  26.765  55.831  1.00  0.00     0.169 HD
ENDROOT
BRANCH   2   5
HETATM    5  C   UNL     1       7.473  28.154  57.107  1.00  0.00     0.035 A 
HETATM    6  C   UNL     1       8.030  29.002  58.075  1.00  0.00     0.046 A 
HETATM    7  C   UNL     1       7.457  30.271  58.309  1.00  0.00     0.030 A 
HETATM    8  C   UNL     1       6.348  30.653  57.563  1.00  0.00     0.063 A 
HETATM    9  C   UNL     1       7.720  31.377  59.173  1.00  0.00     0.156 A 
HETATM   10  N   UNL     1       6.033  31.910  58.001  1.00  0.00    -0.277 N 
HETATM   11  C   UNL     1       5.763  29.836  56.595  1.00  0.00     0.034 A 
HETATM   12  H   UNL     1       5.278  32.502  57.673  1.00  0.00     0.189 HD
HETATM   13  N   UNL     1       6.833  32.378  58.972  1.00  0.00    -0.168 NA
HETATM   14  C   UNL     1       6.346  28.579  56.388  1.00  0.00     0.032 A 
BRANCH   9  15
HETATM   15  C   UNL     1       8.787  31.497  60.178  1.00  0.00     0.270 C 
HETATM   16  N   UNL     1       8.701  30.585  61.194  1.00  0.00    -0.365 N 
HETATM   17  H   UNL     1       7.942  29.913  61.182  1.00  0.00     0.159 HD
HETATM   18  H   UNL     1       9.396  30.585  61.923  1.00  0.00     0.159 HD
HETATM   19  O   UNL     1       9.691  32.324  60.144  1.00  0.00    -0.266 OA
ENDBRANCH   9  15
ENDBRANCH   2   5
BRANCH   1  20
HETATM   20  C   UNL     1       8.923  24.646  56.981  1.00  0.00     0.278 C 
BRANCH  20  21
HETATM   21  O   UNL     1       8.053  23.598  56.569  1.00  0.00    -0.342 OA
BRANCH  21  22
HETATM   22  C   UNL     1       7.672  23.659  55.250  1.00  0.00     0.075 A 
HETATM   23  C   UNL     1       8.379  22.854  54.344  1.00  0.00    -0.029 A 
HETATM   24  C   UNL     1       9.522  21.989  54.795  1.00  0.00     0.051 C 
HETATM   25  C   UNL     1       7.998  22.850  52.994  1.00  0.00     0.010 A 
HETATM   26  C   UNL     1       6.936  23.641  52.550  1.00  0.00     0.008 A 
HETATM   27  C   UNL     1       6.221  24.444  53.446  1.00  0.00    -0.052 A 
HETATM   28  C   UNL     1       6.599  24.439  54.800  1.00  0.00     0.044 A 
BRANCH  27  29
HETATM   29  C   UNL     1       5.069  25.299  52.945  1.00  0.00     0.010 C 
HETATM   30  C   UNL     1       5.029  26.668  53.630  1.00  0.00     0.015 C 
HETATM   31  C   UNL     1       5.121  25.453  51.423  1.00  0.00     0.015 C 
ENDBRANCH  27  29
ENDBRANCH  21  22
ENDBRANCH  20  21
ENDBRANCH   1  20
TORSDOF 6
ENDMDL
MODEL 8
REMARK VINA RESULT:      -8.5      5.686      8.779
REMARK  6 active torsions:
REMARK  status: ('A' for Active; 'I' for Inactive)
REMARK    1  A    between atoms: C_3  and  O_4 
REMARK    2  A    between atoms: O_4  and  C_5 
REMARK    3  A    between atoms: C_5  and  C_6 
REMARK       I    between atoms: C_6  and  N_7 
REMARK    4  A    between atoms: N_7  and  C_8 
REMARK    5  A    between atoms: C_15  and  C_16 
REMARK       I    between atoms: C_16  and  N_17 
REMARK    6  A    between atoms: C_23  and  C_24 
ROOT
HETATM    1  C   UNL     1       5.693  26.085  51.539  1.00  0.00     0.246 C 
HETATM    2  N   UNL     1       5.662  26.097  50.151  1.00  0.00    -0.325 N 
HETATM    3  O   UNL     1       4.845  26.551  52.291  1.00  0.00    -0.271 OA
HETATM    4  H   UNL     1       6.398  25.585  49.681  1.00  0.00     0.169 HD
ENDROOT
BRANCH   2   5
HETATM    5  C   UNL     1       4.726  26.748  49.317  1.00  0.00     0.035 A 
HETATM    6  C   UNL     1       4.776  28.114  49.008  1.00  0.00     0.046 A 
HETATM    7  C   UNL     1       3.814  28.671  48.137  1.00  0.00     0.030 A 
HETATM    8  C   UNL     1       2.837  27.843  47.599  1.00  0.00     0.063 A 
HETATM    9  C   UNL     1       3.538  29.965  47.600  1.00  0.00     0.156 A 
HETATM   10  N   UNL     1       2.073  28.651  46.803  1.00  0.00    -0.277 N 
HETATM   11  C   UNL     1       2.752  26.480  47.886  1.00  0.00     0.034 A 
HETATM   12  H   UNL     1       1.270  28.382  46.248  1.00  0.00     0.189 HD
HETATM   13  N   UNL     1       2.461  29.937  46.781  1.00  0.00    -0.168 NA
HETATM   14  C   UNL     1       3.714  25.953  48.759  1.00  0.00     0.032 A 
BRANCH   9  15
HETATM   15  C   UNL     1       4.269  31.216  47.851  1.00  0.00     0.270 C 
HETATM   16  N   UNL     1       3.976  31.803  49.051  1.00  0.00    -0.365 N 
HETATM   17  H   UNL     1       3.308  31.349  49.664  1.00  0.00     0.159 HD
HETATM   18  H   UNL     1       4.439  32.658  49.314  1.00  0.00     0.159 HD
HETATM   19  O   UNL     1       5.077  31.722  47.080  1.00  0.00    -0.266 OA
ENDBRANCH   9  15
ENDBRANCH   2   5
BRANCH   1  20
HETATM   20  C   UNL     1       6.970  25.453  52.095  1.00  0.00     0.278 C 
BRANCH  20  21
HETATM   21  O   UNL     1       7.143  25.813  53.461  1.00  0.00    -0.342 OA
BRANCH  21  22
HETATM   22  C   UNL     1       7.430  24.760  54.296  1.00  0.00     0.075 A 
HETATM   23  C   UNL     1       7.642  25.060  55.649  1.00  0.00    -0.029 A 
HETATM   24  C   UNL     1       7.590  26.474  56.153  1.00  0.00     0.051 C 
HETATM   25  C   UNL     1       7.895  24.013  56.549  1.00  0.00     0.010 A 
HETATM   26  C   UNL     1       7.944  22.689  56.107  1.00  0.00     0.008 A 
HETATM   27  C   UNL     1       7.728  22.378  54.759  1.00  0.00    -0.052 A 
HETATM   28  C   UNL     1       7.466  23.428  53.862  1.00  0.00     0.044 A 
BRANCH  27  29
HETATM   29  C   UNL     1       7.786  20.932  54.296  1.00  0.00     0.010 C 
HETATM   30  C   UNL     1       8.249  20.813  52.841  1.00  0.00     0.015 C 
HETATM   31  C   UNL     1       8.673  20.095  55.221  1.00  0.00     0.015 C 
ENDBRANCH  27  29
ENDBRANCH  21  22
ENDBRANCH  20  21
ENDBRANCH   1  20
TORSDOF 6
ENDMDL
MODEL 9
REMARK VINA RESULT:      -8.4      3.057      9.500
REMARK  6 active torsions:
REMARK  status: ('A' for Active; 'I' for Inactive)
REMARK    1  A    between atoms: C_3  and  O_4 
REMARK    2  A    between atoms: O_4  and  C_5 
REMARK    3  A    between atoms: C_5  and  C_6 
REMARK       I    between atoms: C_6  and  N_7 
REMARK    4  A    between atoms: N_7  and  C_8 
REMARK    5  A    between atoms: C_15  and  C_16 
REMARK       I    between atoms: C_16  and  N_17 
REMARK    6  A    between atoms: C_23  and  C_24 
ROOT
HETATM    1  C   UNL     1       5.243  30.663  57.505  1.00  0.00     0.246 C 
HETATM    2  N   UNL     1       5.930  30.163  56.407  1.00  0.00    -0.325 N 
HETATM    3  O   UNL     1       4.171  30.259  57.941  1.00  0.00    -0.271 OA
HETATM    4  H   UNL     1       6.849  30.552  56.237  1.00  0.00     0.169 HD
ENDROOT
BRANCH   2   5
HETATM    5  C   UNL     1       5.491  29.179  55.494  1.00  0.00     0.035 A 
HETATM    6  C   UNL     1       5.889  27.835  55.544  1.00  0.00     0.046 A 
HETATM    7  C   UNL     1       5.371  26.915  54.607  1.00  0.00     0.030 A 
HETATM    8  C   UNL     1       4.468  27.367  53.653  1.00  0.00     0.063 A 
HETATM    9  C   UNL     1       5.526  25.521  54.339  1.00  0.00     0.156 A 
HETATM   10  N   UNL     1       4.145  26.266  52.909  1.00  0.00    -0.277 N 
HETATM   11  C   UNL     1       4.051  28.696  53.568  1.00  0.00     0.034 A 
HETATM   12  H   UNL     1       3.504  26.222  52.125  1.00  0.00     0.189 HD
HETATM   13  N   UNL     1       4.764  25.137  53.289  1.00  0.00    -0.168 NA
HETATM   14  C   UNL     1       4.586  29.591  54.505  1.00  0.00     0.032 A 
BRANCH   9  15
HETATM   15  C   UNL     1       6.377  24.558  55.053  1.00  0.00     0.270 C 
HETATM   16  N   UNL     1       7.145  23.778  54.234  1.00  0.00    -0.365 N 
HETATM   17  H   UNL     1       7.082  23.916  53.232  1.00  0.00     0.159 HD
HETATM   18  H   UNL     1       7.769  23.097  54.636  1.00  0.00     0.159 HD
HETATM   19  O   UNL     1       6.425  24.435  56.272  1.00  0.00    -0.266 OA
ENDBRANCH   9  15
ENDBRANCH   2   5
BRANCH   1  20
HETATM   20  C   UNL     1       5.941  31.867  58.140  1.00  0.00     0.278 C 
BRANCH  20  21
HETATM   21  O   UNL     1       7.340  31.628  58.243  1.00  0.00    -0.342 OA
BRANCH  21  22
HETATM   22  C   UNL     1       7.859  31.816  59.501  1.00  0.00     0.075 A 
HETATM   23  C   UNL     1       9.254  31.749  59.630  1.00  0.00    -0.029 A 
HETATM   24  C   UNL     1      10.135  31.452  58.450  1.00  0.00     0.051 C 
HETATM   25  C   UNL     1       9.834  31.978  60.887  1.00  0.00     0.010 A 
HETATM   26  C   UNL     1       9.038  32.261  61.999  1.00  0.00     0.008 A 
HETATM   27  C   UNL     1       7.646  32.336  61.880  1.00  0.00    -0.052 A 
HETATM   28  C   UNL     1       7.068  32.115  60.618  1.00  0.00     0.044 A 
BRANCH  27  29
HETATM   29  C   UNL     1       6.796  32.643  63.101  1.00  0.00     0.010 C 
HETATM   30  C   UNL     1       7.642  33.114  64.287  1.00  0.00     0.015 C 
HETATM   31  C   UNL     1       5.706  33.665  62.769  1.00  0.00     0.015 C 
ENDBRANCH  27  29
ENDBRANCH  21  22
ENDBRANCH  20  21
ENDBRANCH   1  20
TORSDOF 6
ENDMDL
MODEL 10
REMARK VINA RESULT:      -8.1      3.451      9.477
REMARK  6 active torsions:
REMARK  status: ('A' for Active; 'I' for Inactive)
REMARK    1  A    between atoms: C_3  and  O_4 
REMARK    2  A    between atoms: O_4  and  C_5 
REMARK    3  A    between atoms: C_5  and  C_6 
REMARK       I    between atoms: C_6  and  N_7 
REMARK    4  A    between atoms: N_7  and  C_8 
REMARK    5  A    between atoms: C_15  and  C_16 
REMARK       I    between atoms: C_16  and  N_17 
REMARK    6  A    between atoms: C_23  and  C_24 
ROOT
HETATM    1  C   UNL     1       5.405  30.796  57.646  1.00  0.00     0.246 C 
HETATM    2  N   UNL     1       6.291  29.750  57.870  1.00  0.00    -0.325 N 
HETATM    3  O   UNL     1       4.512  30.828  56.808  1.00  0.00    -0.271 OA
HETATM    4  H   UNL     1       6.910  29.849  58.665  1.00  0.00     0.169 HD
ENDROOT
BRANCH   2   5
HETATM    5  C   UNL     1       6.434  28.568  57.111  1.00  0.00     0.035 A 
HETATM    6  C   UNL     1       5.754  28.325  55.909  1.00  0.00     0.046 A 
HETATM    7  C   UNL     1       5.987  27.126  55.201  1.00  0.00     0.030 A 
HETATM    8  C   UNL     1       6.897  26.211  55.715  1.00  0.00     0.063 A 
HETATM    9  C   UNL     1       5.509  26.534  53.993  1.00  0.00     0.156 A 
HETATM   10  N   UNL     1       6.914  25.176  54.821  1.00  0.00    -0.277 N 
HETATM   11  C   UNL     1       7.590  26.414  56.909  1.00  0.00     0.034 A 
HETATM   12  H   UNL     1       7.472  24.331  54.872  1.00  0.00     0.189 HD
HETATM   13  N   UNL     1       6.089  25.332  53.773  1.00  0.00    -0.168 NA
HETATM   14  C   UNL     1       7.335  27.609  57.596  1.00  0.00     0.032 A 
BRANCH   9  15
HETATM   15  C   UNL     1       4.519  27.083  53.054  1.00  0.00     0.270 C 
HETATM   16  N   UNL     1       4.705  26.694  51.756  1.00  0.00    -0.365 N 
HETATM   17  H   UNL     1       5.478  26.075  51.541  1.00  0.00     0.159 HD
HETATM   18  H   UNL     1       4.067  27.012  51.045  1.00  0.00     0.159 HD
HETATM   19  O   UNL     1       3.593  27.824  53.366  1.00  0.00    -0.266 OA
ENDBRANCH   9  15
ENDBRANCH   2   5
BRANCH   1  20
HETATM   20  C   UNL     1       5.678  32.003  58.545  1.00  0.00     0.278 C 
BRANCH  20  21
HETATM   21  O   UNL     1       7.077  32.246  58.633  1.00  0.00    -0.342 OA
BRANCH  21  22
HETATM   22  C   UNL     1       7.570  32.277  59.916  1.00  0.00     0.075 A 
HETATM   23  C   UNL     1       8.879  31.809  60.106  1.00  0.00    -0.029 A 
HETATM   24  C   UNL     1       9.690  31.270  58.961  1.00  0.00     0.051 C 
HETATM   25  C   UNL     1       9.442  31.861  61.390  1.00  0.00     0.010 A 
HETATM   26  C   UNL     1       8.711  32.361  62.469  1.00  0.00     0.008 A 
HETATM   27  C   UNL     1       7.407  32.836  62.290  1.00  0.00    -0.052 A 
HETATM   28  C   UNL     1       6.849  32.791  61.001  1.00  0.00     0.044 A 
BRANCH  27  29
HETATM   29  C   UNL     1       6.626  33.376  63.476  1.00  0.00     0.010 C 
HETATM   30  C   UNL     1       5.303  32.632  63.681  1.00  0.00     0.015 C 
HETATM   31  C   UNL     1       7.473  33.343  64.751  1.00  0.00     0.015 C 
ENDBRANCH  27  29
ENDBRANCH  21  22
ENDBRANCH  20  21
ENDBRANCH   1  20
TORSDOF 6
ENDMDL
