MODEL 1
REMARK VINA RESULT:      -9.8      0.000      0.000
REMARK  7 active torsions:
REMARK  status: ('A' for Active; 'I' for Inactive)
REMARK    1  A    between atoms: C_2  and  O_3 
REMARK    2  A    between atoms: O_3  and  C_4 
REMARK    3  A    between atoms: C_7  and  N_8 
REMARK       I    between atoms: N_8  and  C_9 
REMARK    4  A    between atoms: C_9  and  C_10 
REMARK    5  A    between atoms: C_10  and  S_11 
REMARK    6  A    between atoms: S_11  and  C_12 
REMARK    7  A    between atoms: N_13  and  C_14 
ROOT
HETATM    1  C   UNL     1       7.247  29.207  56.260  1.00  0.00     0.178 A 
HETATM    2  N   UNL     1       6.502  27.999  56.293  1.00  0.00    -0.255 N 
HETATM    3  C   UNL     1       5.090  28.008  56.352  1.00  0.00     0.270 A 
HETATM    4  O   UNL     1       4.359  27.023  56.349  1.00  0.00    -0.266 OA
HETATM    5  C   UNL     1       4.544  29.331  56.448  1.00  0.00     0.099 A 
HETATM    6  C   UNL     1       5.388  30.405  56.451  1.00  0.00     0.164 A 
HETATM    7  N   UNL     1       4.592  31.508  56.541  1.00  0.00    -0.260 N 
HETATM    8  H   UNL     1       4.879  32.480  56.552  1.00  0.00     0.191 HD
HETATM    9  N   UNL     1       3.277  31.207  56.624  1.00  0.00    -0.184 NA
HETATM   10  C   UNL     1       3.256  29.868  56.561  1.00  0.00     0.159 A 
HETATM   11  N   UNL     1       6.731  30.403  56.360  1.00  0.00    -0.204 NA
ENDROOT
BRANCH   1  12
HETATM   12  S   UNL     1       9.002  29.123  56.089  1.00  0.00    -0.082 SA
BRANCH  12  13
HETATM   13  C   UNL     1       9.551  29.403  57.794  1.00  0.00     0.185 C 
BRANCH  13  14
HETATM   14  C   UNL     1      10.376  30.669  57.875  1.00  0.00     0.231 C 
HETATM   15  N   UNL     1      10.025  31.719  58.674  1.00  0.00    -0.327 N 
HETATM   16  H   UNL     1      10.577  32.539  58.443  1.00  0.00     0.169 HD
HETATM   17  O   UNL     1      11.374  30.812  57.154  1.00  0.00    -0.272 OA
BRANCH  15  18
HETATM   18  C   UNL     1       9.119  31.877  59.739  1.00  0.00     0.034 A 
HETATM   19  C   UNL     1       7.740  32.008  59.607  1.00  0.00     0.032 A 
HETATM   20  C   UNL     1       6.924  32.128  60.740  1.00  0.00     0.039 A 
HETATM   21  C   UNL     1       7.467  32.092  62.024  1.00  0.00     0.068 A 
HETATM   22  C   UNL     1       8.843  31.946  62.167  1.00  0.00     0.039 A 
HETATM   23  C   UNL     1       9.658  31.830  61.033  1.00  0.00     0.032 A 
BRANCH  21  24
HETATM   24  O   UNL     1       6.555  32.207  63.034  1.00  0.00    -0.352 OA
BRANCH  24  25
HETATM   25  C   UNL     1       6.400  33.498  63.622  1.00  0.00     0.171 C 
HETATM   26  C   UNL     1       7.173  33.511  64.929  1.00  0.00     0.034 C 
ENDBRANCH  24  25
ENDBRANCH  21  24
ENDBRANCH  15  18
ENDBRANCH  13  14
ENDBRANCH  12  13
ENDBRANCH   1  12
BRANCH   2  27
HETATM   27  C   UNL     1       7.120  26.707  56.261  1.00  0.00     0.056 A 
HETATM   28  C   UNL     1       7.337  25.999  55.042  1.00  0.00     0.002 A 
HETATM   29  C   UNL     1       7.928  24.712  55.109  1.00  0.00    -0.024 A 
HETATM   30  C   UNL     1       7.029  26.507  53.754  1.00  0.00     0.014 A 
HETATM   31  C   UNL     1       8.131  23.967  53.936  1.00  0.00     0.012 A 
HETATM   32  C   UNL     1       8.326  24.187  56.348  1.00  0.00     0.012 A 
HETATM   33  C   UNL     1       7.778  24.479  52.689  1.00  0.00     0.001 A 
HETATM   34  C   UNL     1       7.235  25.753  52.597  1.00  0.00     0.001 A 
HETATM   35  C   UNL     1       8.156  24.911  57.525  1.00  0.00     0.003 A 
HETATM   36  C   UNL     1       7.556  26.164  57.482  1.00  0.00     0.031 A 
ENDBRANCH   2  27
TORSDOF 7
ENDMDL
MODEL 2
REMARK VINA RESULT:      -9.6      0.840      2.083
REMARK  7 active torsions:
REMARK  status: ('A' for Active; 'I' for Inactive)
REMARK    1  A    between atoms: C_2  and  O_3 
REMARK    2  A    between atoms: O_3  and  C_4 
REMARK    3  A    between atoms: C_7  and  N_8 
REMARK       I    between atoms: N_8  and  C_9 
REMARK    4  A    between atoms: C_9  and  C_10 
REMARK    5  A    between atoms: C_10  and  S_11 
REMARK    6  A    between atoms: S_11  and  C_12 
REMARK    7  A    between atoms: N_13  and  C_14 
ROOT
HETATM    1  C   UNL     1       7.033  29.488  56.264  1.00  0.00     0.178 A 
HETATM    2  N   UNL     1       6.148  28.638  55.551  1.00  0.00    -0.255 N 
HETATM    3  C   UNL     1       4.747  28.812  55.620  1.00  0.00     0.270 A 
HETATM    4  O   UNL     1       3.905  28.155  55.017  1.00  0.00    -0.266 OA
HETATM    5  C   UNL     1       4.359  29.858  56.522  1.00  0.00     0.099 A 
HETATM    6  C   UNL     1       5.323  30.567  57.179  1.00  0.00     0.164 A 
HETATM    7  N   UNL     1       4.662  31.482  57.944  1.00  0.00    -0.260 N 
HETATM    8  H   UNL     1       5.062  32.188  58.551  1.00  0.00     0.191 HD
HETATM    9  N   UNL     1       3.317  31.387  57.838  1.00  0.00    -0.184 NA
HETATM   10  C   UNL     1       3.140  30.390  56.959  1.00  0.00     0.159 A 
HETATM   11  N   UNL     1       6.659  30.427  57.090  1.00  0.00    -0.204 NA
ENDROOT
BRANCH   1  12
HETATM   12  S   UNL     1       8.773  29.274  56.056  1.00  0.00    -0.082 SA
BRANCH  12  13
HETATM   13  C   UNL     1       9.365  29.391  57.765  1.00  0.00     0.185 C 
BRANCH  13  14
HETATM   14  C   UNL     1      10.180  30.652  57.950  1.00  0.00     0.231 C 
HETATM   15  N   UNL     1       9.866  31.592  58.891  1.00  0.00    -0.327 N 
HETATM   16  H   UNL     1      10.395  32.444  58.729  1.00  0.00     0.169 HD
HETATM   17  O   UNL     1      11.130  30.899  57.195  1.00  0.00    -0.272 OA
BRANCH  15  18
HETATM   18  C   UNL     1       9.025  31.604  60.019  1.00  0.00     0.034 A 
HETATM   19  C   UNL     1       9.314  31.004  61.241  1.00  0.00     0.032 A 
HETATM   20  C   UNL     1       8.416  31.104  62.312  1.00  0.00     0.039 A 
HETATM   21  C   UNL     1       7.230  31.825  62.191  1.00  0.00     0.068 A 
HETATM   22  C   UNL     1       6.939  32.442  60.979  1.00  0.00     0.039 A 
HETATM   23  C   UNL     1       7.836  32.338  59.906  1.00  0.00     0.032 A 
BRANCH  21  24
HETATM   24  O   UNL     1       6.457  31.850  63.317  1.00  0.00    -0.352 OA
BRANCH  24  25
HETATM   25  C   UNL     1       6.151  33.131  63.865  1.00  0.00     0.171 C 
HETATM   26  C   UNL     1       7.276  33.517  64.807  1.00  0.00     0.034 C 
ENDBRANCH  24  25
ENDBRANCH  21  24
ENDBRANCH  15  18
ENDBRANCH  13  14
ENDBRANCH  12  13
ENDBRANCH   1  12
BRANCH   2  27
HETATM   27  C   UNL     1       6.606  27.567  54.717  1.00  0.00     0.056 A 
HETATM   28  C   UNL     1       6.957  26.289  55.245  1.00  0.00     0.002 A 
HETATM   29  C   UNL     1       7.429  25.298  54.346  1.00  0.00    -0.024 A 
HETATM   30  C   UNL     1       6.837  25.926  56.610  1.00  0.00     0.014 A 
HETATM   31  C   UNL     1       7.815  24.037  54.827  1.00  0.00     0.012 A 
HETATM   32  C   UNL     1       7.496  25.572  52.972  1.00  0.00     0.012 A 
HETATM   33  C   UNL     1       7.725  23.726  56.183  1.00  0.00     0.001 A 
HETATM   34  C   UNL     1       7.227  24.667  57.074  1.00  0.00     0.001 A 
HETATM   35  C   UNL     1       7.100  26.807  52.464  1.00  0.00     0.003 A 
HETATM   36  C   UNL     1       6.658  27.799  53.331  1.00  0.00     0.031 A 
ENDBRANCH   2  27
TORSDOF 7
ENDMDL
MODEL 3
REMARK VINA RESULT:      -9.2      3.941      7.753
REMARK  7 active torsions:
REMARK  status: ('A' for Active; 'I' for Inactive)
REMARK    1  A    between atoms: C_2  and  O_3 
REMARK    2  A    between atoms: O_3  and  C_4 
REMARK    3  A    between atoms: C_7  and  N_8 
REMARK       I    between atoms: N_8  and  C_9 
REMARK    4  A    between atoms: C_9  and  C_10 
REMARK    5  A    between atoms: C_10  and  S_11 
REMARK    6  A    between atoms: S_11  and  C_12 
REMARK    7  A    between atoms: N_13  and  C_14 
ROOT
HETATM    1  C   UNL     1       4.940  29.573  54.169  1.00  0.00     0.178 A 
HETATM    2  N   UNL     1       5.344  29.610  55.530  1.00  0.00    -0.255 N 
HETATM    3  C   UNL     1       4.625  30.359  56.489  1.00  0.00     0.270 A 
HETATM    4  O   UNL     1       4.873  30.426  57.689  1.00  0.00    -0.266 OA
HETATM    5  C   UNL     1       3.537  31.099  55.918  1.00  0.00     0.099 A 
HETATM    6  C   UNL     1       3.292  31.003  54.579  1.00  0.00     0.164 A 
HETATM    7  N   UNL     1       2.211  31.797  54.335  1.00  0.00    -0.260 N 
HETATM    8  H   UNL     1       1.742  31.952  53.450  1.00  0.00     0.191 HD
HETATM    9  N   UNL     1       1.757  32.425  55.443  1.00  0.00    -0.184 NA
HETATM   10  C   UNL     1       2.573  31.987  56.411  1.00  0.00     0.159 A 
HETATM   11  N   UNL     1       3.953  30.265  53.667  1.00  0.00    -0.204 NA
ENDROOT
BRANCH   1  12
HETATM   12  S   UNL     1       5.827  28.541  53.045  1.00  0.00    -0.082 SA
BRANCH  12  13
HETATM   13  C   UNL     1       4.497  27.943  51.968  1.00  0.00     0.185 C 
BRANCH  13  14
HETATM   14  C   UNL     1       5.080  27.292  50.732  1.00  0.00     0.231 C 
HETATM   15  N   UNL     1       5.975  26.263  50.804  1.00  0.00    -0.327 N 
HETATM   16  H   UNL     1       6.399  26.099  49.896  1.00  0.00     0.169 HD
HETATM   17  O   UNL     1       4.805  27.728  49.606  1.00  0.00    -0.272 OA
BRANCH  15  18
HETATM   18  C   UNL     1       6.381  25.390  51.830  1.00  0.00     0.034 A 
HETATM   19  C   UNL     1       5.526  24.730  52.708  1.00  0.00     0.032 A 
HETATM   20  C   UNL     1       6.036  23.856  53.676  1.00  0.00     0.039 A 
HETATM   21  C   UNL     1       7.404  23.603  53.768  1.00  0.00     0.068 A 
HETATM   22  C   UNL     1       8.266  24.244  52.885  1.00  0.00     0.039 A 
HETATM   23  C   UNL     1       7.755  25.123  51.918  1.00  0.00     0.032 A 
BRANCH  21  24
HETATM   24  O   UNL     1       7.759  22.720  54.747  1.00  0.00    -0.352 OA
BRANCH  24  25
HETATM   25  C   UNL     1       8.659  21.675  54.382  1.00  0.00     0.171 C 
HETATM   26  C   UNL     1       7.908  20.701  53.493  1.00  0.00     0.034 C 
ENDBRANCH  24  25
ENDBRANCH  21  24
ENDBRANCH  15  18
ENDBRANCH  13  14
ENDBRANCH  12  13
ENDBRANCH   1  12
BRANCH   2  27
HETATM   27  C   UNL     1       6.485  28.895  56.019  1.00  0.00     0.056 A 
HETATM   28  C   UNL     1       6.410  27.528  56.420  1.00  0.00     0.002 A 
HETATM   29  C   UNL     1       7.585  26.911  56.921  1.00  0.00    -0.024 A 
HETATM   30  C   UNL     1       5.244  26.728  56.324  1.00  0.00     0.014 A 
HETATM   31  C   UNL     1       7.549  25.576  57.355  1.00  0.00     0.012 A 
HETATM   32  C   UNL     1       8.789  27.628  56.967  1.00  0.00     0.012 A 
HETATM   33  C   UNL     1       6.374  24.829  57.287  1.00  0.00     0.001 A 
HETATM   34  C   UNL     1       5.224  25.402  56.762  1.00  0.00     0.001 A 
HETATM   35  C   UNL     1       8.859  28.946  56.524  1.00  0.00     0.003 A 
HETATM   36  C   UNL     1       7.714  29.576  56.053  1.00  0.00     0.031 A 
ENDBRANCH   2  27
TORSDOF 7
ENDMDL
MODEL 4
REMARK VINA RESULT:      -9.1      2.246      9.224
REMARK  7 active torsions:
REMARK  status: ('A' for Active; 'I' for Inactive)
REMARK    1  A    between atoms: C_2  and  O_3 
REMARK    2  A    between atoms: O_3  and  C_4 
REMARK    3  A    between atoms: C_7  and  N_8 
REMARK       I    between atoms: N_8  and  C_9 
REMARK    4  A    between atoms: C_9  and  C_10 
REMARK    5  A    between atoms: C_10  and  S_11 
REMARK    6  A    between atoms: S_11  and  C_12 
REMARK    7  A    between atoms: N_13  and  C_14 
ROOT
HETATM    1  C   UNL     1       7.260  30.022  57.816  1.00  0.00     0.178 A 
HETATM    2  N   UNL     1       7.643  31.172  58.555  1.00  0.00    -0.255 N 
HETATM    3  C   UNL     1       8.992  31.588  58.621  1.00  0.00     0.270 A 
HETATM    4  O   UNL     1       9.416  32.583  59.201  1.00  0.00    -0.266 OA
HETATM    5  C   UNL     1       9.884  30.695  57.940  1.00  0.00     0.099 A 
HETATM    6  C   UNL     1       9.379  29.597  57.307  1.00  0.00     0.164 A 
HETATM    7  N   UNL     1      10.447  28.955  56.753  1.00  0.00    -0.260 N 
HETATM    8  H   UNL     1      10.441  28.110  56.194  1.00  0.00     0.191 HD
HETATM    9  N   UNL     1      11.624  29.566  57.016  1.00  0.00    -0.184 NA
HETATM   10  C   UNL     1      11.269  30.636  57.741  1.00  0.00     0.159 A 
HETATM   11  N   UNL     1       8.091  29.215  57.213  1.00  0.00    -0.204 NA
ENDROOT
BRANCH   1  12
HETATM   12  S   UNL     1       5.547  29.615  57.698  1.00  0.00    -0.082 SA
BRANCH  12  13
HETATM   13  C   UNL     1       5.616  27.880  57.180  1.00  0.00     0.185 C 
BRANCH  13  14
HETATM   14  C   UNL     1       4.834  27.686  55.898  1.00  0.00     0.231 C 
HETATM   15  N   UNL     1       5.220  26.798  54.935  1.00  0.00    -0.327 N 
HETATM   16  H   UNL     1       4.696  26.955  54.080  1.00  0.00     0.169 HD
HETATM   17  O   UNL     1       3.843  28.389  55.658  1.00  0.00    -0.272 OA
BRANCH  15  18
HETATM   18  C   UNL     1       6.129  25.725  54.903  1.00  0.00     0.034 A 
HETATM   19  C   UNL     1       6.187  24.693  55.836  1.00  0.00     0.032 A 
HETATM   20  C   UNL     1       7.115  23.654  55.691  1.00  0.00     0.039 A 
HETATM   21  C   UNL     1       7.981  23.609  54.600  1.00  0.00     0.068 A 
HETATM   22  C   UNL     1       7.921  24.627  53.653  1.00  0.00     0.039 A 
HETATM   23  C   UNL     1       6.995  25.669  53.801  1.00  0.00     0.032 A 
BRANCH  21  24
HETATM   24  O   UNL     1       8.821  22.533  54.579  1.00  0.00    -0.352 OA
BRANCH  24  25
HETATM   25  C   UNL     1       8.218  21.241  54.528  1.00  0.00     0.171 C 
HETATM   26  C   UNL     1       7.939  20.914  53.072  1.00  0.00     0.034 C 
ENDBRANCH  24  25
ENDBRANCH  21  24
ENDBRANCH  15  18
ENDBRANCH  13  14
ENDBRANCH  12  13
ENDBRANCH   1  12
BRANCH   2  27
HETATM   27  C   UNL     1       6.701  31.984  59.268  1.00  0.00     0.056 A 
HETATM   28  C   UNL     1       6.732  32.113  60.688  1.00  0.00     0.002 A 
HETATM   29  C   UNL     1       5.740  32.915  61.310  1.00  0.00    -0.024 A 
HETATM   30  C   UNL     1       7.708  31.518  61.526  1.00  0.00     0.014 A 
HETATM   31  C   UNL     1       5.714  33.045  62.708  1.00  0.00     0.012 A 
HETATM   32  C   UNL     1       4.793  33.592  60.527  1.00  0.00     0.012 A 
HETATM   33  C   UNL     1       6.665  32.412  63.507  1.00  0.00     0.001 A 
HETATM   34  C   UNL     1       7.668  31.656  62.915  1.00  0.00     0.001 A 
HETATM   35  C   UNL     1       4.808  33.498  59.138  1.00  0.00     0.003 A 
HETATM   36  C   UNL     1       5.756  32.698  58.512  1.00  0.00     0.031 A 
ENDBRANCH   2  27
TORSDOF 7
ENDMDL
MODEL 5
REMARK VINA RESULT:      -9.1      2.910      7.875
REMARK  7 active torsions:
REMARK  status: ('A' for Active; 'I' for Inactive)
REMARK    1  A    between atoms: C_2  and  O_3 
REMARK    2  A    between atoms: O_3  and  C_4 
REMARK    3  A    between atoms: C_7  and  N_8 
REMARK       I    between atoms: N_8  and  C_9 
REMARK    4  A    between atoms: C_9  and  C_10 
REMARK    5  A    between atoms: C_10  and  S_11 
REMARK    6  A    between atoms: S_11  and  C_12 
REMARK    7  A    between atoms: N_13  and  C_14 
ROOT
HETATM    1  C   UNL     1       6.010  27.962  56.469  1.00  0.00     0.178 A 
HETATM    2  N   UNL     1       6.092  29.378  56.493  1.00  0.00    -0.255 N 
HETATM    3  C   UNL     1       5.331  30.174  55.606  1.00  0.00     0.270 A 
HETATM    4  O   UNL     1       5.306  31.400  55.573  1.00  0.00    -0.266 OA
HETATM    5  C   UNL     1       4.565  29.395  54.676  1.00  0.00     0.099 A 
HETATM    6  C   UNL     1       4.618  28.033  54.741  1.00  0.00     0.164 A 
HETATM    7  N   UNL     1       3.795  27.576  53.755  1.00  0.00    -0.260 N 
HETATM    8  H   UNL     1       3.579  26.614  53.523  1.00  0.00     0.191 HD
HETATM    9  N   UNL     1       3.229  28.572  53.035  1.00  0.00    -0.184 NA
HETATM   10  C   UNL     1       3.704  29.685  53.611  1.00  0.00     0.159 A 
HETATM   11  N   UNL     1       5.315  27.271  55.605  1.00  0.00    -0.204 NA
ENDROOT
BRANCH   1  12
HETATM   12  S   UNL     1       6.914  27.035  57.668  1.00  0.00    -0.082 SA
BRANCH  12  13
HETATM   13  C   UNL     1       6.642  25.335  57.101  1.00  0.00     0.185 C 
BRANCH  13  14
HETATM   14  C   UNL     1       7.907  24.783  56.479  1.00  0.00     0.231 C 
HETATM   15  N   UNL     1       8.028  24.573  55.135  1.00  0.00    -0.327 N 
HETATM   16  H   UNL     1       8.855  24.019  54.937  1.00  0.00     0.169 HD
HETATM   17  O   UNL     1       8.857  24.440  57.195  1.00  0.00    -0.272 OA
BRANCH  15  18
HETATM   18  C   UNL     1       7.291  24.989  54.010  1.00  0.00     0.034 A 
HETATM   19  C   UNL     1       7.625  26.056  53.182  1.00  0.00     0.032 A 
HETATM   20  C   UNL     1       6.836  26.366  52.066  1.00  0.00     0.039 A 
HETATM   21  C   UNL     1       5.718  25.601  51.742  1.00  0.00     0.068 A 
HETATM   22  C   UNL     1       5.383  24.522  52.554  1.00  0.00     0.039 A 
HETATM   23  C   UNL     1       6.171  24.216  53.673  1.00  0.00     0.032 A 
BRANCH  21  24
HETATM   24  O   UNL     1       5.050  26.008  50.622  1.00  0.00    -0.352 OA
BRANCH  24  25
HETATM   25  C   UNL     1       5.214  27.370  50.230  1.00  0.00     0.171 C 
HETATM   26  C   UNL     1       3.932  27.816  49.550  1.00  0.00     0.034 C 
ENDBRANCH  24  25
ENDBRANCH  21  24
ENDBRANCH  15  18
ENDBRANCH  13  14
ENDBRANCH  12  13
ENDBRANCH   1  12
BRANCH   2  27
HETATM   27  C   UNL     1       6.932  30.091  57.410  1.00  0.00     0.056 A 
HETATM   28  C   UNL     1       8.353  30.094  57.293  1.00  0.00     0.002 A 
HETATM   29  C   UNL     1       9.105  30.802  58.265  1.00  0.00    -0.024 A 
HETATM   30  C   UNL     1       9.073  29.459  56.249  1.00  0.00     0.014 A 
HETATM   31  C   UNL     1      10.508  30.805  58.206  1.00  0.00     0.012 A 
HETATM   32  C   UNL     1       8.447  31.515  59.278  1.00  0.00     0.012 A 
HETATM   33  C   UNL     1      11.187  30.136  57.189  1.00  0.00     0.001 A 
HETATM   34  C   UNL     1      10.469  29.470  56.205  1.00  0.00     0.001 A 
HETATM   35  C   UNL     1       7.056  31.546  59.349  1.00  0.00     0.003 A 
HETATM   36  C   UNL     1       6.303  30.838  58.421  1.00  0.00     0.031 A 
ENDBRANCH   2  27
TORSDOF 7
ENDMDL
MODEL 6
REMARK VINA RESULT:      -9.0      3.926      9.353
REMARK  7 active torsions:
REMARK  status: ('A' for Active; 'I' for Inactive)
REMARK    1  A    between atoms: C_2  and  O_3 
REMARK    2  A    between atoms: O_3  and  C_4 
REMARK    3  A    between atoms: C_7  and  N_8 
REMARK       I    between atoms: N_8  and  C_9 
REMARK    4  A    between atoms: C_9  and  C_10 
REMARK    5  A    between atoms: C_10  and  S_11 
REMARK    6  A    between atoms: S_11  and  C_12 
REMARK    7  A    between atoms: N_13  and  C_14 
ROOT
HETATM    1  C   UNL     1       7.389  26.707  54.858  1.00  0.00     0.178 A 
HETATM    2  N   UNL     1       7.543  26.885  56.258  1.00  0.00    -0.255 N 
HETATM    3  C   UNL     1       7.904  25.809  57.101  1.00  0.00     0.270 A 
HETATM    4  O   UNL     1       8.096  25.869  58.311  1.00  0.00    -0.266 OA
HETATM    5  C   UNL     1       8.011  24.563  56.398  1.00  0.00     0.099 A 
HETATM    6  C   UNL     1       7.789  24.532  55.051  1.00  0.00     0.164 A 
HETATM    7  N   UNL     1       7.969  23.236  54.670  1.00  0.00    -0.260 N 
HETATM    8  H   UNL     1       7.901  22.850  53.735  1.00  0.00     0.191 HD
HETATM    9  N   UNL     1       8.270  22.417  55.702  1.00  0.00    -0.184 NA
HETATM   10  C   UNL     1       8.299  23.241  56.759  1.00  0.00     0.159 A 
HETATM   11  N   UNL     1       7.479  25.560  54.240  1.00  0.00    -0.204 NA
ENDROOT
BRANCH   1  12
HETATM   12  S   UNL     1       7.031  28.114  53.854  1.00  0.00    -0.082 SA
BRANCH  12  13
HETATM   13  C   UNL     1       5.227  28.014  53.712  1.00  0.00     0.185 C 
BRANCH  13  14
HETATM   14  C   UNL     1       4.653  29.379  53.397  1.00  0.00     0.231 C 
HETATM   15  N   UNL     1       4.347  29.766  52.123  1.00  0.00    -0.327 N 
HETATM   16  H   UNL     1       4.171  30.765  52.090  1.00  0.00     0.169 HD
HETATM   17  O   UNL     1       4.505  30.218  54.296  1.00  0.00    -0.272 OA
BRANCH  15  18
HETATM   18  C   UNL     1       4.192  29.081  50.904  1.00  0.00     0.034 A 
HETATM   19  C   UNL     1       2.975  28.697  50.349  1.00  0.00     0.032 A 
HETATM   20  C   UNL     1       2.932  28.044  49.110  1.00  0.00     0.039 A 
HETATM   21  C   UNL     1       4.099  27.789  48.391  1.00  0.00     0.068 A 
HETATM   22  C   UNL     1       5.319  28.182  48.929  1.00  0.00     0.039 A 
HETATM   23  C   UNL     1       5.361  28.832  50.172  1.00  0.00     0.032 A 
BRANCH  21  24
HETATM   24  O   UNL     1       3.907  27.160  47.194  1.00  0.00    -0.352 OA
BRANCH  24  25
HETATM   25  C   UNL     1       2.705  26.407  47.043  1.00  0.00     0.171 C 
HETATM   26  C   UNL     1       2.997  24.974  47.453  1.00  0.00     0.034 C 
ENDBRANCH  24  25
ENDBRANCH  21  24
ENDBRANCH  15  18
ENDBRANCH  13  14
ENDBRANCH  12  13
ENDBRANCH   1  12
BRANCH   2  27
HETATM   27  C   UNL     1       7.356  28.150  56.904  1.00  0.00     0.056 A 
HETATM   28  C   UNL     1       8.444  29.028  57.184  1.00  0.00     0.002 A 
HETATM   29  C   UNL     1       8.167  30.248  57.854  1.00  0.00    -0.024 A 
HETATM   30  C   UNL     1       9.790  28.782  56.811  1.00  0.00     0.014 A 
HETATM   31  C   UNL     1       9.212  31.128  58.177  1.00  0.00     0.012 A 
HETATM   32  C   UNL     1       6.844  30.584  58.180  1.00  0.00     0.012 A 
HETATM   33  C   UNL     1      10.531  30.835  57.833  1.00  0.00     0.001 A 
HETATM   34  C   UNL     1      10.819  29.667  57.141  1.00  0.00     0.001 A 
HETATM   35  C   UNL     1       5.786  29.741  57.853  1.00  0.00     0.003 A 
HETATM   36  C   UNL     1       6.040  28.531  57.219  1.00  0.00     0.031 A 
ENDBRANCH   2  27
TORSDOF 7
ENDMDL
MODEL 7
REMARK VINA RESULT:      -9.0      3.583      7.923
REMARK  7 active torsions:
REMARK  status: ('A' for Active; 'I' for Inactive)
REMARK    1  A    between atoms: C_2  and  O_3 
REMARK    2  A    between atoms: O_3  and  C_4 
REMARK    3  A    between atoms: C_7  and  N_8 
REMARK       I    between atoms: N_8  and  C_9 
REMARK    4  A    between atoms: C_9  and  C_10 
REMARK    5  A    between atoms: C_10  and  S_11 
REMARK    6  A    between atoms: S_11  and  C_12 
REMARK    7  A    between atoms: N_13  and  C_14 
ROOT
HETATM    1  C   UNL     1       7.455  26.235  54.809  1.00  0.00     0.178 A 
HETATM    2  N   UNL     1       7.430  26.479  56.207  1.00  0.00    -0.255 N 
HETATM    3  C   UNL     1       7.794  25.477  57.135  1.00  0.00     0.270 A 
HETATM    4  O   UNL     1       7.839  25.602  58.355  1.00  0.00    -0.266 OA
HETATM    5  C   UNL     1       8.100  24.223  56.510  1.00  0.00     0.099 A 
HETATM    6  C   UNL     1       8.037  24.120  55.150  1.00  0.00     0.164 A 
HETATM    7  N   UNL     1       8.382  22.835  54.853  1.00  0.00    -0.260 N 
HETATM    8  H   UNL     1       8.460  22.409  53.937  1.00  0.00     0.191 HD
HETATM    9  N   UNL     1       8.640  22.090  55.951  1.00  0.00    -0.184 NA
HETATM   10  C   UNL     1       8.469  22.951  56.964  1.00  0.00     0.159 A 
HETATM   11  N   UNL     1       7.725  25.080  54.260  1.00  0.00    -0.204 NA
ENDROOT
BRANCH   1  12
HETATM   12  S   UNL     1       7.082  27.560  53.704  1.00  0.00    -0.082 SA
BRANCH  12  13
HETATM   13  C   UNL     1       6.123  26.710  52.422  1.00  0.00     0.185 C 
BRANCH  13  14
HETATM   14  C   UNL     1       4.772  26.299  52.966  1.00  0.00     0.231 C 
HETATM   15  N   UNL     1       3.804  27.211  53.280  1.00  0.00    -0.327 N 
HETATM   16  H   UNL     1       3.061  26.768  53.811  1.00  0.00     0.169 HD
HETATM   17  O   UNL     1       4.531  25.109  53.208  1.00  0.00    -0.272 OA
BRANCH  15  18
HETATM   18  C   UNL     1       3.615  28.575  52.990  1.00  0.00     0.034 A 
HETATM   19  C   UNL     1       3.193  29.084  51.765  1.00  0.00     0.032 A 
HETATM   20  C   UNL     1       3.006  30.461  51.593  1.00  0.00     0.039 A 
HETATM   21  C   UNL     1       3.209  31.352  52.645  1.00  0.00     0.068 A 
HETATM   22  C   UNL     1       3.616  30.852  53.878  1.00  0.00     0.039 A 
HETATM   23  C   UNL     1       3.807  29.473  54.048  1.00  0.00     0.032 A 
BRANCH  21  24
HETATM   24  O   UNL     1       2.977  32.662  52.340  1.00  0.00    -0.352 OA
BRANCH  24  25
HETATM   25  C   UNL     1       3.676  33.199  51.218  1.00  0.00     0.171 C 
HETATM   26  C   UNL     1       5.060  33.611  51.684  1.00  0.00     0.034 C 
ENDBRANCH  24  25
ENDBRANCH  21  24
ENDBRANCH  15  18
ENDBRANCH  13  14
ENDBRANCH  12  13
ENDBRANCH   1  12
BRANCH   2  27
HETATM   27  C   UNL     1       7.050  27.743  56.766  1.00  0.00     0.056 A 
HETATM   28  C   UNL     1       8.011  28.726  57.143  1.00  0.00     0.002 A 
HETATM   29  C   UNL     1       7.543  29.937  57.717  1.00  0.00    -0.024 A 
HETATM   30  C   UNL     1       9.410  28.593  56.957  1.00  0.00     0.014 A 
HETATM   31  C   UNL     1       8.456  30.919  58.131  1.00  0.00     0.012 A 
HETATM   32  C   UNL     1       6.165  30.160  57.856  1.00  0.00     0.012 A 
HETATM   33  C   UNL     1       9.829  30.739  57.972  1.00  0.00     0.001 A 
HETATM   34  C   UNL     1      10.306  29.579  57.376  1.00  0.00     0.001 A 
HETATM   35  C   UNL     1       5.236  29.212  57.435  1.00  0.00     0.003 A 
HETATM   36  C   UNL     1       5.676  28.010  56.893  1.00  0.00     0.031 A 
ENDBRANCH   2  27
TORSDOF 7
ENDMDL
MODEL 8
REMARK VINA RESULT:      -8.8      2.810      7.773
REMARK  7 active torsions:
REMARK  status: ('A' for Active; 'I' for Inactive)
REMARK    1  A    between atoms: C_2  and  O_3 
REMARK    2  A    between atoms: O_3  and  C_4 
REMARK    3  A    between atoms: C_7  and  N_8 
REMARK       I    between atoms: N_8  and  C_9 
REMARK    4  A    between atoms: C_9  and  C_10 
REMARK    5  A    between atoms: C_10  and  S_11 
REMARK    6  A    between atoms: S_11  and  C_12 
REMARK    7  A    between atoms: N_13  and  C_14 
ROOT
HETATM    1  C   UNL     1       6.725  30.050  57.494  1.00  0.00     0.178 A 
HETATM    2  N   UNL     1       7.834  29.342  56.961  1.00  0.00    -0.255 N 
HETATM    3  C   UNL     1       9.149  29.584  57.417  1.00  0.00     0.270 A 
HETATM    4  O   UNL     1      10.163  29.002  57.046  1.00  0.00    -0.266 OA
HETATM    5  C   UNL     1       9.217  30.641  58.385  1.00  0.00     0.099 A 
HETATM    6  C   UNL     1       8.069  31.269  58.773  1.00  0.00     0.164 A 
HETATM    7  N   UNL     1       8.443  32.205  59.690  1.00  0.00    -0.260 N 
HETATM    8  H   UNL     1       7.846  32.845  60.202  1.00  0.00     0.191 HD
HETATM    9  N   UNL     1       9.778  32.237  59.900  1.00  0.00    -0.184 NA
HETATM   10  C   UNL     1      10.245  31.270  59.098  1.00  0.00     0.159 A 
HETATM   11  N   UNL     1       6.810  31.018  58.366  1.00  0.00    -0.204 NA
ENDROOT
BRANCH   1  12
HETATM   12  S   UNL     1       5.101  29.629  56.946  1.00  0.00    -0.082 SA
BRANCH  12  13
HETATM   13  C   UNL     1       4.757  30.957  55.761  1.00  0.00     0.185 C 
BRANCH  13  14
HETATM   14  C   UNL     1       3.302  30.920  55.344  1.00  0.00     0.231 C 
HETATM   15  N   UNL     1       2.908  30.502  54.105  1.00  0.00    -0.327 N 
HETATM   16  H   UNL     1       1.934  30.738  53.946  1.00  0.00     0.169 HD
HETATM   17  O   UNL     1       2.422  31.339  56.109  1.00  0.00    -0.272 OA
BRANCH  15  18
HETATM   18  C   UNL     1       3.542  29.801  53.062  1.00  0.00     0.034 A 
HETATM   19  C   UNL     1       4.197  30.386  51.983  1.00  0.00     0.032 A 
HETATM   20  C   UNL     1       4.823  29.592  51.014  1.00  0.00     0.039 A 
HETATM   21  C   UNL     1       4.832  28.202  51.120  1.00  0.00     0.068 A 
HETATM   22  C   UNL     1       4.194  27.607  52.203  1.00  0.00     0.039 A 
HETATM   23  C   UNL     1       3.563  28.403  53.170  1.00  0.00     0.032 A 
BRANCH  21  24
HETATM   24  O   UNL     1       5.490  27.555  50.113  1.00  0.00    -0.352 OA
BRANCH  24  25
HETATM   25  C   UNL     1       4.762  26.557  49.399  1.00  0.00     0.171 C 
HETATM   26  C   UNL     1       4.612  27.028  47.963  1.00  0.00     0.034 C 
ENDBRANCH  24  25
ENDBRANCH  21  24
ENDBRANCH  15  18
ENDBRANCH  13  14
ENDBRANCH  12  13
ENDBRANCH   1  12
BRANCH   2  27
HETATM   27  C   UNL     1       7.698  28.341  55.944  1.00  0.00     0.056 A 
HETATM   28  C   UNL     1       7.653  26.949  56.251  1.00  0.00     0.002 A 
HETATM   29  C   UNL     1       7.547  26.028  55.177  1.00  0.00    -0.024 A 
HETATM   30  C   UNL     1       7.677  26.416  57.565  1.00  0.00     0.014 A 
HETATM   31  C   UNL     1       7.532  24.647  55.431  1.00  0.00     0.012 A 
HETATM   32  C   UNL     1       7.442  26.497  53.859  1.00  0.00     0.012 A 
HETATM   33  C   UNL     1       7.599  24.155  56.733  1.00  0.00     0.001 A 
HETATM   34  C   UNL     1       7.662  25.040  57.801  1.00  0.00     0.001 A 
HETATM   35  C   UNL     1       7.434  27.861  53.579  1.00  0.00     0.003 A 
HETATM   36  C   UNL     1       7.562  28.778  54.615  1.00  0.00     0.031 A 
ENDBRANCH   2  27
TORSDOF 7
ENDMDL
MODEL 9
REMARK VINA RESULT:      -8.5      3.134      9.926
REMARK  7 active torsions:
REMARK  status: ('A' for Active; 'I' for Inactive)
REMARK    1  A    between atoms: C_2  and  O_3 
REMARK    2  A    between atoms: O_3  and  C_4 
REMARK    3  A    between atoms: C_7  and  N_8 
REMARK       I    between atoms: N_8  and  C_9 
REMARK    4  A    between atoms: C_9  and  C_10 
REMARK    5  A    between atoms: C_10  and  S_11 
REMARK    6  A    between atoms: S_11  and  C_12 
REMARK    7  A    between atoms: N_13  and  C_14 
ROOT
HETATM    1  C   UNL     1       5.532  32.702  61.556  1.00  0.00     0.178 A 
HETATM    2  N   UNL     1       6.190  33.116  62.743  1.00  0.00    -0.255 N 
HETATM    3  C   UNL     1       7.510  32.702  63.035  1.00  0.00     0.270 A 
HETATM    4  O   UNL     1       8.173  33.033  64.012  1.00  0.00    -0.266 OA
HETATM    5  C   UNL     1       8.037  31.793  62.059  1.00  0.00     0.099 A 
HETATM    6  C   UNL     1       7.270  31.445  60.985  1.00  0.00     0.164 A 
HETATM    7  N   UNL     1       8.029  30.590  60.241  1.00  0.00    -0.260 N 
HETATM    8  H   UNL     1       7.783  30.147  59.364  1.00  0.00     0.191 HD
HETATM    9  N   UNL     1       9.240  30.345  60.790  1.00  0.00    -0.184 NA
HETATM   10  C   UNL     1       9.238  31.091  61.903  1.00  0.00     0.159 A 
HETATM   11  N   UNL     1       6.026  31.863  60.686  1.00  0.00    -0.204 NA
ENDROOT
BRANCH   1  12
HETATM   12  S   UNL     1       3.921  33.334  61.209  1.00  0.00    -0.082 SA
BRANCH  12  13
HETATM   13  C   UNL     1       3.352  32.199  59.915  1.00  0.00     0.185 C 
BRANCH  13  14
HETATM   14  C   UNL     1       3.331  32.904  58.576  1.00  0.00     0.231 C 
HETATM   15  N   UNL     1       3.951  32.391  57.472  1.00  0.00    -0.327 N 
HETATM   16  H   UNL     1       4.001  33.090  56.737  1.00  0.00     0.169 HD
HETATM   17  O   UNL     1       2.798  34.016  58.462  1.00  0.00    -0.272 OA
BRANCH  15  18
HETATM   18  C   UNL     1       4.476  31.127  57.144  1.00  0.00     0.034 A 
HETATM   19  C   UNL     1       3.746  30.069  56.608  1.00  0.00     0.032 A 
HETATM   20  C   UNL     1       4.376  28.860  56.288  1.00  0.00     0.039 A 
HETATM   21  C   UNL     1       5.747  28.692  56.471  1.00  0.00     0.068 A 
HETATM   22  C   UNL     1       6.489  29.748  56.992  1.00  0.00     0.039 A 
HETATM   23  C   UNL     1       5.857  30.957  57.316  1.00  0.00     0.032 A 
BRANCH  21  24
HETATM   24  O   UNL     1       6.229  27.468  56.105  1.00  0.00    -0.352 OA
BRANCH  24  25
HETATM   25  C   UNL     1       7.574  27.166  56.471  1.00  0.00     0.171 C 
HETATM   26  C   UNL     1       7.533  26.163  57.610  1.00  0.00     0.034 C 
ENDBRANCH  24  25
ENDBRANCH  21  24
ENDBRANCH  15  18
ENDBRANCH  13  14
ENDBRANCH  12  13
ENDBRANCH   1  12
BRANCH   2  27
HETATM   27  C   UNL     1       5.575  33.977  63.710  1.00  0.00     0.056 A 
HETATM   28  C   UNL     1       5.582  35.396  63.576  1.00  0.00     0.002 A 
HETATM   29  C   UNL     1       4.975  36.170  64.599  1.00  0.00    -0.024 A 
HETATM   30  C   UNL     1       6.131  36.095  62.471  1.00  0.00     0.014 A 
HETATM   31  C   UNL     1       4.987  37.572  64.523  1.00  0.00     0.012 A 
HETATM   32  C   UNL     1       4.347  35.534  65.680  1.00  0.00     0.012 A 
HETATM   33  C   UNL     1       5.572  38.229  63.442  1.00  0.00     0.001 A 
HETATM   34  C   UNL     1       6.135  37.490  62.410  1.00  0.00     0.001 A 
HETATM   35  C   UNL     1       4.302  34.145  65.771  1.00  0.00     0.003 A 
HETATM   36  C   UNL     1       4.913  33.371  64.792  1.00  0.00     0.031 A 
ENDBRANCH   2  27
TORSDOF 7
ENDMDL
MODEL 10
REMARK VINA RESULT:      -8.5      3.031      9.833
REMARK  7 active torsions:
REMARK  status: ('A' for Active; 'I' for Inactive)
REMARK    1  A    between atoms: C_2  and  O_3 
REMARK    2  A    between atoms: O_3  and  C_4 
REMARK    3  A    between atoms: C_7  and  N_8 
REMARK       I    between atoms: N_8  and  C_9 
REMARK    4  A    between atoms: C_9  and  C_10 
REMARK    5  A    between atoms: C_10  and  S_11 
REMARK    6  A    between atoms: S_11  and  C_12 
REMARK    7  A    between atoms: N_13  and  C_14 
ROOT
HETATM    1  C   UNL     1       5.965  32.596  60.220  1.00  0.00     0.178 A 
HETATM    2  N   UNL     1       5.721  32.856  61.594  1.00  0.00    -0.255 N 
HETATM    3  C   UNL     1       6.562  32.332  62.602  1.00  0.00     0.270 A 
HETATM    4  O   UNL     1       6.456  32.528  63.808  1.00  0.00    -0.266 OA
HETATM    5  C   UNL     1       7.595  31.484  62.081  1.00  0.00     0.099 A 
HETATM    6  C   UNL     1       7.683  31.286  60.733  1.00  0.00     0.164 A 
HETATM    7  N   UNL     1       8.748  30.457  60.543  1.00  0.00    -0.260 N 
HETATM    8  H   UNL     1       9.116  30.112  59.664  1.00  0.00     0.191 HD
HETATM    9  N   UNL     1       9.341  30.083  61.699  1.00  0.00    -0.184 NA
HETATM   10  C   UNL     1       8.630  30.723  62.638  1.00  0.00     0.159 A 
HETATM   11  N   UNL     1       6.905  31.810  59.767  1.00  0.00    -0.204 NA
ENDROOT
BRANCH   1  12
HETATM   12  S   UNL     1       4.932  33.360  59.011  1.00  0.00    -0.082 SA
BRANCH  12  13
HETATM   13  C   UNL     1       4.771  32.041  57.778  1.00  0.00     0.185 C 
BRANCH  13  14
HETATM   14  C   UNL     1       3.932  30.909  58.331  1.00  0.00     0.231 C 
HETATM   15  N   UNL     1       4.023  29.632  57.854  1.00  0.00    -0.327 N 
HETATM   16  H   UNL     1       3.253  29.070  58.201  1.00  0.00     0.169 HD
HETATM   17  O   UNL     1       3.078  31.131  59.200  1.00  0.00    -0.272 OA
BRANCH  15  18
HETATM   18  C   UNL     1       4.956  28.955  57.047  1.00  0.00     0.034 A 
HETATM   19  C   UNL     1       6.264  28.652  57.414  1.00  0.00     0.032 A 
HETATM   20  C   UNL     1       7.102  27.943  56.543  1.00  0.00     0.039 A 
HETATM   21  C   UNL     1       6.641  27.500  55.304  1.00  0.00     0.068 A 
HETATM   22  C   UNL     1       5.331  27.784  54.934  1.00  0.00     0.039 A 
HETATM   23  C   UNL     1       4.494  28.497  55.805  1.00  0.00     0.032 A 
BRANCH  21  24
HETATM   24  O   UNL     1       7.560  26.811  54.565  1.00  0.00    -0.352 OA
BRANCH  24  25
HETATM   25  C   UNL     1       7.203  26.495  53.220  1.00  0.00     0.171 C 
HETATM   26  C   UNL     1       7.846  25.166  52.867  1.00  0.00     0.034 C 
ENDBRANCH  24  25
ENDBRANCH  21  24
ENDBRANCH  15  18
ENDBRANCH  13  14
ENDBRANCH  12  13
ENDBRANCH   1  12
BRANCH   2  27
HETATM   27  C   UNL     1       4.627  33.662  62.047  1.00  0.00     0.056 A 
HETATM   28  C   UNL     1       4.765  35.059  62.298  1.00  0.00     0.002 A 
HETATM   29  C   UNL     1       3.635  35.771  62.774  1.00  0.00    -0.024 A 
HETATM   30  C   UNL     1       5.954  35.799  62.075  1.00  0.00     0.014 A 
HETATM   31  C   UNL     1       3.735  37.141  63.063  1.00  0.00     0.012 A 
HETATM   32  C   UNL     1       2.409  35.110  62.941  1.00  0.00     0.012 A 
HETATM   33  C   UNL     1       4.931  37.831  62.873  1.00  0.00     0.001 A 
HETATM   34  C   UNL     1       6.038  37.162  62.369  1.00  0.00     0.001 A 
HETATM   35  C   UNL     1       2.275  33.756  62.642  1.00  0.00     0.003 A 
HETATM   36  C   UNL     1       3.377  33.036  62.199  1.00  0.00     0.031 A 
ENDBRANCH   2  27
TORSDOF 7
ENDMDL
