MODEL 1
REMARK VINA RESULT:      -9.3      0.000      0.000
REMARK  5 active torsions:
REMARK  status: ('A' for Active; 'I' for Inactive)
REMARK       I    between atoms: N_2  and  C_3 
REMARK    1  A    between atoms: C_3  and  C_4 
REMARK    2  A    between atoms: C_6  and  N_7 
REMARK    3  A    between atoms: N_7  and  C_8 
REMARK    4  A    between atoms: C_8  and  C_9 
REMARK    5  A    between atoms: C_19  and  O_20 
ROOT
HETATM    1  C   UNL     1       7.626  29.151  57.728  1.00  0.00     0.033 A 
HETATM    2  C   UNL     1       7.543  27.754  57.736  1.00  0.00     0.043 A 
HETATM    3  C   UNL     1       6.664  27.073  56.883  1.00  0.00     0.043 A 
HETATM    4  C   UNL     1       5.886  27.829  55.973  1.00  0.00     0.089 A 
HETATM    5  C   UNL     1       5.952  29.226  55.978  1.00  0.00     0.039 A 
HETATM    6  C   UNL     1       6.814  29.883  56.858  1.00  0.00     0.020 A 
ENDROOT
BRANCH   3   7
HETATM    7  N   UNL     1       6.618  25.664  56.813  1.00  0.00    -0.286 NA
HETATM    8  H   UNL     1       6.087  25.329  57.619  1.00  0.00     0.128 HD
BRANCH   7   9
HETATM    9  C   UNL     1       7.862  24.915  56.620  1.00  0.00     0.132 C 
BRANCH   9  10
HETATM   10  C   UNL     1       7.878  24.160  55.302  1.00  0.00    -0.034 A 
HETATM   11  C   UNL     1       8.100  22.753  55.208  1.00  0.00    -0.018 A 
HETATM   12  C   UNL     1       8.100  22.151  53.921  1.00  0.00    -0.025 A 
HETATM   13  C   UNL     1       8.341  21.900  56.315  1.00  0.00     0.013 A 
HETATM   14  C   UNL     1       8.339  20.773  53.781  1.00  0.00     0.012 A 
HETATM   15  C   UNL     1       7.863  22.928  52.779  1.00  0.00     0.012 A 
HETATM   16  C   UNL     1       8.581  19.968  54.892  1.00  0.00     0.001 A 
HETATM   17  C   UNL     1       8.580  20.532  56.159  1.00  0.00     0.001 A 
HETATM   18  C   UNL     1       7.629  24.294  52.879  1.00  0.00     0.002 A 
HETATM   19  C   UNL     1       7.635  24.902  54.128  1.00  0.00     0.009 A 
ENDBRANCH   9  10
ENDBRANCH   7   9
ENDBRANCH   3   7
BRANCH   4  20
HETATM   20  O   UNL     1       5.064  27.086  55.156  1.00  0.00    -0.354 OA
HETATM   21  C   UNL     1       4.921  27.531  53.813  1.00  0.00     0.210 C 
ENDBRANCH   4  20
BRANCH   1  22
HETATM   22  C   UNL     1       8.541  29.889  58.644  1.00  0.00     0.251 C 
HETATM   23  N   UNL     1       8.067  30.158  59.911  1.00  0.00    -0.361 N 
HETATM   24  C   UNL     1       8.899  30.817  60.885  1.00  0.00     0.149 C 
HETATM   25  H   UNL     1       7.226  29.702  60.240  1.00  0.00     0.162 HD
HETATM   26  O   UNL     1       9.663  30.207  58.264  1.00  0.00    -0.268 OA
ENDBRANCH   1  22
TORSDOF 5
ENDMDL
MODEL 2
REMARK VINA RESULT:      -9.0      3.677      6.675
REMARK  5 active torsions:
REMARK  status: ('A' for Active; 'I' for Inactive)
REMARK       I    between atoms: N_2  and  C_3 
REMARK    1  A    between atoms: C_3  and  C_4 
REMARK    2  A    between atoms: C_6  and  N_7 
REMARK    3  A    between atoms: N_7  and  C_8 
REMARK    4  A    between atoms: C_8  and  C_9 
REMARK    5  A    between atoms: C_19  and  O_20 
ROOT
HETATM    1  C   UNL     1       4.788  27.023  49.704  1.00  0.00     0.033 A 
HETATM    2  C   UNL     1       5.165  26.082  50.669  1.00  0.00     0.043 A 
HETATM    3  C   UNL     1       5.676  26.479  51.912  1.00  0.00     0.043 A 
HETATM    4  C   UNL     1       5.763  27.863  52.194  1.00  0.00     0.089 A 
HETATM    5  C   UNL     1       5.407  28.806  51.225  1.00  0.00     0.039 A 
HETATM    6  C   UNL     1       4.928  28.386  49.982  1.00  0.00     0.020 A 
ENDROOT
BRANCH   3   7
HETATM    7  N   UNL     1       5.987  25.554  52.931  1.00  0.00    -0.286 NA
HETATM    8  H   UNL     1       6.005  26.061  53.818  1.00  0.00     0.128 HD
BRANCH   7   9
HETATM    9  C   UNL     1       7.150  24.677  52.774  1.00  0.00     0.132 C 
BRANCH   9  10
HETATM   10  C   UNL     1       7.553  24.019  54.082  1.00  0.00    -0.034 A 
HETATM   11  C   UNL     1       7.968  22.655  54.178  1.00  0.00    -0.018 A 
HETATM   12  C   UNL     1       8.318  22.141  55.455  1.00  0.00    -0.025 A 
HETATM   13  C   UNL     1       8.042  21.758  53.083  1.00  0.00     0.013 A 
HETATM   14  C   UNL     1       8.706  20.799  55.598  1.00  0.00     0.012 A 
HETATM   15  C   UNL     1       8.275  22.969  56.585  1.00  0.00     0.012 A 
HETATM   16  C   UNL     1       8.759  19.944  54.500  1.00  0.00     0.001 A 
HETATM   17  C   UNL     1       8.428  20.424  53.242  1.00  0.00     0.001 A 
HETATM   18  C   UNL     1       7.888  24.300  56.482  1.00  0.00     0.002 A 
HETATM   19  C   UNL     1       7.533  24.819  55.243  1.00  0.00     0.009 A 
ENDBRANCH   9  10
ENDBRANCH   7   9
ENDBRANCH   3   7
BRANCH   4  20
HETATM   20  O   UNL     1       6.254  28.172  53.443  1.00  0.00    -0.354 OA
HETATM   21  C   UNL     1       5.386  28.880  54.319  1.00  0.00     0.210 C 
ENDBRANCH   4  20
BRANCH   1  22
HETATM   22  C   UNL     1       4.263  26.615  48.371  1.00  0.00     0.251 C 
HETATM   23  N   UNL     1       2.912  26.347  48.291  1.00  0.00    -0.361 N 
HETATM   24  C   UNL     1       2.303  25.999  47.032  1.00  0.00     0.149 C 
HETATM   25  H   UNL     1       2.302  26.608  49.054  1.00  0.00     0.162 HD
HETATM   26  O   UNL     1       5.019  26.552  47.408  1.00  0.00    -0.268 OA
ENDBRANCH   1  22
TORSDOF 5
ENDMDL
MODEL 3
REMARK VINA RESULT:      -8.6      3.015      4.185
REMARK  5 active torsions:
REMARK  status: ('A' for Active; 'I' for Inactive)
REMARK       I    between atoms: N_2  and  C_3 
REMARK    1  A    between atoms: C_3  and  C_4 
REMARK    2  A    between atoms: C_6  and  N_7 
REMARK    3  A    between atoms: N_7  and  C_8 
REMARK    4  A    between atoms: C_8  and  C_9 
REMARK    5  A    between atoms: C_19  and  O_20 
ROOT
HETATM    1  C   UNL     1       4.659  28.483  53.765  1.00  0.00     0.033 A 
HETATM    2  C   UNL     1       5.063  27.144  53.839  1.00  0.00     0.043 A 
HETATM    3  C   UNL     1       5.161  26.351  52.689  1.00  0.00     0.043 A 
HETATM    4  C   UNL     1       4.885  26.944  51.434  1.00  0.00     0.089 A 
HETATM    5  C   UNL     1       4.460  28.274  51.359  1.00  0.00     0.039 A 
HETATM    6  C   UNL     1       4.341  29.038  52.523  1.00  0.00     0.020 A 
ENDROOT
BRANCH   3   7
HETATM    7  N   UNL     1       5.643  25.025  52.725  1.00  0.00    -0.286 NA
HETATM    8  H   UNL     1       5.153  24.535  53.475  1.00  0.00     0.128 HD
BRANCH   7   9
HETATM    9  C   UNL     1       7.089  24.787  52.763  1.00  0.00     0.132 C 
BRANCH   9  10
HETATM   10  C   UNL     1       7.528  24.130  54.060  1.00  0.00    -0.034 A 
HETATM   11  C   UNL     1       7.907  22.756  54.152  1.00  0.00    -0.018 A 
HETATM   12  C   UNL     1       8.296  22.244  55.419  1.00  0.00    -0.025 A 
HETATM   13  C   UNL     1       7.910  21.847  53.065  1.00  0.00     0.013 A 
HETATM   14  C   UNL     1       8.651  20.892  55.560  1.00  0.00     0.012 A 
HETATM   15  C   UNL     1       8.324  23.084  56.541  1.00  0.00     0.012 A 
HETATM   16  C   UNL     1       8.634  20.026  54.470  1.00  0.00     0.001 A 
HETATM   17  C   UNL     1       8.264  20.504  53.222  1.00  0.00     0.001 A 
HETATM   18  C   UNL     1       7.972  24.424  56.440  1.00  0.00     0.002 A 
HETATM   19  C   UNL     1       7.579  24.941  55.212  1.00  0.00     0.009 A 
ENDBRANCH   9  10
ENDBRANCH   7   9
ENDBRANCH   3   7
BRANCH   4  20
HETATM   20  O   UNL     1       5.024  26.104  50.351  1.00  0.00    -0.354 OA
HETATM   21  C   UNL     1       4.479  26.553  49.116  1.00  0.00     0.210 C 
ENDBRANCH   4  20
BRANCH   1  22
HETATM   22  C   UNL     1       4.529  29.333  54.982  1.00  0.00     0.251 C 
HETATM   23  N   UNL     1       5.052  30.608  54.907  1.00  0.00    -0.361 N 
HETATM   24  C   UNL     1       4.925  31.522  56.013  1.00  0.00     0.149 C 
HETATM   25  H   UNL     1       5.324  30.987  54.010  1.00  0.00     0.162 HD
HETATM   26  O   UNL     1       3.961  28.897  55.977  1.00  0.00    -0.268 OA
ENDBRANCH   1  22
TORSDOF 5
ENDMDL
MODEL 4
REMARK VINA RESULT:      -8.5      2.088      3.719
REMARK  5 active torsions:
REMARK  status: ('A' for Active; 'I' for Inactive)
REMARK       I    between atoms: N_2  and  C_3 
REMARK    1  A    between atoms: C_3  and  C_4 
REMARK    2  A    between atoms: C_6  and  N_7 
REMARK    3  A    between atoms: N_7  and  C_8 
REMARK    4  A    between atoms: C_8  and  C_9 
REMARK    5  A    between atoms: C_19  and  O_20 
ROOT
HETATM    1  C   UNL     1       6.200  27.863  54.266  1.00  0.00     0.033 A 
HETATM    2  C   UNL     1       6.504  26.521  54.007  1.00  0.00     0.043 A 
HETATM    3  C   UNL     1       6.163  25.921  52.788  1.00  0.00     0.043 A 
HETATM    4  C   UNL     1       5.541  26.715  51.795  1.00  0.00     0.089 A 
HETATM    5  C   UNL     1       5.216  28.050  52.059  1.00  0.00     0.039 A 
HETATM    6  C   UNL     1       5.539  28.618  53.293  1.00  0.00     0.020 A 
ENDROOT
BRANCH   3   7
HETATM    7  N   UNL     1       6.529  24.595  52.470  1.00  0.00    -0.286 NA
HETATM    8  H   UNL     1       5.880  23.969  52.949  1.00  0.00     0.128 HD
BRANCH   7   9
HETATM    9  C   UNL     1       7.924  24.177  52.635  1.00  0.00     0.132 C 
BRANCH   9  10
HETATM   10  C   UNL     1       8.040  22.841  53.349  1.00  0.00    -0.034 A 
HETATM   11  C   UNL     1       8.153  22.718  54.768  1.00  0.00    -0.018 A 
HETATM   12  C   UNL     1       8.262  21.417  55.329  1.00  0.00    -0.025 A 
HETATM   13  C   UNL     1       8.181  23.811  55.670  1.00  0.00     0.013 A 
HETATM   14  C   UNL     1       8.401  21.252  56.717  1.00  0.00     0.012 A 
HETATM   15  C   UNL     1       8.236  20.287  54.501  1.00  0.00     0.012 A 
HETATM   16  C   UNL     1       8.433  22.351  57.573  1.00  0.00     0.001 A 
HETATM   17  C   UNL     1       8.322  23.630  57.049  1.00  0.00     0.001 A 
HETATM   18  C   UNL     1       8.107  20.413  53.123  1.00  0.00     0.002 A 
HETATM   19  C   UNL     1       8.009  21.677  52.554  1.00  0.00     0.009 A 
ENDBRANCH   9  10
ENDBRANCH   7   9
ENDBRANCH   3   7
BRANCH   4  20
HETATM   20  O   UNL     1       5.257  26.058  50.619  1.00  0.00    -0.354 OA
HETATM   21  C   UNL     1       4.594  26.807  49.608  1.00  0.00     0.210 C 
ENDBRANCH   4  20
BRANCH   1  22
HETATM   22  C   UNL     1       6.537  28.509  55.566  1.00  0.00     0.251 C 
HETATM   23  N   UNL     1       7.249  27.748  56.470  1.00  0.00    -0.361 N 
HETATM   24  C   UNL     1       7.669  28.305  57.731  1.00  0.00     0.149 C 
HETATM   25  H   UNL     1       7.674  26.880  56.173  1.00  0.00     0.162 HD
HETATM   26  O   UNL     1       6.202  29.669  55.779  1.00  0.00    -0.268 OA
ENDBRANCH   1  22
TORSDOF 5
ENDMDL
MODEL 5
REMARK VINA RESULT:      -8.4      2.261      3.945
REMARK  5 active torsions:
REMARK  status: ('A' for Active; 'I' for Inactive)
REMARK       I    between atoms: N_2  and  C_3 
REMARK    1  A    between atoms: C_3  and  C_4 
REMARK    2  A    between atoms: C_6  and  N_7 
REMARK    3  A    between atoms: N_7  and  C_8 
REMARK    4  A    between atoms: C_8  and  C_9 
REMARK    5  A    between atoms: C_19  and  O_20 
ROOT
HETATM    1  C   UNL     1       6.422  30.966  58.104  1.00  0.00     0.033 A 
HETATM    2  C   UNL     1       6.481  30.105  57.001  1.00  0.00     0.043 A 
HETATM    3  C   UNL     1       7.665  29.438  56.663  1.00  0.00     0.043 A 
HETATM    4  C   UNL     1       8.800  29.617  57.491  1.00  0.00     0.089 A 
HETATM    5  C   UNL     1       8.750  30.493  58.580  1.00  0.00     0.039 A 
HETATM    6  C   UNL     1       7.566  31.170  58.879  1.00  0.00     0.020 A 
ENDROOT
BRANCH   3   7
HETATM    7  N   UNL     1       7.731  28.503  55.608  1.00  0.00    -0.286 NA
HETATM    8  H   UNL     1       7.733  29.024  54.730  1.00  0.00     0.128 HD
BRANCH   7   9
HETATM    9  C   UNL     1       6.790  27.381  55.584  1.00  0.00     0.132 C 
BRANCH   9  10
HETATM   10  C   UNL     1       7.479  26.049  55.830  1.00  0.00    -0.034 A 
HETATM   11  C   UNL     1       7.635  25.050  54.822  1.00  0.00    -0.018 A 
HETATM   12  C   UNL     1       8.291  23.837  55.165  1.00  0.00    -0.025 A 
HETATM   13  C   UNL     1       7.164  25.170  53.491  1.00  0.00     0.013 A 
HETATM   14  C   UNL     1       8.443  22.818  54.211  1.00  0.00     0.012 A 
HETATM   15  C   UNL     1       8.790  23.648  56.461  1.00  0.00     0.012 A 
HETATM   16  C   UNL     1       7.959  22.968  52.913  1.00  0.00     0.001 A 
HETATM   17  C   UNL     1       7.320  24.144  52.553  1.00  0.00     0.001 A 
HETATM   18  C   UNL     1       8.651  24.632  57.432  1.00  0.00     0.002 A 
HETATM   19  C   UNL     1       8.004  25.820  57.119  1.00  0.00     0.009 A 
ENDBRANCH   9  10
ENDBRANCH   7   9
ENDBRANCH   3   7
BRANCH   4  20
HETATM   20  O   UNL     1       9.918  28.911  57.104  1.00  0.00    -0.354 OA
HETATM   21  C   UNL     1      11.130  29.646  56.978  1.00  0.00     0.210 C 
ENDBRANCH   4  20
BRANCH   1  22
HETATM   22  C   UNL     1       5.175  31.699  58.462  1.00  0.00     0.251 C 
HETATM   23  N   UNL     1       4.783  31.647  59.784  1.00  0.00    -0.361 N 
HETATM   24  C   UNL     1       3.621  32.370  60.237  1.00  0.00     0.149 C 
HETATM   25  H   UNL     1       5.421  31.294  60.484  1.00  0.00     0.162 HD
HETATM   26  O   UNL     1       4.563  32.325  57.604  1.00  0.00    -0.268 OA
ENDBRANCH   1  22
TORSDOF 5
ENDMDL
MODEL 6
REMARK VINA RESULT:      -8.3      4.313      6.276
REMARK  5 active torsions:
REMARK  status: ('A' for Active; 'I' for Inactive)
REMARK       I    between atoms: N_2  and  C_3 
REMARK    1  A    between atoms: C_3  and  C_4 
REMARK    2  A    between atoms: C_6  and  N_7 
REMARK    3  A    between atoms: N_7  and  C_8 
REMARK    4  A    between atoms: C_8  and  C_9 
REMARK    5  A    between atoms: C_19  and  O_20 
ROOT
HETATM    1  C   UNL     1       5.218  29.462  49.835  1.00  0.00     0.033 A 
HETATM    2  C   UNL     1       5.230  28.453  50.806  1.00  0.00     0.043 A 
HETATM    3  C   UNL     1       4.759  27.165  50.520  1.00  0.00     0.043 A 
HETATM    4  C   UNL     1       4.310  26.886  49.207  1.00  0.00     0.089 A 
HETATM    5  C   UNL     1       4.277  27.898  48.242  1.00  0.00     0.039 A 
HETATM    6  C   UNL     1       4.723  29.183  48.559  1.00  0.00     0.020 A 
ENDROOT
BRANCH   3   7
HETATM    7  N   UNL     1       4.834  26.109  51.453  1.00  0.00    -0.286 NA
HETATM    8  H   UNL     1       4.345  26.405  52.300  1.00  0.00     0.128 HD
BRANCH   7   9
HETATM    9  C   UNL     1       6.136  25.504  51.750  1.00  0.00     0.132 C 
BRANCH   9  10
HETATM   10  C   UNL     1       6.263  25.106  53.210  1.00  0.00    -0.034 A 
HETATM   11  C   UNL     1       6.975  23.947  53.647  1.00  0.00    -0.018 A 
HETATM   12  C   UNL     1       7.026  23.667  55.039  1.00  0.00    -0.025 A 
HETATM   13  C   UNL     1       7.631  23.034  52.784  1.00  0.00     0.013 A 
HETATM   14  C   UNL     1       7.693  22.524  55.509  1.00  0.00     0.012 A 
HETATM   15  C   UNL     1       6.406  24.528  55.955  1.00  0.00     0.012 A 
HETATM   16  C   UNL     1       8.319  21.643  54.630  1.00  0.00     0.001 A 
HETATM   17  C   UNL     1       8.289  21.898  53.268  1.00  0.00     0.001 A 
HETATM   18  C   UNL     1       5.731  25.664  55.524  1.00  0.00     0.002 A 
HETATM   19  C   UNL     1       5.662  25.950  54.167  1.00  0.00     0.009 A 
ENDBRANCH   9  10
ENDBRANCH   7   9
ENDBRANCH   3   7
BRANCH   4  20
HETATM   20  O   UNL     1       3.884  25.593  49.001  1.00  0.00    -0.354 OA
HETATM   21  C   UNL     1       3.133  25.345  47.819  1.00  0.00     0.210 C 
ENDBRANCH   4  20
BRANCH   1  22
HETATM   22  C   UNL     1       5.695  30.843  50.132  1.00  0.00     0.251 C 
HETATM   23  N   UNL     1       4.951  31.577  51.032  1.00  0.00    -0.361 N 
HETATM   24  C   UNL     1       5.365  32.900  51.424  1.00  0.00     0.149 C 
HETATM   25  H   UNL     1       4.244  31.118  51.591  1.00  0.00     0.162 HD
HETATM   26  O   UNL     1       6.716  31.265  49.600  1.00  0.00    -0.268 OA
ENDBRANCH   1  22
TORSDOF 5
ENDMDL
MODEL 7
REMARK VINA RESULT:      -8.1      2.673      7.161
REMARK  5 active torsions:
REMARK  status: ('A' for Active; 'I' for Inactive)
REMARK       I    between atoms: N_2  and  C_3 
REMARK    1  A    between atoms: C_3  and  C_4 
REMARK    2  A    between atoms: C_6  and  N_7 
REMARK    3  A    between atoms: N_7  and  C_8 
REMARK    4  A    between atoms: C_8  and  C_9 
REMARK    5  A    between atoms: C_19  and  O_20 
ROOT
HETATM    1  C   UNL     1       7.826  23.789  54.566  1.00  0.00     0.033 A 
HETATM    2  C   UNL     1       7.317  25.072  54.800  1.00  0.00     0.043 A 
HETATM    3  C   UNL     1       6.892  25.889  53.744  1.00  0.00     0.043 A 
HETATM    4  C   UNL     1       6.945  25.371  52.427  1.00  0.00     0.089 A 
HETATM    5  C   UNL     1       7.472  24.098  52.189  1.00  0.00     0.039 A 
HETATM    6  C   UNL     1       7.917  23.314  53.255  1.00  0.00     0.020 A 
ENDROOT
BRANCH   3   7
HETATM    7  N   UNL     1       6.301  27.153  53.956  1.00  0.00    -0.286 NA
HETATM    8  H   UNL     1       5.588  27.288  53.238  1.00  0.00     0.128 HD
BRANCH   7   9
HETATM    9  C   UNL     1       7.161  28.329  54.112  1.00  0.00     0.132 C 
BRANCH   9  10
HETATM   10  C   UNL     1       7.116  28.889  55.524  1.00  0.00    -0.034 A 
HETATM   11  C   UNL     1       8.277  29.335  56.226  1.00  0.00    -0.018 A 
HETATM   12  C   UNL     1       8.120  29.835  57.546  1.00  0.00    -0.025 A 
HETATM   13  C   UNL     1       9.595  29.301  55.705  1.00  0.00     0.013 A 
HETATM   14  C   UNL     1       9.239  30.260  58.282  1.00  0.00     0.012 A 
HETATM   15  C   UNL     1       6.847  29.905  58.128  1.00  0.00     0.012 A 
HETATM   16  C   UNL     1      10.521  30.204  57.740  1.00  0.00     0.001 A 
HETATM   17  C   UNL     1      10.699  29.725  56.451  1.00  0.00     0.001 A 
HETATM   18  C   UNL     1       5.720  29.487  57.432  1.00  0.00     0.002 A 
HETATM   19  C   UNL     1       5.853  28.986  56.143  1.00  0.00     0.009 A 
ENDBRANCH   9  10
ENDBRANCH   7   9
ENDBRANCH   3   7
BRANCH   4  20
HETATM   20  O   UNL     1       6.490  26.227  51.448  1.00  0.00    -0.354 OA
HETATM   21  C   UNL     1       5.247  25.902  50.838  1.00  0.00     0.210 C 
ENDBRANCH   4  20
BRANCH   1  22
HETATM   22  C   UNL     1       8.301  22.918  55.678  1.00  0.00     0.251 C 
HETATM   23  N   UNL     1       7.950  21.585  55.615  1.00  0.00    -0.361 N 
HETATM   24  C   UNL     1       8.410  20.654  56.614  1.00  0.00     0.149 C 
HETATM   25  H   UNL     1       7.563  21.207  54.761  1.00  0.00     0.162 HD
HETATM   26  O   UNL     1       8.987  23.391  56.577  1.00  0.00    -0.268 OA
ENDBRANCH   1  22
TORSDOF 5
ENDMDL
MODEL 8
REMARK VINA RESULT:      -8.1      3.212      5.214
REMARK  5 active torsions:
REMARK  status: ('A' for Active; 'I' for Inactive)
REMARK       I    between atoms: N_2  and  C_3 
REMARK    1  A    between atoms: C_3  and  C_4 
REMARK    2  A    between atoms: C_6  and  N_7 
REMARK    3  A    between atoms: N_7  and  C_8 
REMARK    4  A    between atoms: C_8  and  C_9 
REMARK    5  A    between atoms: C_19  and  O_20 
ROOT
HETATM    1  C   UNL     1       4.253  28.805  52.861  1.00  0.00     0.033 A 
HETATM    2  C   UNL     1       4.827  27.533  52.978  1.00  0.00     0.043 A 
HETATM    3  C   UNL     1       5.019  26.717  51.855  1.00  0.00     0.043 A 
HETATM    4  C   UNL     1       4.662  27.224  50.583  1.00  0.00     0.089 A 
HETATM    5  C   UNL     1       4.069  28.486  50.466  1.00  0.00     0.039 A 
HETATM    6  C   UNL     1       3.859  29.269  51.603  1.00  0.00     0.020 A 
ENDROOT
BRANCH   3   7
HETATM    7  N   UNL     1       5.668  25.466  51.933  1.00  0.00    -0.286 NA
HETATM    8  H   UNL     1       5.185  24.907  52.638  1.00  0.00     0.128 HD
BRANCH   7   9
HETATM    9  C   UNL     1       7.124  25.422  52.094  1.00  0.00     0.132 C 
BRANCH   9  10
HETATM   10  C   UNL     1       7.553  24.417  53.150  1.00  0.00    -0.034 A 
HETATM   11  C   UNL     1       7.674  24.740  54.536  1.00  0.00    -0.018 A 
HETATM   12  C   UNL     1       8.089  23.722  55.436  1.00  0.00    -0.025 A 
HETATM   13  C   UNL     1       7.425  26.022  55.087  1.00  0.00     0.013 A 
HETATM   14  C   UNL     1       8.247  24.004  56.803  1.00  0.00     0.012 A 
HETATM   15  C   UNL     1       8.349  22.428  54.965  1.00  0.00     0.012 A 
HETATM   16  C   UNL     1       8.001  25.279  57.308  1.00  0.00     0.001 A 
HETATM   17  C   UNL     1       7.589  26.287  56.451  1.00  0.00     0.001 A 
HETATM   18  C   UNL     1       8.211  22.115  53.619  1.00  0.00     0.002 A 
HETATM   19  C   UNL     1       7.815  23.099  52.721  1.00  0.00     0.009 A 
ENDBRANCH   9  10
ENDBRANCH   7   9
ENDBRANCH   3   7
BRANCH   4  20
HETATM   20  O   UNL     1       4.901  26.371  49.529  1.00  0.00    -0.354 OA
HETATM   21  C   UNL     1       3.804  26.088  48.669  1.00  0.00     0.210 C 
ENDBRANCH   4  20
BRANCH   1  22
HETATM   22  C   UNL     1       4.022  29.674  54.049  1.00  0.00     0.251 C 
HETATM   23  N   UNL     1       3.051  30.647  53.927  1.00  0.00    -0.361 N 
HETATM   24  C   UNL     1       2.718  31.499  55.040  1.00  0.00     0.149 C 
HETATM   25  H   UNL     1       2.413  30.624  53.143  1.00  0.00     0.162 HD
HETATM   26  O   UNL     1       4.667  29.493  55.076  1.00  0.00    -0.268 OA
ENDBRANCH   1  22
TORSDOF 5
ENDMDL
MODEL 9
REMARK VINA RESULT:      -8.0      2.587      7.580
REMARK  5 active torsions:
REMARK  status: ('A' for Active; 'I' for Inactive)
REMARK       I    between atoms: N_2  and  C_3 
REMARK    1  A    between atoms: C_3  and  C_4 
REMARK    2  A    between atoms: C_6  and  N_7 
REMARK    3  A    between atoms: N_7  and  C_8 
REMARK    4  A    between atoms: C_8  and  C_9 
REMARK    5  A    between atoms: C_19  and  O_20 
ROOT
HETATM    1  C   UNL     1       7.401  23.509  54.020  1.00  0.00     0.033 A 
HETATM    2  C   UNL     1       6.661  24.470  54.720  1.00  0.00     0.043 A 
HETATM    3  C   UNL     1       6.329  25.698  54.135  1.00  0.00     0.043 A 
HETATM    4  C   UNL     1       6.719  25.936  52.795  1.00  0.00     0.089 A 
HETATM    5  C   UNL     1       7.477  24.987  52.101  1.00  0.00     0.039 A 
HETATM    6  C   UNL     1       7.822  23.781  52.716  1.00  0.00     0.020 A 
ENDROOT
BRANCH   3   7
HETATM    7  N   UNL     1       5.516  26.651  54.788  1.00  0.00    -0.286 NA
HETATM    8  H   UNL     1       5.700  27.561  54.362  1.00  0.00     0.128 HD
BRANCH   7   9
HETATM    9  C   UNL     1       5.519  26.713  56.252  1.00  0.00     0.132 C 
BRANCH   9  10
HETATM   10  C   UNL     1       6.526  27.721  56.780  1.00  0.00    -0.034 A 
HETATM   11  C   UNL     1       6.155  28.999  57.299  1.00  0.00    -0.018 A 
HETATM   12  C   UNL     1       7.181  29.866  57.761  1.00  0.00    -0.025 A 
HETATM   13  C   UNL     1       4.825  29.483  57.373  1.00  0.00     0.013 A 
HETATM   14  C   UNL     1       6.863  31.143  58.255  1.00  0.00     0.012 A 
HETATM   15  C   UNL     1       8.521  29.456  57.725  1.00  0.00     0.012 A 
HETATM   16  C   UNL     1       5.544  31.587  58.306  1.00  0.00     0.001 A 
HETATM   17  C   UNL     1       4.525  30.757  57.865  1.00  0.00     0.001 A 
HETATM   18  C   UNL     1       8.872  28.204  57.236  1.00  0.00     0.002 A 
HETATM   19  C   UNL     1       7.885  27.346  56.770  1.00  0.00     0.009 A 
ENDBRANCH   9  10
ENDBRANCH   7   9
ENDBRANCH   3   7
BRANCH   4  20
HETATM   20  O   UNL     1       6.337  27.157  52.287  1.00  0.00    -0.354 OA
HETATM   21  C   UNL     1       5.461  27.141  51.167  1.00  0.00     0.210 C 
ENDBRANCH   4  20
BRANCH   1  22
HETATM   22  C   UNL     1       7.779  22.206  54.637  1.00  0.00     0.251 C 
HETATM   23  N   UNL     1       8.339  21.262  53.800  1.00  0.00    -0.361 N 
HETATM   24  C   UNL     1       8.788  19.994  54.315  1.00  0.00     0.149 C 
HETATM   25  H   UNL     1       8.644  21.530  52.873  1.00  0.00     0.162 HD
HETATM   26  O   UNL     1       7.608  22.024  55.837  1.00  0.00    -0.268 OA
ENDBRANCH   1  22
TORSDOF 5
ENDMDL
MODEL 10
REMARK VINA RESULT:      -7.9      4.266      7.847
REMARK  5 active torsions:
REMARK  status: ('A' for Active; 'I' for Inactive)
REMARK       I    between atoms: N_2  and  C_3 
REMARK    1  A    between atoms: C_3  and  C_4 
REMARK    2  A    between atoms: C_6  and  N_7 
REMARK    3  A    between atoms: N_7  and  C_8 
REMARK    4  A    between atoms: C_8  and  C_9 
REMARK    5  A    between atoms: C_19  and  O_20 
ROOT
HETATM    1  C   UNL     1       7.168  23.766  54.426  1.00  0.00     0.033 A 
HETATM    2  C   UNL     1       6.336  24.181  53.379  1.00  0.00     0.043 A 
HETATM    3  C   UNL     1       5.612  25.378  53.458  1.00  0.00     0.043 A 
HETATM    4  C   UNL     1       5.772  26.189  54.607  1.00  0.00     0.089 A 
HETATM    5  C   UNL     1       6.586  25.767  55.663  1.00  0.00     0.039 A 
HETATM    6  C   UNL     1       7.275  24.555  55.574  1.00  0.00     0.020 A 
ENDROOT
BRANCH   3   7
HETATM    7  N   UNL     1       4.830  25.860  52.386  1.00  0.00    -0.286 NA
HETATM    8  H   UNL     1       3.940  25.359  52.399  1.00  0.00     0.128 HD
BRANCH   7   9
HETATM    9  C   UNL     1       5.413  25.917  51.043  1.00  0.00     0.132 C 
BRANCH   9  10
HETATM   10  C   UNL     1       4.795  27.018  50.197  1.00  0.00    -0.034 A 
HETATM   11  C   UNL     1       3.947  26.762  49.077  1.00  0.00    -0.018 A 
HETATM   12  C   UNL     1       3.428  27.869  48.353  1.00  0.00    -0.025 A 
HETATM   13  C   UNL     1       3.591  25.470  48.616  1.00  0.00     0.013 A 
HETATM   14  C   UNL     1       2.611  27.662  47.229  1.00  0.00     0.012 A 
HETATM   15  C   UNL     1       3.731  29.178  48.752  1.00  0.00     0.012 A 
HETATM   16  C   UNL     1       2.289  26.377  46.799  1.00  0.00     0.001 A 
HETATM   17  C   UNL     1       2.779  25.281  47.493  1.00  0.00     0.001 A 
HETATM   18  C   UNL     1       4.541  29.419  49.854  1.00  0.00     0.002 A 
HETATM   19  C   UNL     1       5.066  28.350  50.569  1.00  0.00     0.009 A 
ENDBRANCH   9  10
ENDBRANCH   7   9
ENDBRANCH   3   7
BRANCH   4  20
HETATM   20  O   UNL     1       5.043  27.357  54.598  1.00  0.00    -0.354 OA
HETATM   21  C   UNL     1       4.646  27.876  55.862  1.00  0.00     0.210 C 
ENDBRANCH   4  20
BRANCH   1  22
HETATM   22  C   UNL     1       7.928  22.485  54.365  1.00  0.00     0.251 C 
HETATM   23  N   UNL     1       7.729  21.697  53.250  1.00  0.00    -0.361 N 
HETATM   24  C   UNL     1       8.460  20.469  53.075  1.00  0.00     0.149 C 
HETATM   25  H   UNL     1       7.244  22.076  52.447  1.00  0.00     0.162 HD
HETATM   26  O   UNL     1       8.702  22.188  55.268  1.00  0.00    -0.268 OA
ENDBRANCH   1  22
TORSDOF 5
ENDMDL
