MODEL 1
REMARK VINA RESULT:      -9.5      0.000      0.000
REMARK  10 active torsions:
REMARK  status: ('A' for Active; 'I' for Inactive)
REMARK    1  A    between atoms: O_2  and  C_3 
REMARK    2  A    between atoms: C_6  and  C_7 
REMARK    3  A    between atoms: C_7  and  C_8 
REMARK    4  A    between atoms: C_8  and  N_9 
REMARK    5  A    between atoms: N_12  and  C_13 
REMARK    6  A    between atoms: C_16  and  O_17 
REMARK    7  A    between atoms: C_23  and  C_24 
REMARK    8  A    between atoms: C_24  and  C_25 
REMARK       I    between atoms: C_25  and  N_26 
REMARK    9  A    between atoms: N_26  and  C_27 
REMARK   10  A    between atoms: C_30  and  O_31 
ROOT
HETATM    1  N   UNL     1       5.438  27.013  52.975  1.00  0.00    -0.319 N 
HETATM    2  C   UNL     1       5.777  25.674  52.807  1.00  0.00     0.332 A 
HETATM    3  O   UNL     1       5.336  24.990  51.893  1.00  0.00    -0.246 OA
HETATM    4  N   UNL     1       6.608  25.297  53.844  1.00  0.00    -0.232 N 
HETATM    5  C   UNL     1       6.774  26.363  54.698  1.00  0.00     0.256 A 
HETATM    6  O   UNL     1       7.378  26.410  55.767  1.00  0.00    -0.270 OA
HETATM    7  C   UNL     1       6.072  27.599  54.134  1.00  0.00     0.190 A 
ENDROOT
BRANCH   7   8
HETATM    8  C   UNL     1       5.128  28.178  55.181  1.00  0.00     0.138 C 
BRANCH   8   9
HETATM    9  C   UNL     1       5.776  29.372  55.862  1.00  0.00     0.224 C 
HETATM   10  N   UNL     1       6.667  29.021  56.856  1.00  0.00    -0.327 N 
HETATM   11  H   UNL     1       6.864  28.026  56.974  1.00  0.00     0.169 HD
HETATM   12  O   UNL     1       5.503  30.509  55.491  1.00  0.00    -0.273 OA
BRANCH  10  13
HETATM   13  C   UNL     1       7.433  29.871  57.678  1.00  0.00     0.034 A 
HETATM   14  C   UNL     1       6.896  30.821  58.542  1.00  0.00     0.032 A 
HETATM   15  C   UNL     1       7.744  31.621  59.320  1.00  0.00     0.039 A 
HETATM   16  C   UNL     1       9.131  31.484  59.245  1.00  0.00     0.068 A 
HETATM   17  C   UNL     1       9.670  30.531  58.384  1.00  0.00     0.039 A 
HETATM   18  C   UNL     1       8.825  29.730  57.607  1.00  0.00     0.032 A 
BRANCH  16  19
HETATM   19  O   UNL     1       9.839  32.327  60.055  1.00  0.00    -0.356 OA
HETATM   20  C   UNL     1       9.765  32.087  61.455  1.00  0.00     0.210 C 
ENDBRANCH  16  19
ENDBRANCH  10  13
ENDBRANCH   8   9
ENDBRANCH   7   8
BRANCH   1  21
HETATM   21  C   UNL     1       4.503  27.725  52.108  1.00  0.00     0.133 C 
BRANCH  21  22
HETATM   22  C   UNL     1       5.097  28.121  50.754  1.00  0.00     0.058 C 
BRANCH  22  23
HETATM   23  C   UNL     1       4.193  27.706  49.620  1.00  0.00    -0.057 A 
HETATM   24  C   UNL     1       2.952  28.327  49.437  1.00  0.00     0.010 A 
HETATM   25  C   UNL     1       2.103  27.912  48.409  1.00  0.00     0.037 A 
HETATM   26  C   UNL     1       2.475  26.878  47.548  1.00  0.00     0.068 A 
HETATM   27  C   UNL     1       3.708  26.252  47.729  1.00  0.00     0.037 A 
HETATM   28  C   UNL     1       4.561  26.664  48.760  1.00  0.00     0.010 A 
BRANCH  26  29
HETATM   29  O   UNL     1       1.551  26.573  46.587  1.00  0.00    -0.356 OA
HETATM   30  C   UNL     1       0.415  27.424  46.496  1.00  0.00     0.210 C 
ENDBRANCH  26  29
ENDBRANCH  22  23
ENDBRANCH  21  22
ENDBRANCH   1  21
BRANCH   4  31
HETATM   31  C   UNL     1       7.149  23.988  54.037  1.00  0.00     0.047 A 
HETATM   32  C   UNL     1       7.060  23.330  55.272  1.00  0.00     0.033 A 
HETATM   33  C   UNL     1       7.590  22.045  55.457  1.00  0.00     0.039 A 
HETATM   34  C   UNL     1       8.233  21.379  54.419  1.00  0.00     0.068 A 
HETATM   35  C   UNL     1       8.331  22.010  53.184  1.00  0.00     0.039 A 
HETATM   36  C   UNL     1       7.793  23.294  52.999  1.00  0.00     0.033 A 
BRANCH  34  37
HETATM   37  O   UNL     1       8.711  20.139  54.731  1.00  0.00    -0.356 OA
HETATM   38  C   UNL     1       9.381  20.003  55.978  1.00  0.00     0.210 C 
ENDBRANCH  34  37
ENDBRANCH   4  31
TORSDOF 10
ENDMDL
MODEL 2
REMARK VINA RESULT:      -9.4      2.382      7.087
REMARK  10 active torsions:
REMARK  status: ('A' for Active; 'I' for Inactive)
REMARK    1  A    between atoms: O_2  and  C_3 
REMARK    2  A    between atoms: C_6  and  C_7 
REMARK    3  A    between atoms: C_7  and  C_8 
REMARK    4  A    between atoms: C_8  and  N_9 
REMARK    5  A    between atoms: N_12  and  C_13 
REMARK    6  A    between atoms: C_16  and  O_17 
REMARK    7  A    between atoms: C_23  and  C_24 
REMARK    8  A    between atoms: C_24  and  C_25 
REMARK       I    between atoms: C_25  and  N_26 
REMARK    9  A    between atoms: N_26  and  C_27 
REMARK   10  A    between atoms: C_30  and  O_31 
ROOT
HETATM    1  N   UNL     1       6.950  26.824  56.918  1.00  0.00    -0.319 N 
HETATM    2  C   UNL     1       6.209  26.727  55.744  1.00  0.00     0.332 A 
HETATM    3  O   UNL     1       5.871  25.654  55.262  1.00  0.00    -0.246 OA
HETATM    4  N   UNL     1       6.004  28.000  55.248  1.00  0.00    -0.232 N 
HETATM    5  C   UNL     1       6.637  28.909  56.063  1.00  0.00     0.256 A 
HETATM    6  O   UNL     1       6.749  30.125  55.925  1.00  0.00    -0.270 OA
HETATM    7  C   UNL     1       7.241  28.194  57.274  1.00  0.00     0.190 A 
ENDROOT
BRANCH   7   8
HETATM    8  C   UNL     1       8.718  28.547  57.395  1.00  0.00     0.138 C 
BRANCH   8   9
HETATM    9  C   UNL     1       8.897  29.722  58.341  1.00  0.00     0.224 C 
HETATM   10  N   UNL     1       7.839  29.894  59.209  1.00  0.00    -0.327 N 
HETATM   11  H   UNL     1       7.102  29.186  59.191  1.00  0.00     0.169 HD
HETATM   12  O   UNL     1       9.925  30.391  58.296  1.00  0.00    -0.273 OA
BRANCH  10  13
HETATM   13  C   UNL     1       7.682  30.877  60.206  1.00  0.00     0.034 A 
HETATM   14  C   UNL     1       6.771  31.927  60.138  1.00  0.00     0.032 A 
HETATM   15  C   UNL     1       6.691  32.857  61.185  1.00  0.00     0.039 A 
HETATM   16  C   UNL     1       7.517  32.750  62.305  1.00  0.00     0.068 A 
HETATM   17  C   UNL     1       8.427  31.698  62.377  1.00  0.00     0.039 A 
HETATM   18  C   UNL     1       8.506  30.768  61.334  1.00  0.00     0.032 A 
BRANCH  16  19
HETATM   19  O   UNL     1       7.337  33.724  63.248  1.00  0.00    -0.356 OA
HETATM   20  C   UNL     1       7.379  33.315  64.610  1.00  0.00     0.210 C 
ENDBRANCH  16  19
ENDBRANCH  10  13
ENDBRANCH   8   9
ENDBRANCH   7   8
BRANCH   1  21
HETATM   21  C   UNL     1       7.426  25.666  57.671  1.00  0.00     0.133 C 
BRANCH  21  22
HETATM   22  C   UNL     1       8.744  25.089  57.148  1.00  0.00     0.058 C 
BRANCH  22  23
HETATM   23  C   UNL     1       8.512  23.815  56.375  1.00  0.00    -0.057 A 
HETATM   24  C   UNL     1       8.420  23.839  54.978  1.00  0.00     0.010 A 
HETATM   25  C   UNL     1       8.167  22.662  54.270  1.00  0.00     0.037 A 
HETATM   26  C   UNL     1       8.003  21.448  54.937  1.00  0.00     0.068 A 
HETATM   27  C   UNL     1       8.088  21.419  56.329  1.00  0.00     0.037 A 
HETATM   28  C   UNL     1       8.339  22.597  57.043  1.00  0.00     0.010 A 
BRANCH  26  29
HETATM   29  O   UNL     1       7.761  20.375  54.124  1.00  0.00    -0.356 OA
HETATM   30  C   UNL     1       8.422  20.362  52.865  1.00  0.00     0.210 C 
ENDBRANCH  26  29
ENDBRANCH  22  23
ENDBRANCH  21  22
ENDBRANCH   1  21
BRANCH   4  31
HETATM   31  C   UNL     1       5.306  28.314  54.040  1.00  0.00     0.047 A 
HETATM   32  C   UNL     1       5.922  28.203  52.786  1.00  0.00     0.033 A 
HETATM   33  C   UNL     1       5.234  28.510  51.603  1.00  0.00     0.039 A 
HETATM   34  C   UNL     1       3.914  28.946  51.634  1.00  0.00     0.068 A 
HETATM   35  C   UNL     1       3.281  29.062  52.866  1.00  0.00     0.039 A 
HETATM   36  C   UNL     1       3.969  28.746  54.049  1.00  0.00     0.033 A 
BRANCH  34  37
HETATM   37  O   UNL     1       3.362  29.219  50.416  1.00  0.00    -0.356 OA
HETATM   38  C   UNL     1       4.095  30.085  49.557  1.00  0.00     0.210 C 
ENDBRANCH  34  37
ENDBRANCH   4  31
TORSDOF 10
ENDMDL
MODEL 3
REMARK VINA RESULT:      -9.4      3.992      7.716
REMARK  10 active torsions:
REMARK  status: ('A' for Active; 'I' for Inactive)
REMARK    1  A    between atoms: O_2  and  C_3 
REMARK    2  A    between atoms: C_6  and  C_7 
REMARK    3  A    between atoms: C_7  and  C_8 
REMARK    4  A    between atoms: C_8  and  N_9 
REMARK    5  A    between atoms: N_12  and  C_13 
REMARK    6  A    between atoms: C_16  and  O_17 
REMARK    7  A    between atoms: C_23  and  C_24 
REMARK    8  A    between atoms: C_24  and  C_25 
REMARK       I    between atoms: C_25  and  N_26 
REMARK    9  A    between atoms: N_26  and  C_27 
REMARK   10  A    between atoms: C_30  and  O_31 
ROOT
HETATM    1  N   UNL     1       6.355  29.621  57.246  1.00  0.00    -0.319 N 
HETATM    2  C   UNL     1       6.118  28.569  56.367  1.00  0.00     0.332 A 
HETATM    3  O   UNL     1       4.992  28.221  56.040  1.00  0.00    -0.246 OA
HETATM    4  N   UNL     1       7.331  28.008  56.016  1.00  0.00    -0.232 N 
HETATM    5  C   UNL     1       8.340  28.659  56.688  1.00  0.00     0.256 A 
HETATM    6  O   UNL     1       9.544  28.414  56.701  1.00  0.00    -0.270 OA
HETATM    7  C   UNL     1       7.765  29.828  57.490  1.00  0.00     0.190 A 
ENDROOT
BRANCH   7   8
HETATM    8  C   UNL     1       8.207  29.722  58.944  1.00  0.00     0.138 C 
BRANCH   8   9
HETATM    9  C   UNL     1       7.990  31.049  59.652  1.00  0.00     0.224 C 
HETATM   10  N   UNL     1       7.586  30.912  60.964  1.00  0.00    -0.327 N 
HETATM   11  H   UNL     1       7.558  29.965  61.345  1.00  0.00     0.169 HD
HETATM   12  O   UNL     1       8.202  32.101  59.056  1.00  0.00    -0.273 OA
BRANCH  10  13
HETATM   13  C   UNL     1       7.300  31.928  61.897  1.00  0.00     0.034 A 
HETATM   14  C   UNL     1       7.997  32.123  63.086  1.00  0.00     0.032 A 
HETATM   15  C   UNL     1       7.635  33.164  63.951  1.00  0.00     0.039 A 
HETATM   16  C   UNL     1       6.575  34.019  63.642  1.00  0.00     0.068 A 
HETATM   17  C   UNL     1       5.878  33.828  62.451  1.00  0.00     0.039 A 
HETATM   18  C   UNL     1       6.240  32.790  61.586  1.00  0.00     0.032 A 
BRANCH  16  19
HETATM   19  O   UNL     1       6.326  34.989  64.572  1.00  0.00    -0.356 OA
HETATM   20  C   UNL     1       4.979  35.134  65.006  1.00  0.00     0.210 C 
ENDBRANCH  16  19
ENDBRANCH  10  13
ENDBRANCH   8   9
ENDBRANCH   7   8
BRANCH   1  21
HETATM   21  C   UNL     1       5.294  30.391  57.890  1.00  0.00     0.133 C 
BRANCH  21  22
HETATM   22  C   UNL     1       5.117  31.799  57.316  1.00  0.00     0.058 C 
BRANCH  22  23
HETATM   23  C   UNL     1       4.394  32.697  58.287  1.00  0.00    -0.057 A 
HETATM   24  C   UNL     1       4.582  34.084  58.247  1.00  0.00     0.010 A 
HETATM   25  C   UNL     1       3.940  34.908  59.174  1.00  0.00     0.037 A 
HETATM   26  C   UNL     1       3.102  34.367  60.151  1.00  0.00     0.068 A 
HETATM   27  C   UNL     1       2.916  32.986  60.199  1.00  0.00     0.037 A 
HETATM   28  C   UNL     1       3.560  32.157  59.273  1.00  0.00     0.010 A 
BRANCH  26  29
HETATM   29  O   UNL     1       2.538  35.286  60.993  1.00  0.00    -0.356 OA
HETATM   30  C   UNL     1       2.102  34.812  62.261  1.00  0.00     0.210 C 
ENDBRANCH  26  29
ENDBRANCH  22  23
ENDBRANCH  21  22
ENDBRANCH   1  21
BRANCH   4  31
HETATM   31  C   UNL     1       7.503  26.885  55.149  1.00  0.00     0.047 A 
HETATM   32  C   UNL     1       7.619  25.581  55.650  1.00  0.00     0.033 A 
HETATM   33  C   UNL     1       7.785  24.480  54.796  1.00  0.00     0.039 A 
HETATM   34  C   UNL     1       7.850  24.647  53.417  1.00  0.00     0.068 A 
HETATM   35  C   UNL     1       7.735  25.931  52.897  1.00  0.00     0.039 A 
HETATM   36  C   UNL     1       7.560  27.030  53.753  1.00  0.00     0.033 A 
BRANCH  34  37
HETATM   37  O   UNL     1       8.021  23.498  52.699  1.00  0.00    -0.356 OA
HETATM   38  C   UNL     1       7.660  22.280  53.340  1.00  0.00     0.210 C 
ENDBRANCH  34  37
ENDBRANCH   4  31
TORSDOF 10
ENDMDL
MODEL 4
REMARK VINA RESULT:      -9.4      4.765      8.783
REMARK  10 active torsions:
REMARK  status: ('A' for Active; 'I' for Inactive)
REMARK    1  A    between atoms: O_2  and  C_3 
REMARK    2  A    between atoms: C_6  and  C_7 
REMARK    3  A    between atoms: C_7  and  C_8 
REMARK    4  A    between atoms: C_8  and  N_9 
REMARK    5  A    between atoms: N_12  and  C_13 
REMARK    6  A    between atoms: C_16  and  O_17 
REMARK    7  A    between atoms: C_23  and  C_24 
REMARK    8  A    between atoms: C_24  and  C_25 
REMARK       I    between atoms: C_25  and  N_26 
REMARK    9  A    between atoms: N_26  and  C_27 
REMARK   10  A    between atoms: C_30  and  O_31 
ROOT
HETATM    1  N   UNL     1       7.632  29.526  57.698  1.00  0.00    -0.319 N 
HETATM    2  C   UNL     1       8.312  28.413  57.213  1.00  0.00     0.332 A 
HETATM    3  O   UNL     1       9.520  28.409  57.020  1.00  0.00    -0.246 OA
HETATM    4  N   UNL     1       7.393  27.412  56.961  1.00  0.00    -0.232 N 
HETATM    5  C   UNL     1       6.130  27.880  57.239  1.00  0.00     0.256 A 
HETATM    6  O   UNL     1       5.046  27.323  57.079  1.00  0.00    -0.270 OA
HETATM    7  C   UNL     1       6.211  29.291  57.824  1.00  0.00     0.190 A 
ENDROOT
BRANCH   7   8
HETATM    8  C   UNL     1       5.312  30.231  57.030  1.00  0.00     0.138 C 
BRANCH   8   9
HETATM    9  C   UNL     1       4.390  30.988  57.971  1.00  0.00     0.224 C 
HETATM   10  N   UNL     1       5.061  31.706  58.938  1.00  0.00    -0.327 N 
HETATM   11  H   UNL     1       6.080  31.730  58.877  1.00  0.00     0.169 HD
HETATM   12  O   UNL     1       3.175  30.938  57.805  1.00  0.00    -0.273 OA
BRANCH  10  13
HETATM   13  C   UNL     1       4.517  32.510  59.959  1.00  0.00     0.034 A 
HETATM   14  C   UNL     1       4.015  32.021  61.162  1.00  0.00     0.032 A 
HETATM   15  C   UNL     1       3.493  32.904  62.117  1.00  0.00     0.039 A 
HETATM   16  C   UNL     1       3.465  34.280  61.884  1.00  0.00     0.068 A 
HETATM   17  C   UNL     1       3.970  34.773  60.682  1.00  0.00     0.039 A 
HETATM   18  C   UNL     1       4.493  33.892  59.729  1.00  0.00     0.032 A 
BRANCH  16  19
HETATM   19  O   UNL     1       2.927  35.026  62.895  1.00  0.00    -0.356 OA
HETATM   20  C   UNL     1       3.568  36.259  63.196  1.00  0.00     0.210 C 
ENDBRANCH  16  19
ENDBRANCH  10  13
ENDBRANCH   8   9
ENDBRANCH   7   8
BRANCH   1  21
HETATM   21  C   UNL     1       8.278  30.803  57.992  1.00  0.00     0.133 C 
BRANCH  21  22
HETATM   22  C   UNL     1       9.351  30.716  59.080  1.00  0.00     0.058 C 
BRANCH  22  23
HETATM   23  C   UNL     1       8.828  31.213  60.404  1.00  0.00    -0.057 A 
HETATM   24  C   UNL     1       8.201  32.461  60.495  1.00  0.00     0.010 A 
HETATM   25  C   UNL     1       7.753  32.933  61.731  1.00  0.00     0.037 A 
HETATM   26  C   UNL     1       7.919  32.173  62.890  1.00  0.00     0.068 A 
HETATM   27  C   UNL     1       8.549  30.932  62.805  1.00  0.00     0.037 A 
HETATM   28  C   UNL     1       9.001  30.456  61.568  1.00  0.00     0.010 A 
BRANCH  26  29
HETATM   29  O   UNL     1       7.435  32.754  64.030  1.00  0.00    -0.356 OA
HETATM   30  C   UNL     1       6.619  33.906  63.867  1.00  0.00     0.210 C 
ENDBRANCH  26  29
ENDBRANCH  22  23
ENDBRANCH  21  22
ENDBRANCH   1  21
BRANCH   4  31
HETATM   31  C   UNL     1       7.701  26.122  56.428  1.00  0.00     0.047 A 
HETATM   32  C   UNL     1       7.412  25.788  55.098  1.00  0.00     0.033 A 
HETATM   33  C   UNL     1       7.717  24.522  54.578  1.00  0.00     0.039 A 
HETATM   34  C   UNL     1       8.313  23.546  55.371  1.00  0.00     0.068 A 
HETATM   35  C   UNL     1       8.611  23.855  56.693  1.00  0.00     0.039 A 
HETATM   36  C   UNL     1       8.312  25.126  57.209  1.00  0.00     0.033 A 
BRANCH  34  37
HETATM   37  O   UNL     1       8.550  22.355  54.747  1.00  0.00    -0.356 OA
HETATM   38  C   UNL     1       8.339  22.312  53.341  1.00  0.00     0.210 C 
ENDBRANCH  34  37
ENDBRANCH   4  31
TORSDOF 10
ENDMDL
MODEL 5
REMARK VINA RESULT:      -9.3      2.018      9.198
REMARK  10 active torsions:
REMARK  status: ('A' for Active; 'I' for Inactive)
REMARK    1  A    between atoms: O_2  and  C_3 
REMARK    2  A    between atoms: C_6  and  C_7 
REMARK    3  A    between atoms: C_7  and  C_8 
REMARK    4  A    between atoms: C_8  and  N_9 
REMARK    5  A    between atoms: N_12  and  C_13 
REMARK    6  A    between atoms: C_16  and  O_17 
REMARK    7  A    between atoms: C_23  and  C_24 
REMARK    8  A    between atoms: C_24  and  C_25 
REMARK       I    between atoms: C_25  and  N_26 
REMARK    9  A    between atoms: N_26  and  C_27 
REMARK   10  A    between atoms: C_30  and  O_31 
ROOT
HETATM    1  N   UNL     1       6.952  28.511  57.438  1.00  0.00    -0.319 N 
HETATM    2  C   UNL     1       7.817  27.506  57.018  1.00  0.00     0.332 A 
HETATM    3  O   UNL     1       9.024  27.675  56.908  1.00  0.00    -0.246 OA
HETATM    4  N   UNL     1       7.073  26.381  56.720  1.00  0.00    -0.232 N 
HETATM    5  C   UNL     1       5.739  26.662  56.904  1.00  0.00     0.256 A 
HETATM    6  O   UNL     1       4.760  25.953  56.679  1.00  0.00    -0.270 OA
HETATM    7  C   UNL     1       5.575  28.074  57.471  1.00  0.00     0.190 A 
ENDROOT
BRANCH   7   8
HETATM    8  C   UNL     1       4.608  28.869  56.602  1.00  0.00     0.138 C 
BRANCH   8   9
HETATM    9  C   UNL     1       5.024  28.779  55.144  1.00  0.00     0.224 C 
HETATM   10  N   UNL     1       4.317  27.834  54.428  1.00  0.00    -0.327 N 
HETATM   11  H   UNL     1       3.549  27.364  54.910  1.00  0.00     0.169 HD
HETATM   12  O   UNL     1       5.894  29.528  54.710  1.00  0.00    -0.273 OA
BRANCH  10  13
HETATM   13  C   UNL     1       4.449  27.496  53.067  1.00  0.00     0.034 A 
HETATM   14  C   UNL     1       4.128  28.345  52.012  1.00  0.00     0.032 A 
HETATM   15  C   UNL     1       4.294  27.915  50.688  1.00  0.00     0.039 A 
HETATM   16  C   UNL     1       4.778  26.638  50.403  1.00  0.00     0.068 A 
HETATM   17  C   UNL     1       5.104  25.787  51.457  1.00  0.00     0.039 A 
HETATM   18  C   UNL     1       4.940  26.216  52.780  1.00  0.00     0.032 A 
BRANCH  16  19
HETATM   19  O   UNL     1       4.889  26.346  49.072  1.00  0.00    -0.356 OA
HETATM   20  C   UNL     1       4.781  27.437  48.165  1.00  0.00     0.210 C 
ENDBRANCH  16  19
ENDBRANCH  10  13
ENDBRANCH   8   9
ENDBRANCH   7   8
BRANCH   1  21
HETATM   21  C   UNL     1       7.385  29.870  57.755  1.00  0.00     0.133 C 
BRANCH  21  22
HETATM   22  C   UNL     1       8.511  29.933  58.789  1.00  0.00     0.058 C 
BRANCH  22  23
HETATM   23  C   UNL     1       8.140  30.827  59.946  1.00  0.00    -0.057 A 
HETATM   24  C   UNL     1       7.091  31.745  59.824  1.00  0.00     0.010 A 
HETATM   25  C   UNL     1       6.776  32.598  60.886  1.00  0.00     0.037 A 
HETATM   26  C   UNL     1       7.497  32.548  62.080  1.00  0.00     0.068 A 
HETATM   27  C   UNL     1       8.547  31.638  62.204  1.00  0.00     0.037 A 
HETATM   28  C   UNL     1       8.866  30.784  61.142  1.00  0.00     0.010 A 
BRANCH  26  29
HETATM   29  O   UNL     1       7.084  33.436  63.035  1.00  0.00    -0.356 OA
HETATM   30  C   UNL     1       7.585  33.242  64.351  1.00  0.00     0.210 C 
ENDBRANCH  26  29
ENDBRANCH  22  23
ENDBRANCH  21  22
ENDBRANCH   1  21
BRANCH   4  31
HETATM   31  C   UNL     1       7.600  25.146  56.231  1.00  0.00     0.047 A 
HETATM   32  C   UNL     1       7.640  24.856  54.860  1.00  0.00     0.033 A 
HETATM   33  C   UNL     1       8.160  23.644  54.382  1.00  0.00     0.039 A 
HETATM   34  C   UNL     1       8.647  22.679  55.258  1.00  0.00     0.068 A 
HETATM   35  C   UNL     1       8.619  22.945  56.622  1.00  0.00     0.039 A 
HETATM   36  C   UNL     1       8.106  24.162  57.097  1.00  0.00     0.033 A 
BRANCH  34  37
HETATM   37  O   UNL     1       9.118  21.542  54.667  1.00  0.00    -0.356 OA
HETATM   38  C   UNL     1       8.632  21.247  53.362  1.00  0.00     0.210 C 
ENDBRANCH  34  37
ENDBRANCH   4  31
TORSDOF 10
ENDMDL
MODEL 6
REMARK VINA RESULT:      -9.3      1.781      7.571
REMARK  10 active torsions:
REMARK  status: ('A' for Active; 'I' for Inactive)
REMARK    1  A    between atoms: O_2  and  C_3 
REMARK    2  A    between atoms: C_6  and  C_7 
REMARK    3  A    between atoms: C_7  and  C_8 
REMARK    4  A    between atoms: C_8  and  N_9 
REMARK    5  A    between atoms: N_12  and  C_13 
REMARK    6  A    between atoms: C_16  and  O_17 
REMARK    7  A    between atoms: C_23  and  C_24 
REMARK    8  A    between atoms: C_24  and  C_25 
REMARK       I    between atoms: C_25  and  N_26 
REMARK    9  A    between atoms: N_26  and  C_27 
REMARK   10  A    between atoms: C_30  and  O_31 
ROOT
HETATM    1  N   UNL     1       5.471  26.261  52.197  1.00  0.00    -0.319 N 
HETATM    2  C   UNL     1       4.887  26.477  50.953  1.00  0.00     0.332 A 
HETATM    3  O   UNL     1       4.600  25.565  50.190  1.00  0.00    -0.246 OA
HETATM    4  N   UNL     1       4.764  27.839  50.756  1.00  0.00    -0.232 N 
HETATM    5  C   UNL     1       5.298  28.501  51.837  1.00  0.00     0.256 A 
HETATM    6  O   UNL     1       5.443  29.709  52.010  1.00  0.00    -0.270 OA
HETATM    7  C   UNL     1       5.732  27.494  52.905  1.00  0.00     0.190 A 
ENDROOT
BRANCH   7   8
HETATM    8  C   UNL     1       7.185  27.743  53.287  1.00  0.00     0.138 C 
BRANCH   8   9
HETATM    9  C   UNL     1       7.305  27.921  54.791  1.00  0.00     0.224 C 
HETATM   10  N   UNL     1       7.983  29.066  55.156  1.00  0.00    -0.327 N 
HETATM   11  H   UNL     1       8.252  29.706  54.407  1.00  0.00     0.169 HD
HETATM   12  O   UNL     1       6.798  27.097  55.545  1.00  0.00    -0.273 OA
BRANCH  10  13
HETATM   13  C   UNL     1       8.269  29.531  56.455  1.00  0.00     0.034 A 
HETATM   14  C   UNL     1       7.305  29.909  57.385  1.00  0.00     0.032 A 
HETATM   15  C   UNL     1       7.692  30.359  58.655  1.00  0.00     0.039 A 
HETATM   16  C   UNL     1       9.040  30.438  59.010  1.00  0.00     0.068 A 
HETATM   17  C   UNL     1      10.007  30.057  58.082  1.00  0.00     0.039 A 
HETATM   18  C   UNL     1       9.622  29.605  56.814  1.00  0.00     0.032 A 
BRANCH  16  19
HETATM   19  O   UNL     1       9.277  30.896  60.275  1.00  0.00    -0.356 OA
HETATM   20  C   UNL     1       8.806  32.201  60.586  1.00  0.00     0.210 C 
ENDBRANCH  16  19
ENDBRANCH  10  13
ENDBRANCH   8   9
ENDBRANCH   7   8
BRANCH   1  21
HETATM   21  C   UNL     1       5.831  24.938  52.703  1.00  0.00     0.133 C 
BRANCH  21  22
HETATM   22  C   UNL     1       7.242  24.492  52.313  1.00  0.00     0.058 C 
BRANCH  22  23
HETATM   23  C   UNL     1       7.755  23.426  53.250  1.00  0.00    -0.057 A 
HETATM   24  C   UNL     1       8.075  23.741  54.575  1.00  0.00     0.010 A 
HETATM   25  C   UNL     1       8.586  22.758  55.427  1.00  0.00     0.037 A 
HETATM   26  C   UNL     1       8.782  21.452  54.975  1.00  0.00     0.068 A 
HETATM   27  C   UNL     1       8.470  21.135  53.654  1.00  0.00     0.037 A 
HETATM   28  C   UNL     1       7.960  22.118  52.797  1.00  0.00     0.010 A 
BRANCH  26  29
HETATM   29  O   UNL     1       9.287  20.593  55.912  1.00  0.00    -0.356 OA
HETATM   30  C   UNL     1       8.740  20.677  57.222  1.00  0.00     0.210 C 
ENDBRANCH  26  29
ENDBRANCH  22  23
ENDBRANCH  21  22
ENDBRANCH   1  21
BRANCH   4  31
HETATM   31  C   UNL     1       4.232  28.460  49.583  1.00  0.00     0.047 A 
HETATM   32  C   UNL     1       5.056  28.834  48.512  1.00  0.00     0.033 A 
HETATM   33  C   UNL     1       4.531  29.441  47.362  1.00  0.00     0.039 A 
HETATM   34  C   UNL     1       3.169  29.703  47.248  1.00  0.00     0.068 A 
HETATM   35  C   UNL     1       2.333  29.339  48.296  1.00  0.00     0.039 A 
HETATM   36  C   UNL     1       2.860  28.723  49.443  1.00  0.00     0.033 A 
BRANCH  34  37
HETATM   37  O   UNL     1       2.789  30.304  46.083  1.00  0.00    -0.356 OA
HETATM   38  C   UNL     1       3.676  31.274  45.540  1.00  0.00     0.210 C 
ENDBRANCH  34  37
ENDBRANCH   4  31
TORSDOF 10
ENDMDL
MODEL 7
REMARK VINA RESULT:      -9.3      1.138      9.293
REMARK  10 active torsions:
REMARK  status: ('A' for Active; 'I' for Inactive)
REMARK    1  A    between atoms: O_2  and  C_3 
REMARK    2  A    between atoms: C_6  and  C_7 
REMARK    3  A    between atoms: C_7  and  C_8 
REMARK    4  A    between atoms: C_8  and  N_9 
REMARK    5  A    between atoms: N_12  and  C_13 
REMARK    6  A    between atoms: C_16  and  O_17 
REMARK    7  A    between atoms: C_23  and  C_24 
REMARK    8  A    between atoms: C_24  and  C_25 
REMARK       I    between atoms: C_25  and  N_26 
REMARK    9  A    between atoms: N_26  and  C_27 
REMARK   10  A    between atoms: C_30  and  O_31 
ROOT
HETATM    1  N   UNL     1       6.364  27.563  54.655  1.00  0.00    -0.319 N 
HETATM    2  C   UNL     1       7.047  26.392  54.969  1.00  0.00     0.332 A 
HETATM    3  O   UNL     1       7.928  26.348  55.816  1.00  0.00    -0.246 OA
HETATM    4  N   UNL     1       6.592  25.383  54.142  1.00  0.00    -0.232 N 
HETATM    5  C   UNL     1       5.657  25.899  53.275  1.00  0.00     0.256 A 
HETATM    6  O   UNL     1       5.075  25.343  52.346  1.00  0.00    -0.270 OA
HETATM    7  C   UNL     1       5.383  27.366  53.611  1.00  0.00     0.190 A 
ENDROOT
BRANCH   7   8
HETATM    8  C   UNL     1       5.563  28.223  52.365  1.00  0.00     0.138 C 
BRANCH   8   9
HETATM    9  C   UNL     1       4.290  28.211  51.536  1.00  0.00     0.224 C 
HETATM   10  N   UNL     1       4.460  27.679  50.275  1.00  0.00    -0.327 N 
HETATM   11  H   UNL     1       5.374  27.278  50.058  1.00  0.00     0.169 HD
HETATM   12  O   UNL     1       3.242  28.627  52.022  1.00  0.00    -0.273 OA
BRANCH  10  13
HETATM   13  C   UNL     1       3.496  27.520  49.260  1.00  0.00     0.034 A 
HETATM   14  C   UNL     1       2.520  28.462  48.949  1.00  0.00     0.032 A 
HETATM   15  C   UNL     1       1.603  28.210  47.919  1.00  0.00     0.039 A 
HETATM   16  C   UNL     1       1.648  27.019  47.192  1.00  0.00     0.068 A 
HETATM   17  C   UNL     1       2.626  26.076  47.499  1.00  0.00     0.039 A 
HETATM   18  C   UNL     1       3.544  26.327  48.526  1.00  0.00     0.032 A 
BRANCH  16  19
HETATM   19  O   UNL     1       0.695  26.901  46.219  1.00  0.00    -0.356 OA
HETATM   20  C   UNL     1      -0.358  27.857  46.231  1.00  0.00     0.210 C 
ENDBRANCH  16  19
ENDBRANCH  10  13
ENDBRANCH   8   9
ENDBRANCH   7   8
BRANCH   1  21
HETATM   21  C   UNL     1       6.648  28.856  55.275  1.00  0.00     0.133 C 
BRANCH  21  22
HETATM   22  C   UNL     1       6.160  28.967  56.721  1.00  0.00     0.058 C 
BRANCH  22  23
HETATM   23  C   UNL     1       7.067  29.854  57.536  1.00  0.00    -0.057 A 
HETATM   24  C   UNL     1       8.441  29.595  57.600  1.00  0.00     0.010 A 
HETATM   25  C   UNL     1       9.272  30.396  58.387  1.00  0.00     0.037 A 
HETATM   26  C   UNL     1       8.750  31.465  59.118  1.00  0.00     0.068 A 
HETATM   27  C   UNL     1       7.381  31.723  59.062  1.00  0.00     0.037 A 
HETATM   28  C   UNL     1       6.545  30.921  58.276  1.00  0.00     0.010 A 
BRANCH  26  29
HETATM   29  O   UNL     1       9.672  32.166  59.845  1.00  0.00    -0.356 OA
HETATM   30  C   UNL     1       9.660  31.973  61.254  1.00  0.00     0.210 C 
ENDBRANCH  26  29
ENDBRANCH  22  23
ENDBRANCH  21  22
ENDBRANCH   1  21
BRANCH   4  31
HETATM   31  C   UNL     1       7.072  24.036  54.140  1.00  0.00     0.047 A 
HETATM   32  C   UNL     1       7.097  23.264  55.310  1.00  0.00     0.033 A 
HETATM   33  C   UNL     1       7.566  21.943  55.305  1.00  0.00     0.039 A 
HETATM   34  C   UNL     1       8.033  21.352  54.135  1.00  0.00     0.068 A 
HETATM   35  C   UNL     1       8.015  22.098  52.962  1.00  0.00     0.039 A 
HETATM   36  C   UNL     1       7.537  23.418  52.968  1.00  0.00     0.033 A 
BRANCH  34  37
HETATM   37  O   UNL     1       8.468  20.065  54.267  1.00  0.00    -0.356 OA
HETATM   38  C   UNL     1       8.916  19.667  55.557  1.00  0.00     0.210 C 
ENDBRANCH  34  37
ENDBRANCH   4  31
TORSDOF 10
ENDMDL
MODEL 8
REMARK VINA RESULT:      -9.0      1.778      6.967
REMARK  10 active torsions:
REMARK  status: ('A' for Active; 'I' for Inactive)
REMARK    1  A    between atoms: O_2  and  C_3 
REMARK    2  A    between atoms: C_6  and  C_7 
REMARK    3  A    between atoms: C_7  and  C_8 
REMARK    4  A    between atoms: C_8  and  N_9 
REMARK    5  A    between atoms: N_12  and  C_13 
REMARK    6  A    between atoms: C_16  and  O_17 
REMARK    7  A    between atoms: C_23  and  C_24 
REMARK    8  A    between atoms: C_24  and  C_25 
REMARK       I    between atoms: C_25  and  N_26 
REMARK    9  A    between atoms: N_26  and  C_27 
REMARK   10  A    between atoms: C_30  and  O_31 
ROOT
HETATM    1  N   UNL     1       5.150  27.381  54.740  1.00  0.00    -0.319 N 
HETATM    2  C   UNL     1       4.696  27.208  53.436  1.00  0.00     0.332 A 
HETATM    3  O   UNL     1       4.732  26.129  52.861  1.00  0.00    -0.246 OA
HETATM    4  N   UNL     1       4.279  28.432  52.950  1.00  0.00    -0.232 N 
HETATM    5  C   UNL     1       4.499  29.396  53.907  1.00  0.00     0.256 A 
HETATM    6  O   UNL     1       4.330  30.611  53.834  1.00  0.00    -0.270 OA
HETATM    7  C   UNL     1       5.018  28.748  55.192  1.00  0.00     0.190 A 
ENDROOT
BRANCH   7   8
HETATM    8  C   UNL     1       6.310  29.429  55.626  1.00  0.00     0.138 C 
BRANCH   8   9
HETATM    9  C   UNL     1       6.276  29.708  57.119  1.00  0.00     0.224 C 
HETATM   10  N   UNL     1       7.358  30.439  57.566  1.00  0.00    -0.327 N 
HETATM   11  H   UNL     1       8.009  30.784  56.860  1.00  0.00     0.169 HD
HETATM   12  O   UNL     1       5.330  29.312  57.792  1.00  0.00    -0.273 OA
BRANCH  10  13
HETATM   13  C   UNL     1       7.636  30.867  58.879  1.00  0.00     0.034 A 
HETATM   14  C   UNL     1       8.576  30.274  59.716  1.00  0.00     0.032 A 
HETATM   15  C   UNL     1       8.781  30.775  61.010  1.00  0.00     0.039 A 
HETATM   16  C   UNL     1       8.050  31.867  61.481  1.00  0.00     0.068 A 
HETATM   17  C   UNL     1       7.111  32.464  60.644  1.00  0.00     0.039 A 
HETATM   18  C   UNL     1       6.907  31.967  59.351  1.00  0.00     0.032 A 
BRANCH  16  19
HETATM   19  O   UNL     1       8.346  32.250  62.759  1.00  0.00    -0.356 OA
HETATM   20  C   UNL     1       7.259  32.679  63.570  1.00  0.00     0.210 C 
ENDBRANCH  16  19
ENDBRANCH  10  13
ENDBRANCH   8   9
ENDBRANCH   7   8
BRANCH   1  21
HETATM   21  C   UNL     1       5.745  26.311  55.538  1.00  0.00     0.133 C 
BRANCH  21  22
HETATM   22  C   UNL     1       7.222  26.058  55.226  1.00  0.00     0.058 C 
BRANCH  22  23
HETATM   23  C   UNL     1       7.481  24.596  54.964  1.00  0.00    -0.057 A 
HETATM   24  C   UNL     1       7.697  24.136  53.660  1.00  0.00     0.010 A 
HETATM   25  C   UNL     1       7.898  22.775  53.418  1.00  0.00     0.037 A 
HETATM   26  C   UNL     1       7.889  21.854  54.467  1.00  0.00     0.068 A 
HETATM   27  C   UNL     1       7.668  22.306  55.768  1.00  0.00     0.037 A 
HETATM   28  C   UNL     1       7.464  23.669  56.013  1.00  0.00     0.010 A 
BRANCH  26  29
HETATM   29  O   UNL     1       8.098  20.556  54.091  1.00  0.00    -0.356 OA
HETATM   30  C   UNL     1       8.324  20.317  52.708  1.00  0.00     0.210 C 
ENDBRANCH  26  29
ENDBRANCH  22  23
ENDBRANCH  21  22
ENDBRANCH   1  21
BRANCH   4  31
HETATM   31  C   UNL     1       3.770  28.670  51.635  1.00  0.00     0.047 A 
HETATM   32  C   UNL     1       2.412  28.932  51.410  1.00  0.00     0.033 A 
HETATM   33  C   UNL     1       1.916  29.167  50.119  1.00  0.00     0.039 A 
HETATM   34  C   UNL     1       2.758  29.138  49.012  1.00  0.00     0.068 A 
HETATM   35  C   UNL     1       4.109  28.882  49.211  1.00  0.00     0.039 A 
HETATM   36  C   UNL     1       4.605  28.656  50.505  1.00  0.00     0.033 A 
BRANCH  34  37
HETATM   37  O   UNL     1       2.150  29.374  47.813  1.00  0.00    -0.356 OA
HETATM   38  C   UNL     1       1.417  28.298  47.240  1.00  0.00     0.210 C 
ENDBRANCH  34  37
ENDBRANCH   4  31
TORSDOF 10
ENDMDL
MODEL 9
REMARK VINA RESULT:      -8.9      1.807      9.243
REMARK  10 active torsions:
REMARK  status: ('A' for Active; 'I' for Inactive)
REMARK    1  A    between atoms: O_2  and  C_3 
REMARK    2  A    between atoms: C_6  and  C_7 
REMARK    3  A    between atoms: C_7  and  C_8 
REMARK    4  A    between atoms: C_8  and  N_9 
REMARK    5  A    between atoms: N_12  and  C_13 
REMARK    6  A    between atoms: C_16  and  O_17 
REMARK    7  A    between atoms: C_23  and  C_24 
REMARK    8  A    between atoms: C_24  and  C_25 
REMARK       I    between atoms: C_25  and  N_26 
REMARK    9  A    between atoms: N_26  and  C_27 
REMARK   10  A    between atoms: C_30  and  O_31 
ROOT
HETATM    1  N   UNL     1       6.391  28.079  56.221  1.00  0.00    -0.319 N 
HETATM    2  C   UNL     1       7.003  28.390  57.432  1.00  0.00     0.332 A 
HETATM    3  O   UNL     1       7.519  27.545  58.149  1.00  0.00    -0.246 OA
HETATM    4  N   UNL     1       6.862  29.746  57.658  1.00  0.00    -0.232 N 
HETATM    5  C   UNL     1       6.134  30.302  56.632  1.00  0.00     0.256 A 
HETATM    6  O   UNL     1       5.738  31.458  56.502  1.00  0.00    -0.270 OA
HETATM    7  C   UNL     1       5.840  29.244  55.567  1.00  0.00     0.190 A 
ENDROOT
BRANCH   7   8
HETATM    8  C   UNL     1       4.344  29.199  55.284  1.00  0.00     0.138 C 
BRANCH   8   9
HETATM    9  C   UNL     1       4.088  29.384  53.798  1.00  0.00     0.224 C 
HETATM   10  N   UNL     1       4.331  28.248  53.054  1.00  0.00    -0.327 N 
HETATM   11  H   UNL     1       4.567  27.397  53.567  1.00  0.00     0.169 HD
HETATM   12  O   UNL     1       3.679  30.462  53.379  1.00  0.00    -0.273 OA
BRANCH  10  13
HETATM   13  C   UNL     1       4.197  28.075  51.662  1.00  0.00     0.034 A 
HETATM   14  C   UNL     1       5.077  27.342  50.872  1.00  0.00     0.032 A 
HETATM   15  C   UNL     1       4.857  27.228  49.493  1.00  0.00     0.039 A 
HETATM   16  C   UNL     1       3.760  27.844  48.887  1.00  0.00     0.068 A 
HETATM   17  C   UNL     1       2.875  28.575  49.676  1.00  0.00     0.039 A 
HETATM   18  C   UNL     1       3.093  28.688  51.054  1.00  0.00     0.032 A 
BRANCH  16  19
HETATM   19  O   UNL     1       3.667  27.655  47.537  1.00  0.00    -0.356 OA
HETATM   20  C   UNL     1       2.359  27.494  46.999  1.00  0.00     0.210 C 
ENDBRANCH  16  19
ENDBRANCH  10  13
ENDBRANCH   8   9
ENDBRANCH   7   8
BRANCH   1  21
HETATM   21  C   UNL     1       6.271  26.718  55.703  1.00  0.00     0.133 C 
BRANCH  21  22
HETATM   22  C   UNL     1       7.348  26.352  54.678  1.00  0.00     0.058 C 
BRANCH  22  23
HETATM   23  C   UNL     1       7.524  24.857  54.583  1.00  0.00    -0.057 A 
HETATM   24  C   UNL     1       7.685  24.239  53.338  1.00  0.00     0.010 A 
HETATM   25  C   UNL     1       7.810  22.850  53.253  1.00  0.00     0.037 A 
HETATM   26  C   UNL     1       7.777  22.058  54.401  1.00  0.00     0.068 A 
HETATM   27  C   UNL     1       7.611  22.668  55.644  1.00  0.00     0.037 A 
HETATM   28  C   UNL     1       7.484  24.060  55.733  1.00  0.00     0.010 A 
BRANCH  26  29
HETATM   29  O   UNL     1       7.909  20.716  54.175  1.00  0.00    -0.356 OA
HETATM   30  C   UNL     1       8.400  20.325  52.899  1.00  0.00     0.210 C 
ENDBRANCH  26  29
ENDBRANCH  22  23
ENDBRANCH  21  22
ENDBRANCH   1  21
BRANCH   4  31
HETATM   31  C   UNL     1       7.336  30.445  58.812  1.00  0.00     0.047 A 
HETATM   32  C   UNL     1       8.569  30.136  59.403  1.00  0.00     0.033 A 
HETATM   33  C   UNL     1       9.032  30.825  60.534  1.00  0.00     0.039 A 
HETATM   34  C   UNL     1       8.276  31.837  61.116  1.00  0.00     0.068 A 
HETATM   35  C   UNL     1       7.051  32.162  60.546  1.00  0.00     0.039 A 
HETATM   36  C   UNL     1       6.593  31.477  59.409  1.00  0.00     0.033 A 
BRANCH  34  37
HETATM   37  O   UNL     1       8.835  32.422  62.215  1.00  0.00    -0.356 OA
HETATM   38  C   UNL     1       7.986  32.624  63.338  1.00  0.00     0.210 C 
ENDBRANCH  34  37
ENDBRANCH   4  31
TORSDOF 10
ENDMDL
MODEL 10
REMARK VINA RESULT:      -8.7      1.595      7.773
REMARK  10 active torsions:
REMARK  status: ('A' for Active; 'I' for Inactive)
REMARK    1  A    between atoms: O_2  and  C_3 
REMARK    2  A    between atoms: C_6  and  C_7 
REMARK    3  A    between atoms: C_7  and  C_8 
REMARK    4  A    between atoms: C_8  and  N_9 
REMARK    5  A    between atoms: N_12  and  C_13 
REMARK    6  A    between atoms: C_16  and  O_17 
REMARK    7  A    between atoms: C_23  and  C_24 
REMARK    8  A    between atoms: C_24  and  C_25 
REMARK       I    between atoms: C_25  and  N_26 
REMARK    9  A    between atoms: N_26  and  C_27 
REMARK   10  A    between atoms: C_30  and  O_31 
ROOT
HETATM    1  N   UNL     1       4.837  30.021  54.680  1.00  0.00    -0.319 N 
HETATM    2  C   UNL     1       5.012  30.993  55.660  1.00  0.00     0.332 A 
HETATM    3  O   UNL     1       4.682  32.160  55.500  1.00  0.00    -0.246 OA
HETATM    4  N   UNL     1       5.643  30.415  56.745  1.00  0.00    -0.232 N 
HETATM    5  C   UNL     1       5.912  29.097  56.460  1.00  0.00     0.256 A 
HETATM    6  O   UNL     1       6.521  28.269  57.134  1.00  0.00    -0.270 OA
HETATM    7  C   UNL     1       5.322  28.725  55.098  1.00  0.00     0.190 A 
ENDROOT
BRANCH   7   8
HETATM    8  C   UNL     1       6.403  28.108  54.220  1.00  0.00     0.138 C 
BRANCH   8   9
HETATM    9  C   UNL     1       6.198  26.606  54.119  1.00  0.00     0.224 C 
HETATM   10  N   UNL     1       7.357  25.880  54.305  1.00  0.00    -0.327 N 
HETATM   11  H   UNL     1       8.195  26.401  54.570  1.00  0.00     0.169 HD
HETATM   12  O   UNL     1       5.075  26.155  53.917  1.00  0.00    -0.273 OA
BRANCH  10  13
HETATM   13  C   UNL     1       7.522  24.481  54.277  1.00  0.00     0.034 A 
HETATM   14  C   UNL     1       7.408  23.654  55.390  1.00  0.00     0.032 A 
HETATM   15  C   UNL     1       7.589  22.270  55.260  1.00  0.00     0.039 A 
HETATM   16  C   UNL     1       7.888  21.698  54.022  1.00  0.00     0.068 A 
HETATM   17  C   UNL     1       7.999  22.524  52.905  1.00  0.00     0.039 A 
HETATM   18  C   UNL     1       7.815  23.905  53.034  1.00  0.00     0.032 A 
BRANCH  16  19
HETATM   19  O   UNL     1       8.043  20.340  54.036  1.00  0.00    -0.356 OA
HETATM   20  C   UNL     1       8.831  19.795  55.087  1.00  0.00     0.210 C 
ENDBRANCH  16  19
ENDBRANCH  10  13
ENDBRANCH   8   9
ENDBRANCH   7   8
BRANCH   1  21
HETATM   21  C   UNL     1       4.278  30.296  53.359  1.00  0.00     0.133 C 
BRANCH  21  22
HETATM   22  C   UNL     1       3.166  29.328  52.946  1.00  0.00     0.058 C 
BRANCH  22  23
HETATM   23  C   UNL     1       3.324  28.896  51.510  1.00  0.00    -0.057 A 
HETATM   24  C   UNL     1       2.290  29.100  50.590  1.00  0.00     0.010 A 
HETATM   25  C   UNL     1       2.427  28.663  49.270  1.00  0.00     0.037 A 
HETATM   26  C   UNL     1       3.591  28.020  48.847  1.00  0.00     0.068 A 
HETATM   27  C   UNL     1       4.623  27.810  49.762  1.00  0.00     0.037 A 
HETATM   28  C   UNL     1       4.488  28.244  51.086  1.00  0.00     0.010 A 
BRANCH  26  29
HETATM   29  O   UNL     1       3.593  27.645  47.532  1.00  0.00    -0.356 OA
HETATM   30  C   UNL     1       2.932  26.428  47.211  1.00  0.00     0.210 C 
ENDBRANCH  26  29
ENDBRANCH  22  23
ENDBRANCH  21  22
ENDBRANCH   1  21
BRANCH   4  31
HETATM   31  C   UNL     1       6.019  31.099  57.943  1.00  0.00     0.047 A 
HETATM   32  C   UNL     1       7.352  31.144  58.375  1.00  0.00     0.033 A 
HETATM   33  C   UNL     1       7.719  31.817  59.550  1.00  0.00     0.039 A 
HETATM   34  C   UNL     1       6.766  32.458  60.335  1.00  0.00     0.068 A 
HETATM   35  C   UNL     1       5.439  32.430  59.925  1.00  0.00     0.039 A 
HETATM   36  C   UNL     1       5.075  31.762  58.744  1.00  0.00     0.033 A 
BRANCH  34  37
HETATM   37  O   UNL     1       7.252  33.069  61.455  1.00  0.00    -0.356 OA
HETATM   38  C   UNL     1       7.761  32.223  62.479  1.00  0.00     0.210 C 
ENDBRANCH  34  37
ENDBRANCH   4  31
TORSDOF 10
ENDMDL
