MODEL 1
REMARK VINA RESULT:      -9.5      0.000      0.000
REMARK  6 active torsions:
REMARK  status: ('A' for Active; 'I' for Inactive)
REMARK    1  A    between atoms: N_7  and  C_8 
REMARK    2  A    between atoms: C_8  and  C_9 
REMARK    3  A    between atoms: C_9  and  N_10 
REMARK    4  A    between atoms: C_17  and  C_18 
REMARK    5  A    between atoms: C_18  and  N_19 
REMARK       I    between atoms: N_19  and  C_20 
REMARK    6  A    between atoms: C_20  and  C_21 
ROOT
HETATM    1  C   UNL     1       4.837  30.792  56.224  1.00  0.00     0.001 A 
HETATM    2  C   UNL     1       6.003  30.464  56.924  1.00  0.00     0.014 A 
HETATM    3  C   UNL     1       6.343  29.121  57.125  1.00  0.00     0.008 A 
HETATM    4  C   UNL     1       5.518  28.119  56.619  1.00  0.00     0.046 A 
HETATM    5  C   UNL     1       5.888  26.703  56.809  1.00  0.00     0.274 A 
HETATM    6  O   UNL     1       5.208  25.808  56.315  1.00  0.00    -0.266 OA
HETATM    7  N   UNL     1       7.033  26.457  57.560  1.00  0.00    -0.232 N 
HETATM    8  N   UNL     1       7.853  27.433  58.043  1.00  0.00    -0.172 NA
HETATM    9  C   UNL     1       7.554  28.685  57.856  1.00  0.00     0.084 A 
HETATM   10  C   UNL     1       4.351  28.449  55.917  1.00  0.00     0.018 A 
HETATM   11  C   UNL     1       4.012  29.786  55.723  1.00  0.00     0.001 A 
ENDROOT
BRANCH   9  12
HETATM   12  C   UNL     1       8.531  29.719  58.409  1.00  0.00     0.185 C 
BRANCH  12  13
HETATM   13  N   UNL     1       7.963  30.343  59.586  1.00  0.00    -0.351 N 
HETATM   14  C   UNL     1       8.191  31.665  59.895  1.00  0.00     0.253 C 
HETATM   15  O   UNL     1       8.784  32.431  59.139  1.00  0.00    -0.268 OA
HETATM   16  H   UNL     1       7.440  29.772  60.239  1.00  0.00     0.163 HD
BRANCH  14  17
HETATM   17  C   UNL     1       7.616  32.176  61.178  1.00  0.00     0.048 A 
HETATM   18  C   UNL     1       6.334  32.726  61.359  1.00  0.00     0.022 A 
HETATM   19  I   UNL     1       4.848  32.861  59.875  1.00  0.00    -0.043 I 
HETATM   20  C   UNL     1       5.943  33.179  62.630  1.00  0.00     0.019 A 
HETATM   21  C   UNL     1       6.804  33.073  63.722  1.00  0.00     0.001 A 
HETATM   22  C   UNL     1       8.063  32.509  63.558  1.00  0.00     0.001 A 
HETATM   23  C   UNL     1       8.464  32.063  62.297  1.00  0.00     0.018 A 
ENDBRANCH  14  17
ENDBRANCH  12  13
ENDBRANCH   9  12
BRANCH   7  24
HETATM   24  C   UNL     1       7.528  25.091  57.660  1.00  0.00     0.182 C 
BRANCH  24  25
HETATM   25  C   UNL     1       8.392  24.666  56.467  1.00  0.00     0.256 C 
BRANCH  25  26
HETATM   26  N   UNL     1       7.578  23.931  55.414  1.00  0.00    -0.070 N 
HETATM   27  H   UNL     1       6.588  23.973  55.694  1.00  0.00     0.279 HD
HETATM   28  C   UNL     1       7.954  22.461  55.308  1.00  0.00     0.235 C 
HETATM   29  C   UNL     1       8.599  22.330  53.944  1.00  0.00     0.029 C 
HETATM   30  C   UNL     1       7.826  23.325  53.105  1.00  0.00     0.029 C 
HETATM   31  C   UNL     1       7.713  24.526  54.022  1.00  0.00     0.235 C 
ENDBRANCH  25  26
ENDBRANCH  24  25
ENDBRANCH   7  24
TORSDOF 6
ENDMDL
MODEL 2
REMARK VINA RESULT:      -9.4      4.348      8.749
REMARK  6 active torsions:
REMARK  status: ('A' for Active; 'I' for Inactive)
REMARK    1  A    between atoms: N_7  and  C_8 
REMARK    2  A    between atoms: C_8  and  C_9 
REMARK    3  A    between atoms: C_9  and  N_10 
REMARK    4  A    between atoms: C_17  and  C_18 
REMARK    5  A    between atoms: C_18  and  N_19 
REMARK       I    between atoms: N_19  and  C_20 
REMARK    6  A    between atoms: C_20  and  C_21 
ROOT
HETATM    1  C   UNL     1       8.166  20.650  53.290  1.00  0.00     0.001 A 
HETATM    2  C   UNL     1       7.973  21.978  52.898  1.00  0.00     0.014 A 
HETATM    3  C   UNL     1       7.939  22.993  53.861  1.00  0.00     0.008 A 
HETATM    4  C   UNL     1       8.105  22.671  55.207  1.00  0.00     0.046 A 
HETATM    5  C   UNL     1       8.093  23.742  56.221  1.00  0.00     0.274 A 
HETATM    6  O   UNL     1       8.301  23.485  57.404  1.00  0.00    -0.266 OA
HETATM    7  N   UNL     1       7.843  25.030  55.759  1.00  0.00    -0.232 N 
HETATM    8  N   UNL     1       7.698  25.354  54.443  1.00  0.00    -0.172 NA
HETATM    9  C   UNL     1       7.736  24.423  53.536  1.00  0.00     0.084 A 
HETATM   10  C   UNL     1       8.298  21.339  55.598  1.00  0.00     0.018 A 
HETATM   11  C   UNL     1       8.327  20.331  54.637  1.00  0.00     0.001 A 
ENDROOT
BRANCH   9  12
HETATM   12  C   UNL     1       7.586  24.866  52.083  1.00  0.00     0.185 C 
BRANCH  12  13
HETATM   13  N   UNL     1       6.723  26.027  52.017  1.00  0.00    -0.351 N 
HETATM   14  C   UNL     1       5.365  25.919  51.815  1.00  0.00     0.253 C 
HETATM   15  O   UNL     1       4.780  24.839  51.800  1.00  0.00    -0.268 OA
HETATM   16  H   UNL     1       7.140  26.950  52.049  1.00  0.00     0.163 HD
BRANCH  14  17
HETATM   17  C   UNL     1       4.590  27.192  51.686  1.00  0.00     0.048 A 
HETATM   18  C   UNL     1       4.200  27.815  50.487  1.00  0.00     0.022 A 
HETATM   19  I   UNL     1       4.514  27.041  48.555  1.00  0.00    -0.043 I 
HETATM   20  C   UNL     1       3.484  29.024  50.530  1.00  0.00     0.019 A 
HETATM   21  C   UNL     1       3.138  29.605  51.749  1.00  0.00     0.001 A 
HETATM   22  C   UNL     1       3.498  28.984  52.939  1.00  0.00     0.001 A 
HETATM   23  C   UNL     1       4.216  27.788  52.907  1.00  0.00     0.018 A 
ENDBRANCH  14  17
ENDBRANCH  12  13
ENDBRANCH   9  12
BRANCH   7  24
HETATM   24  C   UNL     1       7.962  26.146  56.688  1.00  0.00     0.182 C 
BRANCH  24  25
HETATM   25  C   UNL     1       6.790  27.133  56.611  1.00  0.00     0.256 C 
BRANCH  25  26
HETATM   26  N   UNL     1       7.255  28.573  56.750  1.00  0.00    -0.070 N 
HETATM   27  H   UNL     1       6.448  29.184  56.563  1.00  0.00     0.279 HD
HETATM   28  C   UNL     1       8.337  28.935  55.744  1.00  0.00     0.235 C 
HETATM   29  C   UNL     1       9.579  29.153  56.583  1.00  0.00     0.029 C 
HETATM   30  C   UNL     1       9.027  29.750  57.859  1.00  0.00     0.029 C 
HETATM   31  C   UNL     1       7.802  28.901  58.129  1.00  0.00     0.235 C 
ENDBRANCH  25  26
ENDBRANCH  24  25
ENDBRANCH   7  24
TORSDOF 6
ENDMDL
MODEL 3
REMARK VINA RESULT:      -9.1      3.624      9.025
REMARK  6 active torsions:
REMARK  status: ('A' for Active; 'I' for Inactive)
REMARK    1  A    between atoms: N_7  and  C_8 
REMARK    2  A    between atoms: C_8  and  C_9 
REMARK    3  A    between atoms: C_9  and  N_10 
REMARK    4  A    between atoms: C_17  and  C_18 
REMARK    5  A    between atoms: C_18  and  N_19 
REMARK       I    between atoms: N_19  and  C_20 
REMARK    6  A    between atoms: C_20  and  C_21 
ROOT
HETATM    1  C   UNL     1       8.000  20.898  53.842  1.00  0.00     0.001 A 
HETATM    2  C   UNL     1       7.818  22.109  53.167  1.00  0.00     0.014 A 
HETATM    3  C   UNL     1       7.655  23.296  53.890  1.00  0.00     0.008 A 
HETATM    4  C   UNL     1       7.684  23.262  55.283  1.00  0.00     0.046 A 
HETATM    5  C   UNL     1       7.538  24.515  56.047  1.00  0.00     0.274 A 
HETATM    6  O   UNL     1       7.624  24.514  57.272  1.00  0.00    -0.266 OA
HETATM    7  N   UNL     1       7.307  25.670  55.305  1.00  0.00    -0.232 N 
HETATM    8  N   UNL     1       7.296  25.712  53.943  1.00  0.00    -0.172 NA
HETATM    9  C   UNL     1       7.454  24.619  53.257  1.00  0.00     0.084 A 
HETATM   10  C   UNL     1       7.868  22.048  55.959  1.00  0.00     0.018 A 
HETATM   11  C   UNL     1       8.024  20.868  55.235  1.00  0.00     0.001 A 
ENDROOT
BRANCH   9  12
HETATM   12  C   UNL     1       7.449  24.749  51.737  1.00  0.00     0.185 C 
BRANCH  12  13
HETATM   13  N   UNL     1       6.754  25.962  51.356  1.00  0.00    -0.351 N 
HETATM   14  C   UNL     1       5.401  25.982  51.103  1.00  0.00     0.253 C 
HETATM   15  O   UNL     1       4.675  25.010  51.299  1.00  0.00    -0.268 OA
HETATM   16  H   UNL     1       7.292  26.807  51.203  1.00  0.00     0.163 HD
BRANCH  14  17
HETATM   17  C   UNL     1       4.810  27.276  50.641  1.00  0.00     0.048 A 
HETATM   18  C   UNL     1       4.258  28.280  51.455  1.00  0.00     0.022 A 
HETATM   19  I   UNL     1       4.229  28.261  53.560  1.00  0.00    -0.043 I 
HETATM   20  C   UNL     1       3.725  29.440  50.868  1.00  0.00     0.019 A 
HETATM   21  C   UNL     1       3.754  29.617  49.485  1.00  0.00     0.001 A 
HETATM   22  C   UNL     1       4.320  28.641  48.674  1.00  0.00     0.001 A 
HETATM   23  C   UNL     1       4.844  27.482  49.248  1.00  0.00     0.018 A 
ENDBRANCH  14  17
ENDBRANCH  12  13
ENDBRANCH   9  12
BRANCH   7  24
HETATM   24  C   UNL     1       7.298  26.955  55.991  1.00  0.00     0.182 C 
BRANCH  24  25
HETATM   25  C   UNL     1       7.909  28.093  55.162  1.00  0.00     0.256 C 
BRANCH  25  26
HETATM   26  N   UNL     1       7.838  29.424  55.893  1.00  0.00    -0.070 N 
HETATM   27  H   UNL     1       7.811  30.171  55.185  1.00  0.00     0.279 HD
HETATM   28  C   UNL     1       9.059  29.674  56.766  1.00  0.00     0.235 C 
HETATM   29  C   UNL     1       8.529  29.624  58.184  1.00  0.00     0.029 C 
HETATM   30  C   UNL     1       7.141  30.212  58.050  1.00  0.00     0.029 C 
HETATM   31  C   UNL     1       6.617  29.558  56.788  1.00  0.00     0.235 C 
ENDBRANCH  25  26
ENDBRANCH  24  25
ENDBRANCH   7  24
TORSDOF 6
ENDMDL
MODEL 4
REMARK VINA RESULT:      -9.0      4.678      9.571
REMARK  6 active torsions:
REMARK  status: ('A' for Active; 'I' for Inactive)
REMARK    1  A    between atoms: N_7  and  C_8 
REMARK    2  A    between atoms: C_8  and  C_9 
REMARK    3  A    between atoms: C_9  and  N_10 
REMARK    4  A    between atoms: C_17  and  C_18 
REMARK    5  A    between atoms: C_18  and  N_19 
REMARK       I    between atoms: N_19  and  C_20 
REMARK    6  A    between atoms: C_20  and  C_21 
ROOT
HETATM    1  C   UNL     1       8.037  22.754  52.975  1.00  0.00     0.001 A 
HETATM    2  C   UNL     1       7.618  24.016  52.544  1.00  0.00     0.014 A 
HETATM    3  C   UNL     1       6.918  24.856  53.417  1.00  0.00     0.008 A 
HETATM    4  C   UNL     1       6.651  24.430  54.717  1.00  0.00     0.046 A 
HETATM    5  C   UNL     1       5.935  25.324  55.646  1.00  0.00     0.274 A 
HETATM    6  O   UNL     1       5.746  24.991  56.813  1.00  0.00    -0.266 OA
HETATM    7  N   UNL     1       5.503  26.541  55.127  1.00  0.00    -0.232 N 
HETATM    8  N   UNL     1       5.777  26.971  53.863  1.00  0.00    -0.172 NA
HETATM    9  C   UNL     1       6.434  26.205  53.043  1.00  0.00     0.084 A 
HETATM   10  C   UNL     1       7.073  23.165  55.148  1.00  0.00     0.018 A 
HETATM   11  C   UNL     1       7.764  22.329  54.274  1.00  0.00     0.001 A 
ENDROOT
BRANCH   9  12
HETATM   12  C   UNL     1       6.718  26.764  51.652  1.00  0.00     0.185 C 
BRANCH  12  13
HETATM   13  N   UNL     1       5.559  26.573  50.805  1.00  0.00    -0.351 N 
HETATM   14  C   UNL     1       5.175  27.506  49.868  1.00  0.00     0.253 C 
HETATM   15  O   UNL     1       5.851  28.498  49.604  1.00  0.00    -0.268 OA
HETATM   16  H   UNL     1       4.972  25.761  50.954  1.00  0.00     0.163 HD
BRANCH  14  17
HETATM   17  C   UNL     1       3.916  27.235  49.109  1.00  0.00     0.048 A 
HETATM   18  C   UNL     1       2.701  27.933  49.225  1.00  0.00     0.022 A 
HETATM   19  I   UNL     1       2.385  29.630  50.430  1.00  0.00    -0.043 I 
HETATM   20  C   UNL     1       1.596  27.546  48.449  1.00  0.00     0.019 A 
HETATM   21  C   UNL     1       1.693  26.486  47.548  1.00  0.00     0.001 A 
HETATM   22  C   UNL     1       2.896  25.806  47.408  1.00  0.00     0.001 A 
HETATM   23  C   UNL     1       3.997  26.178  48.180  1.00  0.00     0.018 A 
ENDBRANCH  14  17
ENDBRANCH  12  13
ENDBRANCH   9  12
BRANCH   7  24
HETATM   24  C   UNL     1       4.920  27.524  56.030  1.00  0.00     0.182 C 
BRANCH  24  25
HETATM   25  C   UNL     1       5.837  28.723  56.302  1.00  0.00     0.256 C 
BRANCH  25  26
HETATM   26  N   UNL     1       7.273  28.291  56.551  1.00  0.00    -0.070 N 
HETATM   27  H   UNL     1       7.332  27.279  56.376  1.00  0.00     0.279 HD
HETATM   28  C   UNL     1       7.710  28.526  57.989  1.00  0.00     0.235 C 
HETATM   29  C   UNL     1       8.756  29.618  57.895  1.00  0.00     0.029 C 
HETATM   30  C   UNL     1       9.440  29.322  56.579  1.00  0.00     0.029 C 
HETATM   31  C   UNL     1       8.280  28.998  55.659  1.00  0.00     0.235 C 
ENDBRANCH  25  26
ENDBRANCH  24  25
ENDBRANCH   7  24
TORSDOF 6
ENDMDL
MODEL 5
REMARK VINA RESULT:      -8.9      4.115      8.708
REMARK  6 active torsions:
REMARK  status: ('A' for Active; 'I' for Inactive)
REMARK    1  A    between atoms: N_7  and  C_8 
REMARK    2  A    between atoms: C_8  and  C_9 
REMARK    3  A    between atoms: C_9  and  N_10 
REMARK    4  A    between atoms: C_17  and  C_18 
REMARK    5  A    between atoms: C_18  and  N_19 
REMARK       I    between atoms: N_19  and  C_20 
REMARK    6  A    between atoms: C_20  and  C_21 
ROOT
HETATM    1  C   UNL     1       8.349  22.319  53.976  1.00  0.00     0.001 A 
HETATM    2  C   UNL     1       7.218  23.111  53.755  1.00  0.00     0.014 A 
HETATM    3  C   UNL     1       6.938  24.184  54.609  1.00  0.00     0.008 A 
HETATM    4  C   UNL     1       7.797  24.461  55.671  1.00  0.00     0.046 A 
HETATM    5  C   UNL     1       7.517  25.607  56.556  1.00  0.00     0.274 A 
HETATM    6  O   UNL     1       8.296  25.904  57.458  1.00  0.00    -0.266 OA
HETATM    7  N   UNL     1       6.345  26.313  56.305  1.00  0.00    -0.232 N 
HETATM    8  N   UNL     1       5.511  26.058  55.257  1.00  0.00    -0.172 NA
HETATM    9  C   UNL     1       5.762  25.070  54.451  1.00  0.00     0.084 A 
HETATM   10  C   UNL     1       8.931  23.667  55.890  1.00  0.00     0.018 A 
HETATM   11  C   UNL     1       9.203  22.596  55.042  1.00  0.00     0.001 A 
ENDROOT
BRANCH   9  12
HETATM   12  C   UNL     1       4.793  24.860  53.291  1.00  0.00     0.185 C 
BRANCH  12  13
HETATM   13  N   UNL     1       4.638  26.100  52.558  1.00  0.00    -0.351 N 
HETATM   14  C   UNL     1       5.462  26.436  51.507  1.00  0.00     0.253 C 
HETATM   15  O   UNL     1       6.298  25.663  51.045  1.00  0.00    -0.268 OA
HETATM   16  H   UNL     1       3.948  26.771  52.871  1.00  0.00     0.163 HD
BRANCH  14  17
HETATM   17  C   UNL     1       5.254  27.777  50.878  1.00  0.00     0.048 A 
HETATM   18  C   UNL     1       4.794  28.027  49.573  1.00  0.00     0.022 A 
HETATM   19  I   UNL     1       4.167  26.557  48.203  1.00  0.00    -0.043 I 
HETATM   20  C   UNL     1       4.666  29.350  49.119  1.00  0.00     0.019 A 
HETATM   21  C   UNL     1       4.971  30.424  49.955  1.00  0.00     0.001 A 
HETATM   22  C   UNL     1       5.403  30.188  51.254  1.00  0.00     0.001 A 
HETATM   23  C   UNL     1       5.541  28.876  51.711  1.00  0.00     0.018 A 
ENDBRANCH  14  17
ENDBRANCH  12  13
ENDBRANCH   9  12
BRANCH   7  24
HETATM   24  C   UNL     1       6.088  27.538  57.051  1.00  0.00     0.182 C 
BRANCH  24  25
HETATM   25  C   UNL     1       6.066  28.795  56.172  1.00  0.00     0.256 C 
BRANCH  25  26
HETATM   26  N   UNL     1       7.205  29.742  56.512  1.00  0.00    -0.070 N 
HETATM   27  H   UNL     1       6.971  30.668  56.128  1.00  0.00     0.279 HD
HETATM   28  C   UNL     1       8.524  29.315  55.886  1.00  0.00     0.235 C 
HETATM   29  C   UNL     1       9.391  28.913  57.061  1.00  0.00     0.029 C 
HETATM   30  C   UNL     1       8.956  29.871  58.148  1.00  0.00     0.029 C 
HETATM   31  C   UNL     1       7.448  29.883  58.006  1.00  0.00     0.235 C 
ENDBRANCH  25  26
ENDBRANCH  24  25
ENDBRANCH   7  24
TORSDOF 6
ENDMDL
MODEL 6
REMARK VINA RESULT:      -8.8      3.133      4.673
REMARK  6 active torsions:
REMARK  status: ('A' for Active; 'I' for Inactive)
REMARK    1  A    between atoms: N_7  and  C_8 
REMARK    2  A    between atoms: C_8  and  C_9 
REMARK    3  A    between atoms: C_9  and  N_10 
REMARK    4  A    between atoms: C_17  and  C_18 
REMARK    5  A    between atoms: C_18  and  N_19 
REMARK       I    between atoms: N_19  and  C_20 
REMARK    6  A    between atoms: C_20  and  C_21 
ROOT
HETATM    1  C   UNL     1       4.801  28.107  50.856  1.00  0.00     0.001 A 
HETATM    2  C   UNL     1       4.997  28.284  52.229  1.00  0.00     0.014 A 
HETATM    3  C   UNL     1       5.408  27.206  53.022  1.00  0.00     0.008 A 
HETATM    4  C   UNL     1       5.627  25.963  52.432  1.00  0.00     0.046 A 
HETATM    5  C   UNL     1       6.085  24.832  53.261  1.00  0.00     0.274 A 
HETATM    6  O   UNL     1       6.344  23.746  52.749  1.00  0.00    -0.266 OA
HETATM    7  N   UNL     1       6.205  25.073  54.626  1.00  0.00    -0.232 N 
HETATM    8  N   UNL     1       6.009  26.291  55.206  1.00  0.00    -0.172 NA
HETATM    9  C   UNL     1       5.635  27.304  54.482  1.00  0.00     0.084 A 
HETATM   10  C   UNL     1       5.432  25.787  51.056  1.00  0.00     0.018 A 
HETATM   11  C   UNL     1       5.017  26.861  50.271  1.00  0.00     0.001 A 
ENDROOT
BRANCH   9  12
HETATM   12  C   UNL     1       5.455  28.639  55.199  1.00  0.00     0.185 C 
BRANCH  12  13
HETATM   13  N   UNL     1       6.746  29.140  55.623  1.00  0.00    -0.351 N 
HETATM   14  C   UNL     1       7.186  29.023  56.922  1.00  0.00     0.253 C 
HETATM   15  O   UNL     1       6.573  28.385  57.775  1.00  0.00    -0.268 OA
HETATM   16  H   UNL     1       7.314  29.654  54.960  1.00  0.00     0.163 HD
BRANCH  14  17
HETATM   17  C   UNL     1       8.502  29.649  57.257  1.00  0.00     0.048 A 
HETATM   18  C   UNL     1       8.720  30.710  58.154  1.00  0.00     0.022 A 
HETATM   19  I   UNL     1       7.242  31.614  59.350  1.00  0.00    -0.043 I 
HETATM   20  C   UNL     1      10.021  31.201  58.352  1.00  0.00     0.019 A 
HETATM   21  C   UNL     1      11.107  30.636  57.683  1.00  0.00     0.001 A 
HETATM   22  C   UNL     1      10.905  29.572  56.813  1.00  0.00     0.001 A 
HETATM   23  C   UNL     1       9.614  29.082  56.604  1.00  0.00     0.018 A 
ENDBRANCH  14  17
ENDBRANCH  12  13
ENDBRANCH   9  12
BRANCH   7  24
HETATM   24  C   UNL     1       6.788  24.042  55.474  1.00  0.00     0.182 C 
BRANCH  24  25
HETATM   25  C   UNL     1       8.319  24.108  55.550  1.00  0.00     0.256 C 
BRANCH  25  26
HETATM   26  N   UNL     1       8.943  22.722  55.578  1.00  0.00    -0.070 N 
HETATM   27  H   UNL     1       9.912  22.819  55.911  1.00  0.00     0.279 HD
HETATM   28  C   UNL     1       9.003  22.083  54.199  1.00  0.00     0.235 C 
HETATM   29  C   UNL     1       8.034  20.921  54.275  1.00  0.00     0.029 C 
HETATM   30  C   UNL     1       8.178  20.451  55.706  1.00  0.00     0.029 C 
HETATM   31  C   UNL     1       8.211  21.748  56.488  1.00  0.00     0.235 C 
ENDBRANCH  25  26
ENDBRANCH  24  25
ENDBRANCH   7  24
TORSDOF 6
ENDMDL
MODEL 7
REMARK VINA RESULT:      -8.8      3.502      5.937
REMARK  6 active torsions:
REMARK  status: ('A' for Active; 'I' for Inactive)
REMARK    1  A    between atoms: N_7  and  C_8 
REMARK    2  A    between atoms: C_8  and  C_9 
REMARK    3  A    between atoms: C_9  and  N_10 
REMARK    4  A    between atoms: C_17  and  C_18 
REMARK    5  A    between atoms: C_18  and  N_19 
REMARK       I    between atoms: N_19  and  C_20 
REMARK    6  A    between atoms: C_20  and  C_21 
ROOT
HETATM    1  C   UNL     1       8.479  23.213  56.572  1.00  0.00     0.001 A 
HETATM    2  C   UNL     1       7.695  24.355  56.765  1.00  0.00     0.014 A 
HETATM    3  C   UNL     1       7.005  24.920  55.687  1.00  0.00     0.008 A 
HETATM    4  C   UNL     1       7.098  24.333  54.426  1.00  0.00     0.046 A 
HETATM    5  C   UNL     1       6.352  24.913  53.294  1.00  0.00     0.274 A 
HETATM    6  O   UNL     1       6.371  24.373  52.190  1.00  0.00    -0.266 OA
HETATM    7  N   UNL     1       5.638  26.078  53.554  1.00  0.00    -0.232 N 
HETATM    8  N   UNL     1       5.528  26.646  54.788  1.00  0.00    -0.172 NA
HETATM    9  C   UNL     1       6.156  26.128  55.801  1.00  0.00     0.084 A 
HETATM   10  C   UNL     1       7.883  23.189  54.234  1.00  0.00     0.018 A 
HETATM   11  C   UNL     1       8.574  22.632  55.308  1.00  0.00     0.001 A 
ENDROOT
BRANCH   9  12
HETATM   12  C   UNL     1       5.969  26.809  57.154  1.00  0.00     0.185 C 
BRANCH  12  13
HETATM   13  N   UNL     1       7.137  27.607  57.462  1.00  0.00    -0.351 N 
HETATM   14  C   UNL     1       7.236  28.931  57.098  1.00  0.00     0.253 C 
HETATM   15  O   UNL     1       6.301  29.554  56.600  1.00  0.00    -0.268 OA
HETATM   16  H   UNL     1       7.935  27.159  57.897  1.00  0.00     0.163 HD
BRANCH  14  17
HETATM   17  C   UNL     1       8.523  29.629  57.401  1.00  0.00     0.048 A 
HETATM   18  C   UNL     1       8.695  30.732  58.258  1.00  0.00     0.022 A 
HETATM   19  I   UNL     1       7.181  31.609  59.428  1.00  0.00    -0.043 I 
HETATM   20  C   UNL     1       9.973  31.290  58.429  1.00  0.00     0.019 A 
HETATM   21  C   UNL     1      11.080  30.752  57.774  1.00  0.00     0.001 A 
HETATM   22  C   UNL     1      10.925  29.648  56.945  1.00  0.00     0.001 A 
HETATM   23  C   UNL     1       9.658  29.091  56.762  1.00  0.00     0.018 A 
ENDBRANCH  14  17
ENDBRANCH  12  13
ENDBRANCH   9  12
BRANCH   7  24
HETATM   24  C   UNL     1       4.767  26.616  52.516  1.00  0.00     0.182 C 
BRANCH  24  25
HETATM   25  C   UNL     1       5.406  27.755  51.713  1.00  0.00     0.256 C 
BRANCH  25  26
HETATM   26  N   UNL     1       5.643  27.361  50.264  1.00  0.00    -0.070 N 
HETATM   27  H   UNL     1       6.604  27.000  50.188  1.00  0.00     0.279 HD
HETATM   28  C   UNL     1       5.528  28.542  49.313  1.00  0.00     0.235 C 
HETATM   29  C   UNL     1       4.287  28.253  48.494  1.00  0.00     0.029 C 
HETATM   30  C   UNL     1       4.306  26.745  48.368  1.00  0.00     0.029 C 
HETATM   31  C   UNL     1       4.683  26.293  49.764  1.00  0.00     0.235 C 
ENDBRANCH  25  26
ENDBRANCH  24  25
ENDBRANCH   7  24
TORSDOF 6
ENDMDL
MODEL 8
REMARK VINA RESULT:      -8.7      3.688      8.567
REMARK  6 active torsions:
REMARK  status: ('A' for Active; 'I' for Inactive)
REMARK    1  A    between atoms: N_7  and  C_8 
REMARK    2  A    between atoms: C_8  and  C_9 
REMARK    3  A    between atoms: C_9  and  N_10 
REMARK    4  A    between atoms: C_17  and  C_18 
REMARK    5  A    between atoms: C_18  and  N_19 
REMARK       I    between atoms: N_19  and  C_20 
REMARK    6  A    between atoms: C_20  and  C_21 
ROOT
HETATM    1  C   UNL     1       3.639  29.224  50.946  1.00  0.00     0.001 A 
HETATM    2  C   UNL     1       4.296  28.049  51.324  1.00  0.00     0.014 A 
HETATM    3  C   UNL     1       4.543  27.789  52.677  1.00  0.00     0.008 A 
HETATM    4  C   UNL     1       4.124  28.705  53.641  1.00  0.00     0.046 A 
HETATM    5  C   UNL     1       4.361  28.421  55.069  1.00  0.00     0.274 A 
HETATM    6  O   UNL     1       3.943  29.185  55.935  1.00  0.00    -0.266 OA
HETATM    7  N   UNL     1       5.067  27.258  55.361  1.00  0.00    -0.232 N 
HETATM    8  N   UNL     1       5.463  26.351  54.424  1.00  0.00    -0.172 NA
HETATM    9  C   UNL     1       5.233  26.574  53.164  1.00  0.00     0.084 A 
HETATM   10  C   UNL     1       3.465  29.882  53.261  1.00  0.00     0.018 A 
HETATM   11  C   UNL     1       3.226  30.140  51.913  1.00  0.00     0.001 A 
ENDROOT
BRANCH   9  12
HETATM   12  C   UNL     1       5.689  25.503  52.178  1.00  0.00     0.185 C 
BRANCH  12  13
HETATM   13  N   UNL     1       6.178  24.349  52.905  1.00  0.00    -0.351 N 
HETATM   14  C   UNL     1       7.509  23.995  52.904  1.00  0.00     0.253 C 
HETATM   15  O   UNL     1       8.382  24.693  52.393  1.00  0.00    -0.268 OA
HETATM   16  H   UNL     1       5.512  23.745  53.371  1.00  0.00     0.163 HD
BRANCH  14  17
HETATM   17  C   UNL     1       7.882  22.739  53.627  1.00  0.00     0.048 A 
HETATM   18  C   UNL     1       8.241  22.630  54.982  1.00  0.00     0.022 A 
HETATM   19  I   UNL     1       8.229  24.208  56.374  1.00  0.00    -0.043 I 
HETATM   20  C   UNL     1       8.582  21.375  55.514  1.00  0.00     0.019 A 
HETATM   21  C   UNL     1       8.551  20.230  54.719  1.00  0.00     0.001 A 
HETATM   22  C   UNL     1       8.175  20.325  53.385  1.00  0.00     0.001 A 
HETATM   23  C   UNL     1       7.842  21.568  52.845  1.00  0.00     0.018 A 
ENDBRANCH  14  17
ENDBRANCH  12  13
ENDBRANCH   9  12
BRANCH   7  24
HETATM   24  C   UNL     1       5.206  26.851  56.753  1.00  0.00     0.182 C 
BRANCH  24  25
HETATM   25  C   UNL     1       6.575  27.193  57.355  1.00  0.00     0.256 C 
BRANCH  25  26
HETATM   26  N   UNL     1       7.071  28.554  56.894  1.00  0.00    -0.070 N 
HETATM   27  H   UNL     1       6.544  28.811  56.048  1.00  0.00     0.279 HD
HETATM   28  C   UNL     1       8.545  28.540  56.521  1.00  0.00     0.235 C 
HETATM   29  C   UNL     1       9.213  29.395  57.578  1.00  0.00     0.029 C 
HETATM   30  C   UNL     1       8.169  30.449  57.873  1.00  0.00     0.029 C 
HETATM   31  C   UNL     1       6.885  29.648  57.933  1.00  0.00     0.235 C 
ENDBRANCH  25  26
ENDBRANCH  24  25
ENDBRANCH   7  24
TORSDOF 6
ENDMDL
MODEL 9
REMARK VINA RESULT:      -8.6      2.421      8.845
REMARK  6 active torsions:
REMARK  status: ('A' for Active; 'I' for Inactive)
REMARK    1  A    between atoms: N_7  and  C_8 
REMARK    2  A    between atoms: C_8  and  C_9 
REMARK    3  A    between atoms: C_9  and  N_10 
REMARK    4  A    between atoms: C_17  and  C_18 
REMARK    5  A    between atoms: C_18  and  N_19 
REMARK       I    between atoms: N_19  and  C_20 
REMARK    6  A    between atoms: C_20  and  C_21 
ROOT
HETATM    1  C   UNL     1      10.366  28.977  56.522  1.00  0.00     0.001 A 
HETATM    2  C   UNL     1       8.985  29.004  56.739  1.00  0.00     0.014 A 
HETATM    3  C   UNL     1       8.433  29.945  57.616  1.00  0.00     0.008 A 
HETATM    4  C   UNL     1       9.268  30.856  58.262  1.00  0.00     0.046 A 
HETATM    5  C   UNL     1       8.686  31.864  59.168  1.00  0.00     0.274 A 
HETATM    6  O   UNL     1       9.397  32.714  59.696  1.00  0.00    -0.266 OA
HETATM    7  N   UNL     1       7.311  31.793  59.373  1.00  0.00    -0.232 N 
HETATM    8  N   UNL     1       6.488  30.917  58.730  1.00  0.00    -0.172 NA
HETATM    9  C   UNL     1       6.985  30.043  57.906  1.00  0.00     0.084 A 
HETATM   10  C   UNL     1      10.651  30.827  58.043  1.00  0.00     0.018 A 
HETATM   11  C   UNL     1      11.197  29.886  57.174  1.00  0.00     0.001 A 
ENDROOT
BRANCH   9  12
HETATM   12  C   UNL     1       5.998  29.109  57.211  1.00  0.00     0.185 C 
BRANCH  12  13
HETATM   13  N   UNL     1       6.692  27.924  56.751  1.00  0.00    -0.351 N 
HETATM   14  C   UNL     1       6.098  26.682  56.750  1.00  0.00     0.253 C 
HETATM   15  O   UNL     1       4.911  26.514  57.020  1.00  0.00    -0.268 OA
HETATM   16  H   UNL     1       7.667  27.999  56.488  1.00  0.00     0.163 HD
BRANCH  14  17
HETATM   17  C   UNL     1       6.941  25.521  56.326  1.00  0.00     0.048 A 
HETATM   18  C   UNL     1       6.836  24.808  55.119  1.00  0.00     0.022 A 
HETATM   19  I   UNL     1       5.526  25.278  53.539  1.00  0.00    -0.043 I 
HETATM   20  C   UNL     1       7.695  23.725  54.871  1.00  0.00     0.019 A 
HETATM   21  C   UNL     1       8.667  23.358  55.801  1.00  0.00     0.001 A 
HETATM   22  C   UNL     1       8.794  24.071  56.987  1.00  0.00     0.001 A 
HETATM   23  C   UNL     1       7.940  25.144  57.245  1.00  0.00     0.018 A 
ENDBRANCH  14  17
ENDBRANCH  12  13
ENDBRANCH   9  12
BRANCH   7  24
HETATM   24  C   UNL     1       6.659  32.847  60.139  1.00  0.00     0.182 C 
BRANCH  24  25
HETATM   25  C   UNL     1       5.628  32.321  61.145  1.00  0.00     0.256 C 
BRANCH  25  26
HETATM   26  N   UNL     1       6.270  31.952  62.472  1.00  0.00    -0.070 N 
HETATM   27  H   UNL     1       6.372  30.928  62.498  1.00  0.00     0.279 HD
HETATM   28  C   UNL     1       5.413  32.349  63.664  1.00  0.00     0.235 C 
HETATM   29  C   UNL     1       6.200  33.448  64.349  1.00  0.00     0.029 C 
HETATM   30  C   UNL     1       7.636  33.028  64.125  1.00  0.00     0.029 C 
HETATM   31  C   UNL     1       7.638  32.582  62.677  1.00  0.00     0.235 C 
ENDBRANCH  25  26
ENDBRANCH  24  25
ENDBRANCH   7  24
TORSDOF 6
ENDMDL
MODEL 10
REMARK VINA RESULT:      -8.5      4.464      8.317
REMARK  6 active torsions:
REMARK  status: ('A' for Active; 'I' for Inactive)
REMARK    1  A    between atoms: N_7  and  C_8 
REMARK    2  A    between atoms: C_8  and  C_9 
REMARK    3  A    between atoms: C_9  and  N_10 
REMARK    4  A    between atoms: C_17  and  C_18 
REMARK    5  A    between atoms: C_18  and  N_19 
REMARK       I    between atoms: N_19  and  C_20 
REMARK    6  A    between atoms: C_20  and  C_21 
ROOT
HETATM    1  C   UNL     1       3.816  28.196  49.221  1.00  0.00     0.001 A 
HETATM    2  C   UNL     1       4.355  27.288  50.138  1.00  0.00     0.014 A 
HETATM    3  C   UNL     1       4.374  27.600  51.502  1.00  0.00     0.008 A 
HETATM    4  C   UNL     1       3.846  28.814  51.938  1.00  0.00     0.046 A 
HETATM    5  C   UNL     1       3.843  29.133  53.378  1.00  0.00     0.274 A 
HETATM    6  O   UNL     1       3.326  30.169  53.787  1.00  0.00    -0.266 OA
HETATM    7  N   UNL     1       4.445  28.204  54.221  1.00  0.00    -0.232 N 
HETATM    8  N   UNL     1       4.946  27.007  53.802  1.00  0.00    -0.172 NA
HETATM    9  C   UNL     1       4.928  26.700  52.539  1.00  0.00     0.084 A 
HETATM   10  C   UNL     1       3.306  29.722  51.018  1.00  0.00     0.018 A 
HETATM   11  C   UNL     1       3.294  29.411  49.660  1.00  0.00     0.001 A 
ENDROOT
BRANCH   9  12
HETATM   12  C   UNL     1       5.489  25.335  52.151  1.00  0.00     0.185 C 
BRANCH  12  13
HETATM   13  N   UNL     1       6.008  24.671  53.329  1.00  0.00    -0.351 N 
HETATM   14  C   UNL     1       7.313  24.238  53.410  1.00  0.00     0.253 C 
HETATM   15  O   UNL     1       8.150  24.491  52.547  1.00  0.00    -0.268 OA
HETATM   16  H   UNL     1       5.374  24.455  54.089  1.00  0.00     0.163 HD
BRANCH  14  17
HETATM   17  C   UNL     1       7.711  23.495  54.645  1.00  0.00     0.048 A 
HETATM   18  C   UNL     1       8.024  22.127  54.734  1.00  0.00     0.022 A 
HETATM   19  I   UNL     1       8.123  20.794  53.108  1.00  0.00    -0.043 I 
HETATM   20  C   UNL     1       8.367  21.569  55.977  1.00  0.00     0.019 A 
HETATM   21  C   UNL     1       8.420  22.360  57.125  1.00  0.00     0.001 A 
HETATM   22  C   UNL     1       8.136  23.717  57.042  1.00  0.00     0.001 A 
HETATM   23  C   UNL     1       7.786  24.279  55.813  1.00  0.00     0.018 A 
ENDBRANCH  14  17
ENDBRANCH  12  13
ENDBRANCH   9  12
BRANCH   7  24
HETATM   24  C   UNL     1       4.345  28.393  55.662  1.00  0.00     0.182 C 
BRANCH  24  25
HETATM   25  C   UNL     1       5.264  27.464  56.465  1.00  0.00     0.256 C 
BRANCH  25  26
HETATM   26  N   UNL     1       6.728  27.835  56.296  1.00  0.00    -0.070 N 
HETATM   27  H   UNL     1       7.091  27.326  55.478  1.00  0.00     0.279 HD
HETATM   28  C   UNL     1       7.574  27.426  57.493  1.00  0.00     0.235 C 
HETATM   29  C   UNL     1       8.002  28.735  58.122  1.00  0.00     0.029 C 
HETATM   30  C   UNL     1       8.167  29.649  56.927  1.00  0.00     0.029 C 
HETATM   31  C   UNL     1       6.954  29.323  56.081  1.00  0.00     0.235 C 
ENDBRANCH  25  26
ENDBRANCH  24  25
ENDBRANCH   7  24
TORSDOF 6
ENDMDL
