MODEL 1
REMARK VINA RESULT:      -9.6      0.000      0.000
REMARK  7 active torsions:
REMARK  status: ('A' for Active; 'I' for Inactive)
REMARK    1  A    between atoms: C_2  and  C_3 
REMARK    2  A    between atoms: C_3  and  C_4 
REMARK    3  A    between atoms: C_7  and  C_8 
REMARK    4  A    between atoms: C_14  and  C_15 
REMARK    5  A    between atoms: C_18  and  O_19 
REMARK    6  A    between atoms: O_19  and  C_20 
REMARK       I    between atoms: C_20  and  N_21 
REMARK    7  A    between atoms: C_33  and  N_34 
ROOT
HETATM    1  C   UNL     1       4.677  29.558  55.175  1.00  0.00     0.099 A 
HETATM    2  N   UNL     1       3.526  30.097  55.624  1.00  0.00    -0.172 NA
HETATM    3  N   UNL     1       3.856  30.701  56.782  1.00  0.00    -0.256 N 
HETATM    4  H   UNL     1       3.133  31.185  57.304  1.00  0.00     0.191 HD
HETATM    5  C   UNL     1       5.164  30.551  57.099  1.00  0.00     0.175 A 
HETATM    6  C   UNL     1       5.738  29.825  56.086  1.00  0.00     0.040 A 
HETATM    7  C   UNL     1       7.185  29.466  56.165  1.00  0.00     0.105 A 
HETATM    8  C   UNL     1       7.820  30.100  57.397  1.00  0.00     0.067 A 
HETATM    9  C   UNL     1       9.338  30.030  57.470  1.00  0.00     0.020 C 
HETATM   10  N   UNL     1      10.595  29.972  57.531  1.00  0.00    -0.096 N 
HETATM   11  C   UNL     1       7.125  30.817  58.320  1.00  0.00     0.139 A 
HETATM   12  O   UNL     1       5.737  31.021  58.202  1.00  0.00    -0.279 OA
ENDROOT
BRANCH   7  13
HETATM   13  C   UNL     1       7.250  27.945  56.159  1.00  0.00    -0.044 A 
HETATM   14  C   UNL     1       7.755  27.286  55.024  1.00  0.00     0.011 A 
HETATM   15  C   UNL     1       7.709  25.895  54.929  1.00  0.00     0.038 A 
HETATM   16  C   UNL     1       7.173  25.148  55.975  1.00  0.00     0.081 A 
HETATM   17  C   UNL     1       6.718  25.771  57.133  1.00  0.00     0.038 A 
HETATM   18  C   UNL     1       6.779  27.163  57.232  1.00  0.00     0.011 A 
BRANCH  16  19
HETATM   19  O   UNL     1       6.984  23.776  55.709  1.00  0.00    -0.261 OA
BRANCH  19  20
HETATM   20  C   UNL     1       7.853  22.779  56.147  1.00  0.00     0.368 C 
HETATM   21  N   UNL     1       8.269  21.961  55.111  1.00  0.00    -0.324 N 
HETATM   22  C   UNL     1       9.280  20.936  55.351  1.00  0.00     0.154 C 
HETATM   23  C   UNL     1       7.956  22.207  53.703  1.00  0.00     0.154 C 
HETATM   24  C   UNL     1       8.982  19.673  54.537  1.00  0.00     0.187 C 
HETATM   25  O   UNL     1       8.813  19.982  53.144  1.00  0.00    -0.388 OA
HETATM   26  C   UNL     1       7.717  20.890  52.959  1.00  0.00     0.187 C 
HETATM   27  O   UNL     1       8.204  22.628  57.312  1.00  0.00    -0.238 OA
ENDBRANCH  19  20
ENDBRANCH  16  19
ENDBRANCH   7  13
BRANCH  11  28
HETATM   28  N   UNL     1       7.664  31.429  59.427  1.00  0.00    -0.282 NA
HETATM   29  H   UNL     1       7.228  32.307  59.697  1.00  0.00     0.126 HD
HETATM   30  H   UNL     1       8.678  31.494  59.371  1.00  0.00     0.126 HD
ENDBRANCH  11  28
BRANCH   1  31
HETATM   31  C   UNL     1       4.710  28.767  53.945  1.00  0.00    -0.005 A 
HETATM   32  C   UNL     1       5.030  29.349  52.714  1.00  0.00     0.014 A 
HETATM   33  C   UNL     1       5.141  28.559  51.564  1.00  0.00     0.008 A 
HETATM   34  C   UNL     1       4.918  27.177  51.619  1.00  0.00    -0.058 A 
HETATM   35  C   UNL     1       4.548  26.605  52.840  1.00  0.00     0.008 A 
HETATM   36  C   UNL     1       4.451  27.391  53.992  1.00  0.00     0.014 A 
BRANCH  34  37
HETATM   37  C   UNL     1       5.064  26.332  50.375  1.00  0.00     0.042 C 
BRANCH  37  38
HETATM   38  C   UNL     1       4.235  26.766  49.145  1.00  0.00    -0.019 C 
HETATM   39  C   UNL     1       3.490  25.604  48.485  1.00  0.00     0.010 C 
HETATM   40  C   UNL     1       5.059  27.525  48.104  1.00  0.00     0.010 C 
ENDBRANCH  37  38
ENDBRANCH  34  37
ENDBRANCH   1  31
TORSDOF 7
ENDMDL
MODEL 2
REMARK VINA RESULT:      -9.3      3.373      8.246
REMARK  7 active torsions:
REMARK  status: ('A' for Active; 'I' for Inactive)
REMARK    1  A    between atoms: C_2  and  C_3 
REMARK    2  A    between atoms: C_3  and  C_4 
REMARK    3  A    between atoms: C_7  and  C_8 
REMARK    4  A    between atoms: C_14  and  C_15 
REMARK    5  A    between atoms: C_18  and  O_19 
REMARK    6  A    between atoms: O_19  and  C_20 
REMARK       I    between atoms: C_20  and  N_21 
REMARK    7  A    between atoms: C_33  and  N_34 
ROOT
HETATM    1  C   UNL     1       4.950  25.962  50.607  1.00  0.00     0.099 A 
HETATM    2  N   UNL     1       4.090  25.165  49.944  1.00  0.00    -0.172 NA
HETATM    3  N   UNL     1       3.513  25.965  49.028  1.00  0.00    -0.256 N 
HETATM    4  H   UNL     1       2.821  25.571  48.400  1.00  0.00     0.191 HD
HETATM    5  C   UNL     1       3.955  27.244  49.094  1.00  0.00     0.175 A 
HETATM    6  C   UNL     1       4.890  27.290  50.097  1.00  0.00     0.040 A 
HETATM    7  C   UNL     1       5.544  28.589  50.435  1.00  0.00     0.105 A 
HETATM    8  C   UNL     1       5.086  29.678  49.472  1.00  0.00     0.067 A 
HETATM    9  C   UNL     1       5.858  30.987  49.538  1.00  0.00     0.020 C 
HETATM   10  N   UNL     1       6.497  32.072  49.592  1.00  0.00    -0.096 N 
HETATM   11  C   UNL     1       4.152  29.484  48.504  1.00  0.00     0.139 A 
HETATM   12  O   UNL     1       3.522  28.238  48.325  1.00  0.00    -0.279 OA
ENDROOT
BRANCH   7  13
HETATM   13  C   UNL     1       5.198  28.875  51.890  1.00  0.00    -0.044 A 
HETATM   14  C   UNL     1       6.162  28.627  52.884  1.00  0.00     0.011 A 
HETATM   15  C   UNL     1       5.840  28.753  54.235  1.00  0.00     0.038 A 
HETATM   16  C   UNL     1       4.555  29.144  54.606  1.00  0.00     0.081 A 
HETATM   17  C   UNL     1       3.600  29.450  53.642  1.00  0.00     0.038 A 
HETATM   18  C   UNL     1       3.930  29.337  52.290  1.00  0.00     0.011 A 
BRANCH  16  19
HETATM   19  O   UNL     1       4.264  29.050  55.983  1.00  0.00    -0.261 OA
BRANCH  19  20
HETATM   20  C   UNL     1       3.786  30.115  56.745  1.00  0.00     0.368 C 
HETATM   21  N   UNL     1       4.813  30.846  57.315  1.00  0.00    -0.324 N 
HETATM   22  C   UNL     1       4.517  32.073  58.047  1.00  0.00     0.154 C 
HETATM   23  C   UNL     1       6.231  30.621  57.029  1.00  0.00     0.154 C 
HETATM   24  C   UNL     1       5.440  32.226  59.258  1.00  0.00     0.187 C 
HETATM   25  O   UNL     1       6.821  32.120  58.874  1.00  0.00    -0.388 OA
HETATM   26  C   UNL     1       7.082  30.837  58.284  1.00  0.00     0.187 C 
HETATM   27  O   UNL     1       2.599  30.373  56.906  1.00  0.00    -0.238 OA
ENDBRANCH  19  20
ENDBRANCH  16  19
ENDBRANCH   7  13
BRANCH  11  28
HETATM   28  N   UNL     1       3.734  30.431  47.598  1.00  0.00    -0.282 NA
HETATM   29  H   UNL     1       4.326  30.543  46.778  1.00  0.00     0.126 HD
HETATM   30  H   UNL     1       3.510  31.316  48.046  1.00  0.00     0.126 HD
ENDBRANCH  11  28
BRANCH   1  31
HETATM   31  C   UNL     1       5.739  25.453  51.729  1.00  0.00    -0.005 A 
HETATM   32  C   UNL     1       5.140  25.115  52.946  1.00  0.00     0.014 A 
HETATM   33  C   UNL     1       5.898  24.548  53.977  1.00  0.00     0.008 A 
HETATM   34  C   UNL     1       7.272  24.326  53.817  1.00  0.00    -0.058 A 
HETATM   35  C   UNL     1       7.879  24.712  52.618  1.00  0.00     0.008 A 
HETATM   36  C   UNL     1       7.119  25.264  51.583  1.00  0.00     0.014 A 
BRANCH  34  37
HETATM   37  C   UNL     1       8.075  23.691  54.930  1.00  0.00     0.042 C 
BRANCH  37  38
HETATM   38  C   UNL     1       7.709  22.237  55.302  1.00  0.00    -0.019 C 
HETATM   39  C   UNL     1       8.411  21.748  56.569  1.00  0.00     0.010 C 
HETATM   40  C   UNL     1       7.937  21.250  54.156  1.00  0.00     0.010 C 
ENDBRANCH  37  38
ENDBRANCH  34  37
ENDBRANCH   1  31
TORSDOF 7
ENDMDL
MODEL 3
REMARK VINA RESULT:      -9.2      3.275      6.331
REMARK  7 active torsions:
REMARK  status: ('A' for Active; 'I' for Inactive)
REMARK    1  A    between atoms: C_2  and  C_3 
REMARK    2  A    between atoms: C_3  and  C_4 
REMARK    3  A    between atoms: C_7  and  C_8 
REMARK    4  A    between atoms: C_14  and  C_15 
REMARK    5  A    between atoms: C_18  and  O_19 
REMARK    6  A    between atoms: O_19  and  C_20 
REMARK       I    between atoms: C_20  and  N_21 
REMARK    7  A    between atoms: C_33  and  N_34 
ROOT
HETATM    1  C   UNL     1       9.091  29.120  57.081  1.00  0.00     0.099 A 
HETATM    2  N   UNL     1      10.322  29.436  56.632  1.00  0.00    -0.172 NA
HETATM    3  N   UNL     1      10.661  30.549  57.311  1.00  0.00    -0.256 N 
HETATM    4  H   UNL     1      11.566  30.971  57.135  1.00  0.00     0.191 HD
HETATM    5  C   UNL     1       9.689  30.966  58.158  1.00  0.00     0.175 A 
HETATM    6  C   UNL     1       8.656  30.070  58.048  1.00  0.00     0.040 A 
HETATM    7  C   UNL     1       7.411  30.280  58.845  1.00  0.00     0.105 A 
HETATM    8  C   UNL     1       7.570  31.484  59.766  1.00  0.00     0.067 A 
HETATM    9  C   UNL     1       6.482  31.665  60.814  1.00  0.00     0.020 C 
HETATM   10  N   UNL     1       5.581  31.816  61.682  1.00  0.00    -0.096 N 
HETATM   11  C   UNL     1       8.670  32.284  59.779  1.00  0.00     0.139 A 
HETATM   12  O   UNL     1       9.759  32.054  58.917  1.00  0.00    -0.279 OA
ENDROOT
BRANCH   7  13
HETATM   13  C   UNL     1       6.279  30.427  57.839  1.00  0.00    -0.044 A 
HETATM   14  C   UNL     1       5.455  29.319  57.569  1.00  0.00     0.011 A 
HETATM   15  C   UNL     1       4.493  29.376  56.561  1.00  0.00     0.038 A 
HETATM   16  C   UNL     1       4.333  30.547  55.823  1.00  0.00     0.081 A 
HETATM   17  C   UNL     1       5.095  31.675  56.108  1.00  0.00     0.038 A 
HETATM   18  C   UNL     1       6.048  31.620  57.127  1.00  0.00     0.011 A 
BRANCH  16  19
HETATM   19  O   UNL     1       3.484  30.448  54.701  1.00  0.00    -0.261 OA
BRANCH  19  20
HETATM   20  C   UNL     1       3.887  30.747  53.401  1.00  0.00     0.368 C 
HETATM   21  N   UNL     1       4.012  29.610  52.622  1.00  0.00    -0.324 N 
HETATM   22  C   UNL     1       4.304  29.730  51.197  1.00  0.00     0.154 C 
HETATM   23  C   UNL     1       3.621  28.272  53.066  1.00  0.00     0.154 C 
HETATM   24  C   UNL     1       5.240  28.610  50.735  1.00  0.00     0.187 C 
HETATM   25  O   UNL     1       4.722  27.319  51.096  1.00  0.00    -0.388 OA
HETATM   26  C   UNL     1       4.585  27.213  52.521  1.00  0.00     0.187 C 
HETATM   27  O   UNL     1       4.117  31.879  52.990  1.00  0.00    -0.238 OA
ENDBRANCH  19  20
ENDBRANCH  16  19
ENDBRANCH   7  13
BRANCH  11  28
HETATM   28  N   UNL     1       8.865  33.360  60.613  1.00  0.00    -0.282 NA
HETATM   29  H   UNL     1       9.817  33.715  60.654  1.00  0.00     0.126 HD
HETATM   30  H   UNL     1       8.462  33.206  61.535  1.00  0.00     0.126 HD
ENDBRANCH  11  28
BRANCH   1  31
HETATM   31  C   UNL     1       8.358  27.977  56.533  1.00  0.00    -0.005 A 
HETATM   32  C   UNL     1       7.911  27.968  55.209  1.00  0.00     0.014 A 
HETATM   33  C   UNL     1       7.290  26.832  54.678  1.00  0.00     0.008 A 
HETATM   34  C   UNL     1       7.087  25.691  55.467  1.00  0.00    -0.058 A 
HETATM   35  C   UNL     1       7.489  25.721  56.806  1.00  0.00     0.008 A 
HETATM   36  C   UNL     1       8.123  26.851  57.332  1.00  0.00     0.014 A 
BRANCH  34  37
HETATM   37  C   UNL     1       6.436  24.463  54.876  1.00  0.00     0.042 C 
BRANCH  37  38
HETATM   38  C   UNL     1       7.371  23.465  54.156  1.00  0.00    -0.019 C 
HETATM   39  C   UNL     1       8.663  23.192  54.927  1.00  0.00     0.010 C 
HETATM   40  C   UNL     1       7.689  23.874  52.717  1.00  0.00     0.010 C 
ENDBRANCH  37  38
ENDBRANCH  34  37
ENDBRANCH   1  31
TORSDOF 7
ENDMDL
MODEL 4
REMARK VINA RESULT:      -9.1      3.104      9.591
REMARK  7 active torsions:
REMARK  status: ('A' for Active; 'I' for Inactive)
REMARK    1  A    between atoms: C_2  and  C_3 
REMARK    2  A    between atoms: C_3  and  C_4 
REMARK    3  A    between atoms: C_7  and  C_8 
REMARK    4  A    between atoms: C_14  and  C_15 
REMARK    5  A    between atoms: C_18  and  O_19 
REMARK    6  A    between atoms: O_19  and  C_20 
REMARK       I    between atoms: C_20  and  N_21 
REMARK    7  A    between atoms: C_33  and  N_34 
ROOT
HETATM    1  C   UNL     1       8.032  27.078  56.567  1.00  0.00     0.099 A 
HETATM    2  N   UNL     1       8.250  25.838  57.047  1.00  0.00    -0.172 NA
HETATM    3  N   UNL     1       7.695  25.014  56.137  1.00  0.00    -0.256 N 
HETATM    4  H   UNL     1       7.743  24.013  56.292  1.00  0.00     0.191 HD
HETATM    5  C   UNL     1       7.115  25.679  55.110  1.00  0.00     0.175 A 
HETATM    6  C   UNL     1       7.312  27.017  55.340  1.00  0.00     0.040 A 
HETATM    7  C   UNL     1       6.753  28.019  54.385  1.00  0.00     0.105 A 
HETATM    8  C   UNL     1       6.103  27.315  53.200  1.00  0.00     0.067 A 
HETATM    9  C   UNL     1       5.717  28.207  52.030  1.00  0.00     0.020 C 
HETATM   10  N   UNL     1       5.396  28.945  51.060  1.00  0.00    -0.096 N 
HETATM   11  C   UNL     1       5.990  25.964  53.095  1.00  0.00     0.139 A 
HETATM   12  O   UNL     1       6.470  25.103  54.100  1.00  0.00    -0.279 OA
ENDROOT
BRANCH   7  13
HETATM   13  C   UNL     1       5.788  28.881  55.187  1.00  0.00    -0.044 A 
HETATM   14  C   UNL     1       6.138  30.212  55.477  1.00  0.00     0.011 A 
HETATM   15  C   UNL     1       5.342  30.991  56.317  1.00  0.00     0.038 A 
HETATM   16  C   UNL     1       4.179  30.453  56.862  1.00  0.00     0.081 A 
HETATM   17  C   UNL     1       3.780  29.159  56.546  1.00  0.00     0.038 A 
HETATM   18  C   UNL     1       4.571  28.386  55.693  1.00  0.00     0.011 A 
BRANCH  16  19
HETATM   19  O   UNL     1       3.550  31.238  57.851  1.00  0.00    -0.261 OA
BRANCH  19  20
HETATM   20  C   UNL     1       3.378  32.617  57.747  1.00  0.00     0.368 C 
HETATM   21  N   UNL     1       3.956  33.294  58.806  1.00  0.00    -0.324 N 
HETATM   22  C   UNL     1       3.989  34.753  58.810  1.00  0.00     0.154 C 
HETATM   23  C   UNL     1       4.781  32.652  59.831  1.00  0.00     0.154 C 
HETATM   24  C   UNL     1       3.784  35.301  60.225  1.00  0.00     0.187 C 
HETATM   25  O   UNL     1       4.716  34.715  61.148  1.00  0.00    -0.388 OA
HETATM   26  C   UNL     1       4.544  33.291  61.202  1.00  0.00     0.187 C 
HETATM   27  O   UNL     1       2.776  33.173  56.835  1.00  0.00    -0.238 OA
ENDBRANCH  19  20
ENDBRANCH  16  19
ENDBRANCH   7  13
BRANCH  11  28
HETATM   28  N   UNL     1       5.439  25.289  52.030  1.00  0.00    -0.282 NA
HETATM   29  H   UNL     1       4.491  25.562  51.784  1.00  0.00     0.126 HD
HETATM   30  H   UNL     1       5.549  24.282  52.119  1.00  0.00     0.126 HD
ENDBRANCH  11  28
BRANCH   1  31
HETATM   31  C   UNL     1       8.455  28.262  57.316  1.00  0.00    -0.005 A 
HETATM   32  C   UNL     1       9.684  28.880  57.067  1.00  0.00     0.014 A 
HETATM   33  C   UNL     1      10.032  30.060  57.732  1.00  0.00     0.008 A 
HETATM   34  C   UNL     1       9.167  30.636  58.672  1.00  0.00    -0.058 A 
HETATM   35  C   UNL     1       7.960  29.989  58.957  1.00  0.00     0.008 A 
HETATM   36  C   UNL     1       7.606  28.818  58.282  1.00  0.00     0.014 A 
BRANCH  34  37
HETATM   37  C   UNL     1       9.545  31.924  59.366  1.00  0.00     0.042 C 
BRANCH  37  38
HETATM   38  C   UNL     1       9.442  31.932  60.908  1.00  0.00    -0.019 C 
HETATM   39  C   UNL     1       9.652  30.551  61.530  1.00  0.00     0.010 C 
HETATM   40  C   UNL     1       8.140  32.550  61.419  1.00  0.00     0.010 C 
ENDBRANCH  37  38
ENDBRANCH  34  37
ENDBRANCH   1  31
TORSDOF 7
ENDMDL
MODEL 5
REMARK VINA RESULT:      -8.9      2.856      6.377
REMARK  7 active torsions:
REMARK  status: ('A' for Active; 'I' for Inactive)
REMARK    1  A    between atoms: C_2  and  C_3 
REMARK    2  A    between atoms: C_3  and  C_4 
REMARK    3  A    between atoms: C_7  and  C_8 
REMARK    4  A    between atoms: C_14  and  C_15 
REMARK    5  A    between atoms: C_18  and  O_19 
REMARK    6  A    between atoms: O_19  and  C_20 
REMARK       I    between atoms: C_20  and  N_21 
REMARK    7  A    between atoms: C_33  and  N_34 
ROOT
HETATM    1  C   UNL     1       8.149  28.476  56.950  1.00  0.00     0.099 A 
HETATM    2  N   UNL     1       9.432  28.890  56.951  1.00  0.00    -0.172 NA
HETATM    3  N   UNL     1       9.402  30.104  57.533  1.00  0.00    -0.256 N 
HETATM    4  H   UNL     1      10.272  30.613  57.647  1.00  0.00     0.191 HD
HETATM    5  C   UNL     1       8.152  30.488  57.884  1.00  0.00     0.175 A 
HETATM    6  C   UNL     1       7.308  29.466  57.532  1.00  0.00     0.040 A 
HETATM    7  C   UNL     1       5.841  29.608  57.767  1.00  0.00     0.105 A 
HETATM    8  C   UNL     1       5.545  30.916  58.490  1.00  0.00     0.067 A 
HETATM    9  C   UNL     1       4.127  31.076  59.017  1.00  0.00     0.020 C 
HETATM   10  N   UNL     1       2.952  31.209  59.454  1.00  0.00    -0.096 N 
HETATM   11  C   UNL     1       6.494  31.842  58.793  1.00  0.00     0.139 A 
HETATM   12  O   UNL     1       7.844  31.654  58.444  1.00  0.00    -0.279 OA
ENDROOT
BRANCH   7  13
HETATM   13  C   UNL     1       5.177  29.502  56.400  1.00  0.00    -0.044 A 
HETATM   14  C   UNL     1       4.539  28.302  56.040  1.00  0.00     0.011 A 
HETATM   15  C   UNL     1       4.035  28.122  54.752  1.00  0.00     0.038 A 
HETATM   16  C   UNL     1       4.149  29.147  53.816  1.00  0.00     0.081 A 
HETATM   17  C   UNL     1       4.725  30.364  54.163  1.00  0.00     0.038 A 
HETATM   18  C   UNL     1       5.215  30.548  55.458  1.00  0.00     0.011 A 
BRANCH  16  19
HETATM   19  O   UNL     1       3.796  28.806  52.493  1.00  0.00    -0.261 OA
BRANCH  19  20
HETATM   20  C   UNL     1       4.700  28.303  51.559  1.00  0.00     0.368 C 
HETATM   21  N   UNL     1       4.170  28.286  50.281  1.00  0.00    -0.324 N 
HETATM   22  C   UNL     1       5.009  27.910  49.148  1.00  0.00     0.154 C 
HETATM   23  C   UNL     1       2.874  28.869  49.929  1.00  0.00     0.154 C 
HETATM   24  C   UNL     1       4.210  27.105  48.119  1.00  0.00     0.187 C 
HETATM   25  O   UNL     1       3.016  27.802  47.728  1.00  0.00    -0.388 OA
HETATM   26  C   UNL     1       2.167  28.023  48.865  1.00  0.00     0.187 C 
HETATM   27  O   UNL     1       5.829  27.909  51.830  1.00  0.00    -0.238 OA
ENDBRANCH  19  20
ENDBRANCH  16  19
ENDBRANCH   7  13
BRANCH  11  28
HETATM   28  N   UNL     1       6.274  33.018  59.470  1.00  0.00    -0.282 NA
HETATM   29  H   UNL     1       6.922  33.773  59.257  1.00  0.00     0.126 HD
HETATM   30  H   UNL     1       6.159  32.868  60.470  1.00  0.00     0.126 HD
ENDBRANCH  11  28
BRANCH   1  31
HETATM   31  C   UNL     1       7.769  27.199  56.345  1.00  0.00    -0.005 A 
HETATM   32  C   UNL     1       7.620  27.065  54.961  1.00  0.00     0.014 A 
HETATM   33  C   UNL     1       7.341  25.816  54.395  1.00  0.00     0.008 A 
HETATM   34  C   UNL     1       7.189  24.681  55.202  1.00  0.00    -0.058 A 
HETATM   35  C   UNL     1       7.288  24.826  56.590  1.00  0.00     0.008 A 
HETATM   36  C   UNL     1       7.581  26.072  57.154  1.00  0.00     0.014 A 
BRANCH  34  37
HETATM   37  C   UNL     1       6.911  23.334  54.577  1.00  0.00     0.042 C 
BRANCH  37  38
HETATM   38  C   UNL     1       8.074  22.316  54.588  1.00  0.00    -0.019 C 
HETATM   39  C   UNL     1       8.255  21.599  53.249  1.00  0.00     0.010 C 
HETATM   40  C   UNL     1       7.967  21.297  55.723  1.00  0.00     0.010 C 
ENDBRANCH  37  38
ENDBRANCH  34  37
ENDBRANCH   1  31
TORSDOF 7
ENDMDL
MODEL 6
REMARK VINA RESULT:      -8.8      3.576      8.431
REMARK  7 active torsions:
REMARK  status: ('A' for Active; 'I' for Inactive)
REMARK    1  A    between atoms: C_2  and  C_3 
REMARK    2  A    between atoms: C_3  and  C_4 
REMARK    3  A    between atoms: C_7  and  C_8 
REMARK    4  A    between atoms: C_14  and  C_15 
REMARK    5  A    between atoms: C_18  and  O_19 
REMARK    6  A    between atoms: O_19  and  C_20 
REMARK       I    between atoms: C_20  and  N_21 
REMARK    7  A    between atoms: C_33  and  N_34 
ROOT
HETATM    1  C   UNL     1       4.966  26.041  50.560  1.00  0.00     0.099 A 
HETATM    2  N   UNL     1       4.153  25.292  49.790  1.00  0.00    -0.172 NA
HETATM    3  N   UNL     1       3.521  26.176  48.994  1.00  0.00    -0.256 N 
HETATM    4  H   UNL     1       2.851  25.831  48.315  1.00  0.00     0.191 HD
HETATM    5  C   UNL     1       3.884  27.458  49.239  1.00  0.00     0.175 A 
HETATM    6  C   UNL     1       4.821  27.421  50.241  1.00  0.00     0.040 A 
HETATM    7  C   UNL     1       5.395  28.698  50.759  1.00  0.00     0.105 A 
HETATM    8  C   UNL     1       4.864  29.881  49.958  1.00  0.00     0.067 A 
HETATM    9  C   UNL     1       5.553  31.213  50.208  1.00  0.00     0.020 C 
HETATM   10  N   UNL     1       6.124  32.318  50.415  1.00  0.00    -0.096 N 
HETATM   11  C   UNL     1       3.937  29.767  48.970  1.00  0.00     0.139 A 
HETATM   12  O   UNL     1       3.385  28.521  48.617  1.00  0.00    -0.279 OA
ENDROOT
BRANCH   7  13
HETATM   13  C   UNL     1       5.041  28.756  52.239  1.00  0.00    -0.044 A 
HETATM   14  C   UNL     1       3.727  29.085  52.616  1.00  0.00     0.011 A 
HETATM   15  C   UNL     1       3.399  29.276  53.959  1.00  0.00     0.038 A 
HETATM   16  C   UNL     1       4.377  29.123  54.938  1.00  0.00     0.081 A 
HETATM   17  C   UNL     1       5.670  28.742  54.597  1.00  0.00     0.038 A 
HETATM   18  C   UNL     1       5.993  28.537  53.254  1.00  0.00     0.011 A 
BRANCH  16  19
HETATM   19  O   UNL     1       4.006  29.529  56.238  1.00  0.00    -0.261 OA
BRANCH  19  20
HETATM   20  C   UNL     1       4.739  30.435  57.000  1.00  0.00     0.368 C 
HETATM   21  N   UNL     1       4.216  31.714  56.932  1.00  0.00    -0.324 N 
HETATM   22  C   UNL     1       4.773  32.777  57.762  1.00  0.00     0.154 C 
HETATM   23  C   UNL     1       2.956  32.044  56.263  1.00  0.00     0.154 C 
HETATM   24  C   UNL     1       4.784  34.110  57.010  1.00  0.00     0.187 C 
HETATM   25  O   UNL     1       3.481  34.425  56.493  1.00  0.00    -0.388 OA
HETATM   26  C   UNL     1       3.045  33.411  55.576  1.00  0.00     0.187 C 
HETATM   27  O   UNL     1       5.739  30.146  57.649  1.00  0.00    -0.238 OA
ENDBRANCH  19  20
ENDBRANCH  16  19
ENDBRANCH   7  13
BRANCH  11  28
HETATM   28  N   UNL     1       3.455  30.803  48.204  1.00  0.00    -0.282 NA
HETATM   29  H   UNL     1       4.152  31.308  47.663  1.00  0.00     0.126 HD
HETATM   30  H   UNL     1       2.847  31.420  48.737  1.00  0.00     0.126 HD
ENDBRANCH  11  28
BRANCH   1  31
HETATM   31  C   UNL     1       5.793  25.430  51.602  1.00  0.00    -0.005 A 
HETATM   32  C   UNL     1       7.186  25.380  51.488  1.00  0.00     0.014 A 
HETATM   33  C   UNL     1       7.964  24.870  52.533  1.00  0.00     0.008 A 
HETATM   34  C   UNL     1       7.365  24.385  53.703  1.00  0.00    -0.058 A 
HETATM   35  C   UNL     1       5.969  24.389  53.794  1.00  0.00     0.008 A 
HETATM   36  C   UNL     1       5.192  24.912  52.756  1.00  0.00     0.014 A 
BRANCH  34  37
HETATM   37  C   UNL     1       8.218  23.858  54.834  1.00  0.00     0.042 C 
BRANCH  37  38
HETATM   38  C   UNL     1       8.588  22.359  54.778  1.00  0.00    -0.019 C 
HETATM   39  C   UNL     1       8.360  21.736  53.401  1.00  0.00     0.010 C 
HETATM   40  C   UNL     1       7.890  21.529  55.857  1.00  0.00     0.010 C 
ENDBRANCH  37  38
ENDBRANCH  34  37
ENDBRANCH   1  31
TORSDOF 7
ENDMDL
MODEL 7
REMARK VINA RESULT:      -8.5      4.022      7.532
REMARK  7 active torsions:
REMARK  status: ('A' for Active; 'I' for Inactive)
REMARK    1  A    between atoms: C_2  and  C_3 
REMARK    2  A    between atoms: C_3  and  C_4 
REMARK    3  A    between atoms: C_7  and  C_8 
REMARK    4  A    between atoms: C_14  and  C_15 
REMARK    5  A    between atoms: C_18  and  O_19 
REMARK    6  A    between atoms: O_19  and  C_20 
REMARK       I    between atoms: C_20  and  N_21 
REMARK    7  A    between atoms: C_33  and  N_34 
ROOT
HETATM    1  C   UNL     1       9.230  29.144  56.959  1.00  0.00     0.099 A 
HETATM    2  N   UNL     1      10.429  29.484  56.446  1.00  0.00    -0.172 NA
HETATM    3  N   UNL     1      10.825  30.547  57.172  1.00  0.00    -0.256 N 
HETATM    4  H   UNL     1      11.720  30.976  56.962  1.00  0.00     0.191 HD
HETATM    5  C   UNL     1       9.919  30.910  58.112  1.00  0.00     0.175 A 
HETATM    6  C   UNL     1       8.873  30.028  58.016  1.00  0.00     0.040 A 
HETATM    7  C   UNL     1       7.689  30.190  58.911  1.00  0.00     0.105 A 
HETATM    8  C   UNL     1       7.924  31.328  59.898  1.00  0.00     0.067 A 
HETATM    9  C   UNL     1       6.914  31.443  61.029  1.00  0.00     0.020 C 
HETATM   10  N   UNL     1       6.078  31.539  61.967  1.00  0.00    -0.096 N 
HETATM   11  C   UNL     1       9.029  32.120  59.886  1.00  0.00     0.139 A 
HETATM   12  O   UNL     1      10.052  31.944  58.936  1.00  0.00    -0.279 OA
ENDROOT
BRANCH   7  13
HETATM   13  C   UNL     1       6.490  30.410  58.000  1.00  0.00    -0.044 A 
HETATM   14  C   UNL     1       5.648  29.323  57.703  1.00  0.00     0.011 A 
HETATM   15  C   UNL     1       4.618  29.454  56.771  1.00  0.00     0.038 A 
HETATM   16  C   UNL     1       4.410  30.678  56.138  1.00  0.00     0.081 A 
HETATM   17  C   UNL     1       5.192  31.783  56.455  1.00  0.00     0.038 A 
HETATM   18  C   UNL     1       6.213  31.653  57.400  1.00  0.00     0.011 A 
BRANCH  16  19
HETATM   19  O   UNL     1       3.485  30.663  55.073  1.00  0.00    -0.261 OA
BRANCH  19  20
HETATM   20  C   UNL     1       2.556  31.676  54.845  1.00  0.00     0.368 C 
HETATM   21  N   UNL     1       2.763  32.305  53.630  1.00  0.00    -0.324 N 
HETATM   22  C   UNL     1       1.816  33.310  53.157  1.00  0.00     0.154 C 
HETATM   23  C   UNL     1       3.743  31.860  52.638  1.00  0.00     0.154 C 
HETATM   24  C   UNL     1       2.539  34.444  52.427  1.00  0.00     0.187 C 
HETATM   25  O   UNL     1       3.385  33.933  51.383  1.00  0.00    -0.388 OA
HETATM   26  C   UNL     1       4.383  33.057  51.928  1.00  0.00     0.187 C 
HETATM   27  O   UNL     1       1.665  31.987  55.627  1.00  0.00    -0.238 OA
ENDBRANCH  19  20
ENDBRANCH  16  19
ENDBRANCH   7  13
BRANCH  11  28
HETATM   28  N   UNL     1       9.292  33.136  60.775  1.00  0.00    -0.282 NA
HETATM   29  H   UNL     1      10.239  33.159  61.145  1.00  0.00     0.126 HD
HETATM   30  H   UNL     1       8.584  33.200  61.503  1.00  0.00     0.126 HD
ENDBRANCH  11  28
BRANCH   1  31
HETATM   31  C   UNL     1       8.450  28.045  56.389  1.00  0.00    -0.005 A 
HETATM   32  C   UNL     1       8.305  26.829  57.064  1.00  0.00     0.014 A 
HETATM   33  C   UNL     1       7.484  25.822  56.544  1.00  0.00     0.008 A 
HETATM   34  C   UNL     1       6.809  26.004  55.330  1.00  0.00    -0.058 A 
HETATM   35  C   UNL     1       6.995  27.200  54.630  1.00  0.00     0.008 A 
HETATM   36  C   UNL     1       7.803  28.212  55.157  1.00  0.00     0.014 A 
BRANCH  34  37
HETATM   37  C   UNL     1       5.907  24.918  54.790  1.00  0.00     0.042 C 
BRANCH  37  38
HETATM   38  C   UNL     1       6.355  24.239  53.476  1.00  0.00    -0.019 C 
HETATM   39  C   UNL     1       7.868  24.026  53.397  1.00  0.00     0.010 C 
HETATM   40  C   UNL     1       5.857  24.966  52.226  1.00  0.00     0.010 C 
ENDBRANCH  37  38
ENDBRANCH  34  37
ENDBRANCH   1  31
TORSDOF 7
ENDMDL
MODEL 8
REMARK VINA RESULT:      -8.4      4.124      7.708
REMARK  7 active torsions:
REMARK  status: ('A' for Active; 'I' for Inactive)
REMARK    1  A    between atoms: C_2  and  C_3 
REMARK    2  A    between atoms: C_3  and  C_4 
REMARK    3  A    between atoms: C_7  and  C_8 
REMARK    4  A    between atoms: C_14  and  C_15 
REMARK    5  A    between atoms: C_18  and  O_19 
REMARK    6  A    between atoms: O_19  and  C_20 
REMARK       I    between atoms: C_20  and  N_21 
REMARK    7  A    between atoms: C_33  and  N_34 
ROOT
HETATM    1  C   UNL     1       9.134  29.158  56.808  1.00  0.00     0.099 A 
HETATM    2  N   UNL     1      10.315  29.518  56.268  1.00  0.00    -0.172 NA
HETATM    3  N   UNL     1      10.717  30.579  56.994  1.00  0.00    -0.256 N 
HETATM    4  H   UNL     1      11.600  31.022  56.765  1.00  0.00     0.191 HD
HETATM    5  C   UNL     1       9.831  30.922  57.960  1.00  0.00     0.175 A 
HETATM    6  C   UNL     1       8.793  30.028  57.882  1.00  0.00     0.040 A 
HETATM    7  C   UNL     1       7.631  30.166  58.809  1.00  0.00     0.105 A 
HETATM    8  C   UNL     1       7.877  31.298  59.800  1.00  0.00     0.067 A 
HETATM    9  C   UNL     1       6.895  31.389  60.958  1.00  0.00     0.020 C 
HETATM   10  N   UNL     1       6.082  31.465  61.918  1.00  0.00    -0.096 N 
HETATM   11  C   UNL     1       8.971  32.104  59.768  1.00  0.00     0.139 A 
HETATM   12  O   UNL     1       9.972  31.950  58.790  1.00  0.00    -0.279 OA
ENDROOT
BRANCH   7  13
HETATM   13  C   UNL     1       6.406  30.379  57.931  1.00  0.00    -0.044 A 
HETATM   14  C   UNL     1       5.563  29.287  57.656  1.00  0.00     0.011 A 
HETATM   15  C   UNL     1       4.508  29.412  56.752  1.00  0.00     0.038 A 
HETATM   16  C   UNL     1       4.274  30.634  56.127  1.00  0.00     0.081 A 
HETATM   17  C   UNL     1       5.058  31.745  56.423  1.00  0.00     0.038 A 
HETATM   18  C   UNL     1       6.105  31.621  57.340  1.00  0.00     0.011 A 
BRANCH  16  19
HETATM   19  O   UNL     1       3.321  30.615  55.087  1.00  0.00    -0.261 OA
BRANCH  19  20
HETATM   20  C   UNL     1       3.464  31.324  53.897  1.00  0.00     0.368 C 
HETATM   21  N   UNL     1       2.602  32.405  53.830  1.00  0.00    -0.324 N 
HETATM   22  C   UNL     1       2.690  33.342  52.714  1.00  0.00     0.154 C 
HETATM   23  C   UNL     1       1.753  32.840  54.940  1.00  0.00     0.154 C 
HETATM   24  C   UNL     1       1.300  33.827  52.296  1.00  0.00     0.187 C 
HETATM   25  O   UNL     1       0.577  34.357  53.420  1.00  0.00    -0.388 OA
HETATM   26  C   UNL     1       0.403  33.349  54.427  1.00  0.00     0.187 C 
HETATM   27  O   UNL     1       4.249  31.027  53.003  1.00  0.00    -0.238 OA
ENDBRANCH  19  20
ENDBRANCH  16  19
ENDBRANCH   7  13
BRANCH  11  28
HETATM   28  N   UNL     1       9.244  33.115  60.659  1.00  0.00    -0.282 NA
HETATM   29  H   UNL     1       8.581  33.215  61.424  1.00  0.00     0.126 HD
HETATM   30  H   UNL     1       9.439  33.996  60.189  1.00  0.00     0.126 HD
ENDBRANCH  11  28
BRANCH   1  31
HETATM   31  C   UNL     1       8.353  28.054  56.247  1.00  0.00    -0.005 A 
HETATM   32  C   UNL     1       7.761  28.150  54.984  1.00  0.00     0.014 A 
HETATM   33  C   UNL     1       7.093  27.053  54.429  1.00  0.00     0.008 A 
HETATM   34  C   UNL     1       6.988  25.846  55.134  1.00  0.00    -0.058 A 
HETATM   35  C   UNL     1       7.537  25.768  56.418  1.00  0.00     0.008 A 
HETATM   36  C   UNL     1       8.217  26.860  56.966  1.00  0.00     0.014 A 
BRANCH  34  37
HETATM   37  C   UNL     1       6.284  24.661  54.514  1.00  0.00     0.042 C 
BRANCH  37  38
HETATM   38  C   UNL     1       7.162  23.690  53.692  1.00  0.00    -0.019 C 
HETATM   39  C   UNL     1       8.221  22.979  54.536  1.00  0.00     0.010 C 
HETATM   40  C   UNL     1       7.810  24.352  52.475  1.00  0.00     0.010 C 
ENDBRANCH  37  38
ENDBRANCH  34  37
ENDBRANCH   1  31
TORSDOF 7
ENDMDL
MODEL 9
REMARK VINA RESULT:      -8.1      1.939      2.663
REMARK  7 active torsions:
REMARK  status: ('A' for Active; 'I' for Inactive)
REMARK    1  A    between atoms: C_2  and  C_3 
REMARK    2  A    between atoms: C_3  and  C_4 
REMARK    3  A    between atoms: C_7  and  C_8 
REMARK    4  A    between atoms: C_14  and  C_15 
REMARK    5  A    between atoms: C_18  and  O_19 
REMARK    6  A    between atoms: O_19  and  C_20 
REMARK       I    between atoms: C_20  and  N_21 
REMARK    7  A    between atoms: C_33  and  N_34 
ROOT
HETATM    1  C   UNL     1       4.103  31.400  55.959  1.00  0.00     0.099 A 
HETATM    2  N   UNL     1       3.132  31.999  56.676  1.00  0.00    -0.172 NA
HETATM    3  N   UNL     1       3.638  32.109  57.920  1.00  0.00    -0.256 N 
HETATM    4  H   UNL     1       3.072  32.542  58.641  1.00  0.00     0.191 HD
HETATM    5  C   UNL     1       4.883  31.585  58.029  1.00  0.00     0.175 A 
HETATM    6  C   UNL     1       5.229  31.120  56.785  1.00  0.00     0.040 A 
HETATM    7  C   UNL     1       6.549  30.452  56.591  1.00  0.00     0.105 A 
HETATM    8  C   UNL     1       7.361  30.498  57.880  1.00  0.00     0.067 A 
HETATM    9  C   UNL     1       8.819  30.081  57.760  1.00  0.00     0.020 C 
HETATM   10  N   UNL     1      10.027  29.736  57.661  1.00  0.00    -0.096 N 
HETATM   11  C   UNL     1       6.891  31.009  59.048  1.00  0.00     0.139 A 
HETATM   12  O   UNL     1       5.590  31.536  59.153  1.00  0.00    -0.279 OA
ENDROOT
BRANCH   7  13
HETATM   13  C   UNL     1       6.246  29.039  56.111  1.00  0.00    -0.044 A 
HETATM   14  C   UNL     1       5.428  28.209  56.899  1.00  0.00     0.011 A 
HETATM   15  C   UNL     1       5.235  26.870  56.559  1.00  0.00     0.038 A 
HETATM   16  C   UNL     1       5.844  26.351  55.419  1.00  0.00     0.081 A 
HETATM   17  C   UNL     1       6.612  27.164  54.592  1.00  0.00     0.038 A 
HETATM   18  C   UNL     1       6.792  28.508  54.926  1.00  0.00     0.011 A 
BRANCH  16  19
HETATM   19  O   UNL     1       5.759  24.951  55.266  1.00  0.00    -0.261 OA
BRANCH  19  20
HETATM   20  C   UNL     1       6.169  24.275  54.119  1.00  0.00     0.368 C 
HETATM   21  N   UNL     1       7.098  23.289  54.402  1.00  0.00    -0.324 N 
HETATM   22  C   UNL     1       7.553  22.390  53.347  1.00  0.00     0.154 C 
HETATM   23  C   UNL     1       7.487  22.902  55.759  1.00  0.00     0.154 C 
HETATM   24  C   UNL     1       9.039  22.061  53.511  1.00  0.00     0.187 C 
HETATM   25  O   UNL     1       9.318  21.567  54.831  1.00  0.00    -0.388 OA
HETATM   26  C   UNL     1       8.977  22.549  55.819  1.00  0.00     0.187 C 
HETATM   27  O   UNL     1       5.768  24.524  52.987  1.00  0.00    -0.238 OA
ENDBRANCH  19  20
ENDBRANCH  16  19
ENDBRANCH   7  13
BRANCH  11  28
HETATM   28  N   UNL     1       7.601  31.097  60.224  1.00  0.00    -0.282 NA
HETATM   29  H   UNL     1       7.135  31.592  60.980  1.00  0.00     0.126 HD
HETATM   30  H   UNL     1       8.554  31.420  60.071  1.00  0.00     0.126 HD
ENDBRANCH  11  28
BRANCH   1  31
HETATM   31  C   UNL     1       3.902  31.064  54.550  1.00  0.00    -0.005 A 
HETATM   32  C   UNL     1       4.152  31.994  53.537  1.00  0.00     0.014 A 
HETATM   33  C   UNL     1       4.037  31.627  52.192  1.00  0.00     0.008 A 
HETATM   34  C   UNL     1       3.653  30.327  51.834  1.00  0.00    -0.058 A 
HETATM   35  C   UNL     1       3.355  29.412  52.848  1.00  0.00     0.008 A 
HETATM   36  C   UNL     1       3.483  29.776  54.193  1.00  0.00     0.014 A 
BRANCH  34  37
HETATM   37  C   UNL     1       3.556  29.936  50.377  1.00  0.00     0.042 C 
BRANCH  37  38
HETATM   38  C   UNL     1       2.235  29.270  49.929  1.00  0.00    -0.019 C 
HETATM   39  C   UNL     1       2.355  28.548  48.586  1.00  0.00     0.010 C 
HETATM   40  C   UNL     1       1.053  30.240  49.905  1.00  0.00     0.010 C 
ENDBRANCH  37  38
ENDBRANCH  34  37
ENDBRANCH   1  31
TORSDOF 7
ENDMDL
MODEL 10
REMARK VINA RESULT:      -7.9      3.798      7.188
REMARK  7 active torsions:
REMARK  status: ('A' for Active; 'I' for Inactive)
REMARK    1  A    between atoms: C_2  and  C_3 
REMARK    2  A    between atoms: C_3  and  C_4 
REMARK    3  A    between atoms: C_7  and  C_8 
REMARK    4  A    between atoms: C_14  and  C_15 
REMARK    5  A    between atoms: C_18  and  O_19 
REMARK    6  A    between atoms: O_19  and  C_20 
REMARK       I    between atoms: C_20  and  N_21 
REMARK    7  A    between atoms: C_33  and  N_34 
ROOT
HETATM    1  C   UNL     1       8.481  29.908  57.732  1.00  0.00     0.099 A 
HETATM    2  N   UNL     1       9.763  30.308  57.619  1.00  0.00    -0.172 NA
HETATM    3  N   UNL     1       9.866  31.373  58.437  1.00  0.00    -0.256 N 
HETATM    4  H   UNL     1      10.761  31.844  58.517  1.00  0.00     0.191 HD
HETATM    5  C   UNL     1       8.697  31.680  59.050  1.00  0.00     0.175 A 
HETATM    6  C   UNL     1       7.774  30.757  58.630  1.00  0.00     0.040 A 
HETATM    7  C   UNL     1       6.365  30.852  59.114  1.00  0.00     0.105 A 
HETATM    8  C   UNL     1       6.229  31.981  60.129  1.00  0.00     0.067 A 
HETATM    9  C   UNL     1       4.914  32.032  60.891  1.00  0.00     0.020 C 
HETATM   10  N   UNL     1       3.825  32.075  61.523  1.00  0.00    -0.096 N 
HETATM   11  C   UNL     1       7.246  32.819  60.465  1.00  0.00     0.139 A 
HETATM   12  O   UNL     1       8.521  32.704  59.879  1.00  0.00    -0.279 OA
ENDROOT
BRANCH   7  13
HETATM   13  C   UNL     1       5.499  31.038  57.875  1.00  0.00    -0.044 A 
HETATM   14  C   UNL     1       4.613  30.012  57.500  1.00  0.00     0.011 A 
HETATM   15  C   UNL     1       3.901  30.089  56.303  1.00  0.00     0.038 A 
HETATM   16  C   UNL     1       4.054  31.200  55.477  1.00  0.00     0.081 A 
HETATM   17  C   UNL     1       4.881  32.254  55.853  1.00  0.00     0.038 A 
HETATM   18  C   UNL     1       5.582  32.182  57.058  1.00  0.00     0.011 A 
BRANCH  16  19
HETATM   19  O   UNL     1       3.456  31.101  54.204  1.00  0.00    -0.261 OA
BRANCH  19  20
HETATM   20  C   UNL     1       3.993  30.357  53.156  1.00  0.00     0.368 C 
HETATM   21  N   UNL     1       4.274  31.143  52.052  1.00  0.00    -0.324 N 
HETATM   22  C   UNL     1       4.957  30.565  50.899  1.00  0.00     0.154 C 
HETATM   23  C   UNL     1       4.163  32.602  52.042  1.00  0.00     0.154 C 
HETATM   24  C   UNL     1       4.416  31.151  49.592  1.00  0.00     0.187 C 
HETATM   25  O   UNL     1       4.460  32.588  49.611  1.00  0.00    -0.388 OA
HETATM   26  C   UNL     1       3.658  33.102  50.685  1.00  0.00     0.187 C 
HETATM   27  O   UNL     1       4.186  29.146  53.193  1.00  0.00    -0.238 OA
ENDBRANCH  19  20
ENDBRANCH  16  19
ENDBRANCH   7  13
BRANCH  11  28
HETATM   28  N   UNL     1       7.174  33.829  61.396  1.00  0.00    -0.282 NA
HETATM   29  H   UNL     1       6.982  34.755  61.022  1.00  0.00     0.126 HD
HETATM   30  H   UNL     1       7.967  33.818  62.033  1.00  0.00     0.126 HD
ENDBRANCH  11  28
BRANCH   1  31
HETATM   31  C   UNL     1       7.968  28.788  56.943  1.00  0.00    -0.005 A 
HETATM   32  C   UNL     1       7.740  28.910  55.569  1.00  0.00     0.014 A 
HETATM   33  C   UNL     1       7.332  27.802  54.817  1.00  0.00     0.008 A 
HETATM   34  C   UNL     1       7.127  26.558  55.427  1.00  0.00    -0.058 A 
HETATM   35  C   UNL     1       7.306  26.450  56.809  1.00  0.00     0.008 A 
HETATM   36  C   UNL     1       7.728  27.553  57.559  1.00  0.00     0.014 A 
BRANCH  34  37
HETATM   37  C   UNL     1       6.709  25.364  54.599  1.00  0.00     0.042 C 
BRANCH  37  38
HETATM   38  C   UNL     1       7.821  24.355  54.233  1.00  0.00    -0.019 C 
HETATM   39  C   UNL     1       7.934  24.108  52.728  1.00  0.00     0.010 C 
HETATM   40  C   UNL     1       7.694  23.026  54.980  1.00  0.00     0.010 C 
ENDBRANCH  37  38
ENDBRANCH  34  37
ENDBRANCH   1  31
TORSDOF 7
ENDMDL
