MODEL 1
REMARK VINA RESULT:      -8.9      0.000      0.000
REMARK  6 active torsions:
REMARK  status: ('A' for Active; 'I' for Inactive)
REMARK    1  A    between atoms: C_2  and  O_3 
REMARK    2  A    between atoms: O_3  and  C_4 
REMARK    3  A    between atoms: C_4  and  C_6 
REMARK    4  A    between atoms: C_8  and  N_9 
REMARK    5  A    between atoms: N_9  and  C_10 
REMARK    6  A    between atoms: C_18  and  C_19 
ROOT
HETATM    1  C   UNL     1       5.819  26.549  53.804  1.00  0.00     0.115 A 
HETATM    2  S   UNL     1       5.714  28.231  54.141  1.00  0.00    -0.043 SA
HETATM    3  C   UNL     1       7.251  28.187  54.923  1.00  0.00     0.172 A 
HETATM    4  N   UNL     1       7.789  26.992  54.970  1.00  0.00    -0.220 NA
HETATM    5  C   UNL     1       6.982  26.047  54.348  1.00  0.00     0.118 A 
ENDROOT
BRANCH   3   6
HETATM    6  N   UNL     1       7.777  29.344  55.385  1.00  0.00    -0.335 N 
HETATM    7  H   UNL     1       7.996  30.051  54.695  1.00  0.00     0.168 HD
BRANCH   6   8
HETATM    8  C   UNL     1       8.148  29.683  56.700  1.00  0.00     0.034 A 
HETATM    9  C   UNL     1       7.136  30.046  57.606  1.00  0.00     0.031 A 
HETATM   10  C   UNL     1       7.435  30.439  58.915  1.00  0.00     0.021 A 
HETATM   11  C   UNL     1       8.760  30.473  59.336  1.00  0.00     0.011 A 
HETATM   12 BR   UNL     1       9.175  31.009  61.100  1.00  0.00    -0.051 Br
HETATM   13  C   UNL     1       9.780  30.118  58.462  1.00  0.00     0.021 A 
HETATM   14  C   UNL     1       9.472  29.730  57.153  1.00  0.00     0.031 A 
ENDBRANCH   6   8
ENDBRANCH   3   6
BRANCH   1  15
HETATM   15  C   UNL     1       4.822  25.914  52.984  1.00  0.00     0.302 C 
HETATM   16  O   UNL     1       4.309  24.823  53.194  1.00  0.00    -0.259 OA
BRANCH  15  17
HETATM   17  O   UNL     1       4.576  26.680  51.876  1.00  0.00    -0.317 OA
BRANCH  17  18
HETATM   18  C   UNL     1       5.381  26.388  50.725  1.00  0.00     0.174 C 
HETATM   19  C   UNL     1       4.530  26.444  49.468  1.00  0.00     0.034 C 
ENDBRANCH  17  18
ENDBRANCH  15  17
ENDBRANCH   1  15
BRANCH   5  20
HETATM   20  C   UNL     1       7.383  24.595  54.327  1.00  0.00     0.129 A 
HETATM   21  N   UNL     1       7.400  23.847  55.409  1.00  0.00    -0.238 NA
HETATM   22  C   UNL     1       7.796  22.559  55.089  1.00  0.00     0.075 A 
HETATM   23  C   UNL     1       7.901  21.479  55.989  1.00  0.00     0.033 A 
HETATM   24  C   UNL     1       8.115  22.346  53.747  1.00  0.00     0.035 A 
HETATM   25  C   UNL     1       8.317  20.225  55.525  1.00  0.00     0.002 A 
HETATM   26  C   UNL     1       8.629  20.037  54.182  1.00  0.00     0.002 A 
HETATM   27  C   UNL     1       8.535  21.094  53.271  1.00  0.00     0.021 A 
HETATM   28  S   UNL     1       7.901  23.818  52.885  1.00  0.00    -0.066 SA
ENDBRANCH   5  20
TORSDOF 6
ENDMDL
MODEL 2
REMARK VINA RESULT:      -8.8      2.659      3.705
REMARK  6 active torsions:
REMARK  status: ('A' for Active; 'I' for Inactive)
REMARK    1  A    between atoms: C_2  and  O_3 
REMARK    2  A    between atoms: O_3  and  C_4 
REMARK    3  A    between atoms: C_4  and  C_6 
REMARK    4  A    between atoms: C_8  and  N_9 
REMARK    5  A    between atoms: N_9  and  C_10 
REMARK    6  A    between atoms: C_18  and  C_19 
ROOT
HETATM    1  C   UNL     1       6.351  28.807  56.723  1.00  0.00     0.115 A 
HETATM    2  S   UNL     1       6.659  30.155  57.744  1.00  0.00    -0.043 SA
HETATM    3  C   UNL     1       8.204  29.509  58.157  1.00  0.00     0.172 A 
HETATM    4  N   UNL     1       8.459  28.346  57.606  1.00  0.00    -0.220 NA
HETATM    5  C   UNL     1       7.410  27.926  56.798  1.00  0.00     0.118 A 
ENDROOT
BRANCH   3   6
HETATM    6  N   UNL     1       9.016  30.233  58.961  1.00  0.00    -0.335 N 
HETATM    7  H   UNL     1      10.004  30.217  58.740  1.00  0.00     0.168 HD
BRANCH   6   8
HETATM    8  C   UNL     1       8.694  30.950  60.128  1.00  0.00     0.034 A 
HETATM    9  C   UNL     1       8.946  30.347  61.373  1.00  0.00     0.031 A 
HETATM   10  C   UNL     1       8.609  30.983  62.573  1.00  0.00     0.021 A 
HETATM   11  C   UNL     1       8.012  32.239  62.541  1.00  0.00     0.011 A 
HETATM   12 BR   UNL     1       7.548  33.102  64.156  1.00  0.00    -0.051 Br
HETATM   13  C   UNL     1       7.753  32.858  61.325  1.00  0.00     0.021 A 
HETATM   14  C   UNL     1       8.090  32.213  60.129  1.00  0.00     0.031 A 
ENDBRANCH   6   8
ENDBRANCH   3   6
BRANCH   1  15
HETATM   15  C   UNL     1       5.171  28.781  55.900  1.00  0.00     0.302 C 
HETATM   16  O   UNL     1       4.105  28.255  56.190  1.00  0.00    -0.259 OA
BRANCH  15  17
HETATM   17  O   UNL     1       5.435  29.372  54.694  1.00  0.00    -0.317 OA
BRANCH  17  18
HETATM   18  C   UNL     1       4.644  28.913  53.588  1.00  0.00     0.174 C 
HETATM   19  C   UNL     1       5.546  28.372  52.493  1.00  0.00     0.034 C 
ENDBRANCH  17  18
ENDBRANCH  15  17
ENDBRANCH   1  15
BRANCH   5  20
HETATM   20  C   UNL     1       7.467  26.591  56.103  1.00  0.00     0.129 A 
HETATM   21  N   UNL     1       7.566  26.473  54.798  1.00  0.00    -0.238 NA
HETATM   22  C   UNL     1       7.608  25.135  54.444  1.00  0.00     0.075 A 
HETATM   23  C   UNL     1       7.742  24.629  53.135  1.00  0.00     0.033 A 
HETATM   24  C   UNL     1       7.506  24.232  55.503  1.00  0.00     0.035 A 
HETATM   25  C   UNL     1       7.770  23.246  52.923  1.00  0.00     0.002 A 
HETATM   26  C   UNL     1       7.666  22.365  53.995  1.00  0.00     0.002 A 
HETATM   27  C   UNL     1       7.531  22.842  55.301  1.00  0.00     0.021 A 
HETATM   28  S   UNL     1       7.355  25.112  56.972  1.00  0.00    -0.066 SA
ENDBRANCH   5  20
TORSDOF 6
ENDMDL
MODEL 3
REMARK VINA RESULT:      -8.4      1.933      2.742
REMARK  6 active torsions:
REMARK  status: ('A' for Active; 'I' for Inactive)
REMARK    1  A    between atoms: C_2  and  O_3 
REMARK    2  A    between atoms: O_3  and  C_4 
REMARK    3  A    between atoms: C_4  and  C_6 
REMARK    4  A    between atoms: C_8  and  N_9 
REMARK    5  A    between atoms: N_9  and  C_10 
REMARK    6  A    between atoms: C_18  and  C_19 
ROOT
HETATM    1  C   UNL     1       6.997  27.811  55.203  1.00  0.00     0.115 A 
HETATM    2  S   UNL     1       7.166  29.318  56.012  1.00  0.00    -0.043 SA
HETATM    3  C   UNL     1       8.225  28.597  57.167  1.00  0.00     0.172 A 
HETATM    4  N   UNL     1       8.409  27.311  56.990  1.00  0.00    -0.220 NA
HETATM    5  C   UNL     1       7.708  26.845  55.885  1.00  0.00     0.118 A 
ENDROOT
BRANCH   3   6
HETATM    6  N   UNL     1       8.786  29.385  58.113  1.00  0.00    -0.335 N 
HETATM    7  H   UNL     1       9.769  29.234  58.305  1.00  0.00     0.168 HD
BRANCH   6   8
HETATM    8  C   UNL     1       8.174  30.343  58.942  1.00  0.00     0.034 A 
HETATM    9  C   UNL     1       8.660  30.500  60.252  1.00  0.00     0.031 A 
HETATM   10  C   UNL     1       8.070  31.402  61.146  1.00  0.00     0.021 A 
HETATM   11  C   UNL     1       6.981  32.163  60.735  1.00  0.00     0.011 A 
HETATM   12 BR   UNL     1       6.175  33.378  61.936  1.00  0.00    -0.051 Br
HETATM   13  C   UNL     1       6.482  32.029  59.445  1.00  0.00     0.021 A 
HETATM   14  C   UNL     1       7.075  31.122  58.559  1.00  0.00     0.031 A 
ENDBRANCH   6   8
ENDBRANCH   3   6
BRANCH   1  15
HETATM   15  C   UNL     1       6.276  27.736  53.960  1.00  0.00     0.302 C 
HETATM   16  O   UNL     1       6.571  28.316  52.923  1.00  0.00    -0.259 OA
BRANCH  15  17
HETATM   17  O   UNL     1       5.153  26.972  54.122  1.00  0.00    -0.317 OA
BRANCH  17  18
HETATM   18  C   UNL     1       4.595  26.420  52.921  1.00  0.00     0.174 C 
HETATM   19  C   UNL     1       4.659  24.904  52.966  1.00  0.00     0.034 C 
ENDBRANCH  17  18
ENDBRANCH  15  17
ENDBRANCH   1  15
BRANCH   5  20
HETATM   20  C   UNL     1       7.735  25.383  55.523  1.00  0.00     0.129 A 
HETATM   21  N   UNL     1       7.882  24.960  54.286  1.00  0.00    -0.238 NA
HETATM   22  C   UNL     1       7.881  23.576  54.255  1.00  0.00     0.075 A 
HETATM   23  C   UNL     1       8.045  22.774  53.107  1.00  0.00     0.033 A 
HETATM   24  C   UNL     1       7.696  22.949  55.488  1.00  0.00     0.035 A 
HETATM   25  C   UNL     1       8.022  21.379  53.223  1.00  0.00     0.002 A 
HETATM   26  C   UNL     1       7.836  20.778  54.464  1.00  0.00     0.002 A 
HETATM   27  C   UNL     1       7.669  21.551  55.616  1.00  0.00     0.021 A 
HETATM   28  S   UNL     1       7.523  24.153  56.703  1.00  0.00    -0.066 SA
ENDBRANCH   5  20
TORSDOF 6
ENDMDL
MODEL 4
REMARK VINA RESULT:      -8.2      3.963      7.009
REMARK  6 active torsions:
REMARK  status: ('A' for Active; 'I' for Inactive)
REMARK    1  A    between atoms: C_2  and  O_3 
REMARK    2  A    between atoms: O_3  and  C_4 
REMARK    3  A    between atoms: C_4  and  C_6 
REMARK    4  A    between atoms: C_8  and  N_9 
REMARK    5  A    between atoms: N_9  and  C_10 
REMARK    6  A    between atoms: C_18  and  C_19 
ROOT
HETATM    1  C   UNL     1       6.217  26.687  53.846  1.00  0.00     0.115 A 
HETATM    2  S   UNL     1       5.811  27.991  52.803  1.00  0.00    -0.043 SA
HETATM    3  C   UNL     1       5.978  26.963  51.428  1.00  0.00     0.172 A 
HETATM    4  N   UNL     1       6.354  25.741  51.719  1.00  0.00    -0.220 NA
HETATM    5  C   UNL     1       6.506  25.570  53.090  1.00  0.00     0.118 A 
ENDROOT
BRANCH   3   6
HETATM    6  N   UNL     1       5.695  27.466  50.204  1.00  0.00    -0.335 N 
HETATM    7  H   UNL     1       6.440  27.963  49.734  1.00  0.00     0.168 HD
BRANCH   6   8
HETATM    8  C   UNL     1       4.469  27.468  49.512  1.00  0.00     0.034 A 
HETATM    9  C   UNL     1       4.307  26.576  48.438  1.00  0.00     0.031 A 
HETATM   10  C   UNL     1       3.133  26.556  47.676  1.00  0.00     0.021 A 
HETATM   11  C   UNL     1       2.100  27.435  47.984  1.00  0.00     0.011 A 
HETATM   12 BR   UNL     1       0.513  27.419  46.958  1.00  0.00    -0.051 Br
HETATM   13  C   UNL     1       2.232  28.326  49.042  1.00  0.00     0.021 A 
HETATM   14  C   UNL     1       3.412  28.342  49.795  1.00  0.00     0.031 A 
ENDBRANCH   6   8
ENDBRANCH   3   6
BRANCH   1  15
HETATM   15  C   UNL     1       6.132  26.851  55.273  1.00  0.00     0.302 C 
HETATM   16  O   UNL     1       5.117  26.743  55.948  1.00  0.00    -0.259 OA
BRANCH  15  17
HETATM   17  O   UNL     1       7.351  27.224  55.770  1.00  0.00    -0.317 OA
BRANCH  17  18
HETATM   18  C   UNL     1       7.478  27.193  57.199  1.00  0.00     0.174 C 
HETATM   19  C   UNL     1       7.925  28.551  57.711  1.00  0.00     0.034 C 
ENDBRANCH  17  18
ENDBRANCH  15  17
ENDBRANCH   1  15
BRANCH   5  20
HETATM   20  C   UNL     1       6.981  24.254  53.648  1.00  0.00     0.129 A 
HETATM   21  N   UNL     1       7.452  23.289  52.889  1.00  0.00    -0.238 NA
HETATM   22  C   UNL     1       7.820  22.207  53.670  1.00  0.00     0.075 A 
HETATM   23  C   UNL     1       8.392  21.006  53.203  1.00  0.00     0.033 A 
HETATM   24  C   UNL     1       7.589  22.351  55.039  1.00  0.00     0.035 A 
HETATM   25  C   UNL     1       8.716  19.991  54.111  1.00  0.00     0.002 A 
HETATM   26  C   UNL     1       8.476  20.158  55.471  1.00  0.00     0.002 A 
HETATM   27  C   UNL     1       7.908  21.339  55.958  1.00  0.00     0.021 A 
HETATM   28  S   UNL     1       6.892  23.896  55.326  1.00  0.00    -0.066 SA
ENDBRANCH   5  20
TORSDOF 6
ENDMDL
MODEL 5
REMARK VINA RESULT:      -8.1      3.490      8.083
REMARK  6 active torsions:
REMARK  status: ('A' for Active; 'I' for Inactive)
REMARK    1  A    between atoms: C_2  and  O_3 
REMARK    2  A    between atoms: O_3  and  C_4 
REMARK    3  A    between atoms: C_4  and  C_6 
REMARK    4  A    between atoms: C_8  and  N_9 
REMARK    5  A    between atoms: N_9  and  C_10 
REMARK    6  A    between atoms: C_18  and  C_19 
ROOT
HETATM    1  C   UNL     1       5.882  29.179  55.111  1.00  0.00     0.115 A 
HETATM    2  S   UNL     1       5.688  28.074  53.810  1.00  0.00    -0.043 SA
HETATM    3  C   UNL     1       7.152  27.275  54.249  1.00  0.00     0.172 A 
HETATM    4  N   UNL     1       7.770  27.820  55.270  1.00  0.00    -0.220 NA
HETATM    5  C   UNL     1       7.067  28.911  55.765  1.00  0.00     0.118 A 
ENDROOT
BRANCH   3   6
HETATM    6  N   UNL     1       7.525  26.175  53.555  1.00  0.00    -0.335 N 
HETATM    7  H   UNL     1       7.665  26.293  52.559  1.00  0.00     0.168 HD
BRANCH   6   8
HETATM    8  C   UNL     1       7.670  24.851  54.008  1.00  0.00     0.034 A 
HETATM    9  C   UNL     1       7.977  23.853  53.066  1.00  0.00     0.031 A 
HETATM   10  C   UNL     1       8.089  22.509  53.438  1.00  0.00     0.021 A 
HETATM   11  C   UNL     1       7.897  22.145  54.767  1.00  0.00     0.011 A 
HETATM   12 BR   UNL     1       8.042  20.332  55.277  1.00  0.00    -0.051 Br
HETATM   13  C   UNL     1       7.594  23.111  55.719  1.00  0.00     0.021 A 
HETATM   14  C   UNL     1       7.478  24.453  55.337  1.00  0.00     0.031 A 
ENDBRANCH   6   8
ENDBRANCH   3   6
BRANCH   1  15
HETATM   15  C   UNL     1       4.841  30.125  55.416  1.00  0.00     0.302 C 
HETATM   16  O   UNL     1       4.763  31.268  54.987  1.00  0.00    -0.259 OA
BRANCH  15  17
HETATM   17  O   UNL     1       3.976  29.583  56.327  1.00  0.00    -0.317 OA
BRANCH  17  18
HETATM   18  C   UNL     1       3.049  30.499  56.929  1.00  0.00     0.174 C 
HETATM   19  C   UNL     1       3.527  30.885  58.317  1.00  0.00     0.034 C 
ENDBRANCH  17  18
ENDBRANCH  15  17
ENDBRANCH   1  15
BRANCH   5  20
HETATM   20  C   UNL     1       7.619  29.720  56.909  1.00  0.00     0.129 A 
HETATM   21  N   UNL     1       6.851  30.383  57.746  1.00  0.00    -0.238 NA
HETATM   22  C   UNL     1       7.627  31.023  58.698  1.00  0.00     0.075 A 
HETATM   23  C   UNL     1       7.146  31.801  59.770  1.00  0.00     0.033 A 
HETATM   24  C   UNL     1       9.006  30.863  58.552  1.00  0.00     0.035 A 
HETATM   25  C   UNL     1       8.049  32.392  60.661  1.00  0.00     0.002 A 
HETATM   26  C   UNL     1       9.420  32.219  60.495  1.00  0.00     0.002 A 
HETATM   27  C   UNL     1       9.921  31.453  59.438  1.00  0.00     0.021 A 
HETATM   28  S   UNL     1       9.309  29.878  57.176  1.00  0.00    -0.066 SA
ENDBRANCH   5  20
TORSDOF 6
ENDMDL
MODEL 6
REMARK VINA RESULT:      -8.0      3.809      6.528
REMARK  6 active torsions:
REMARK  status: ('A' for Active; 'I' for Inactive)
REMARK    1  A    between atoms: C_2  and  O_3 
REMARK    2  A    between atoms: O_3  and  C_4 
REMARK    3  A    between atoms: C_4  and  C_6 
REMARK    4  A    between atoms: C_8  and  N_9 
REMARK    5  A    between atoms: N_9  and  C_10 
REMARK    6  A    between atoms: C_18  and  C_19 
ROOT
HETATM    1  C   UNL     1       5.710  26.748  55.011  1.00  0.00     0.115 A 
HETATM    2  S   UNL     1       5.227  28.188  54.206  1.00  0.00    -0.043 SA
HETATM    3  C   UNL     1       5.678  27.507  52.686  1.00  0.00     0.172 A 
HETATM    4  N   UNL     1       6.194  26.305  52.773  1.00  0.00    -0.220 NA
HETATM    5  C   UNL     1       6.231  25.863  54.090  1.00  0.00     0.118 A 
ENDROOT
BRANCH   3   6
HETATM    6  N   UNL     1       5.449  28.223  51.561  1.00  0.00    -0.335 N 
HETATM    7  H   UNL     1       5.969  29.085  51.458  1.00  0.00     0.168 HD
BRANCH   6   8
HETATM    8  C   UNL     1       4.517  27.983  50.535  1.00  0.00     0.034 A 
HETATM    9  C   UNL     1       3.362  28.783  50.480  1.00  0.00     0.031 A 
HETATM   10  C   UNL     1       2.371  28.570  49.516  1.00  0.00     0.021 A 
HETATM   11  C   UNL     1       2.526  27.547  48.585  1.00  0.00     0.011 A 
HETATM   12 BR   UNL     1       1.191  27.248  47.283  1.00  0.00    -0.051 Br
HETATM   13  C   UNL     1       3.658  26.742  48.615  1.00  0.00     0.021 A 
HETATM   14  C   UNL     1       4.642  26.959  49.587  1.00  0.00     0.031 A 
ENDBRANCH   6   8
ENDBRANCH   3   6
BRANCH   1  15
HETATM   15  C   UNL     1       5.460  26.590  56.419  1.00  0.00     0.302 C 
HETATM   16  O   UNL     1       4.765  25.723  56.931  1.00  0.00    -0.259 OA
BRANCH  15  17
HETATM   17  O   UNL     1       6.058  27.607  57.113  1.00  0.00    -0.317 OA
BRANCH  17  18
HETATM   18  C   UNL     1       7.400  27.357  57.554  1.00  0.00     0.174 C 
HETATM   19  C   UNL     1       8.086  28.666  57.902  1.00  0.00     0.034 C 
ENDBRANCH  17  18
ENDBRANCH  15  17
ENDBRANCH   1  15
BRANCH   5  20
HETATM   20  C   UNL     1       6.831  24.524  54.430  1.00  0.00     0.129 A 
HETATM   21  N   UNL     1       7.231  24.212  55.643  1.00  0.00    -0.238 NA
HETATM   22  C   UNL     1       7.728  22.920  55.662  1.00  0.00     0.075 A 
HETATM   23  C   UNL     1       8.217  22.238  56.795  1.00  0.00     0.033 A 
HETATM   24  C   UNL     1       7.731  22.262  54.431  1.00  0.00     0.035 A 
HETATM   25  C   UNL     1       8.691  20.927  56.667  1.00  0.00     0.002 A 
HETATM   26  C   UNL     1       8.685  20.292  55.429  1.00  0.00     0.002 A 
HETATM   27  C   UNL     1       8.206  20.948  54.291  1.00  0.00     0.021 A 
HETATM   28  S   UNL     1       7.087  23.315  53.236  1.00  0.00    -0.066 SA
ENDBRANCH   5  20
TORSDOF 6
ENDMDL
MODEL 7
REMARK VINA RESULT:      -7.9      1.822      2.468
REMARK  6 active torsions:
REMARK  status: ('A' for Active; 'I' for Inactive)
REMARK    1  A    between atoms: C_2  and  O_3 
REMARK    2  A    between atoms: O_3  and  C_4 
REMARK    3  A    between atoms: C_4  and  C_6 
REMARK    4  A    between atoms: C_8  and  N_9 
REMARK    5  A    between atoms: N_9  and  C_10 
REMARK    6  A    between atoms: C_18  and  C_19 
ROOT
HETATM    1  C   UNL     1       5.845  26.550  53.205  1.00  0.00     0.115 A 
HETATM    2  S   UNL     1       5.576  28.230  53.453  1.00  0.00    -0.043 SA
HETATM    3  C   UNL     1       6.663  28.223  54.792  1.00  0.00     0.172 A 
HETATM    4  N   UNL     1       7.161  27.041  55.067  1.00  0.00    -0.220 NA
HETATM    5  C   UNL     1       6.698  26.076  54.181  1.00  0.00     0.118 A 
ENDROOT
BRANCH   3   6
HETATM    6  N   UNL     1       6.930  29.392  55.417  1.00  0.00    -0.335 N 
HETATM    7  H   UNL     1       7.836  29.807  55.236  1.00  0.00     0.168 HD
BRANCH   6   8
HETATM    8  C   UNL     1       6.153  30.088  56.361  1.00  0.00     0.034 A 
HETATM    9  C   UNL     1       6.796  30.622  57.493  1.00  0.00     0.031 A 
HETATM   10  C   UNL     1       6.079  31.285  58.494  1.00  0.00     0.021 A 
HETATM   11  C   UNL     1       4.700  31.425  58.375  1.00  0.00     0.011 A 
HETATM   12 BR   UNL     1       3.723  32.314  59.725  1.00  0.00    -0.051 Br
HETATM   13  C   UNL     1       4.039  30.909  57.267  1.00  0.00     0.021 A 
HETATM   14  C   UNL     1       4.764  30.243  56.271  1.00  0.00     0.031 A 
ENDBRANCH   6   8
ENDBRANCH   3   6
BRANCH   1  15
HETATM   15  C   UNL     1       5.282  25.891  52.058  1.00  0.00     0.302 C 
HETATM   16  O   UNL     1       4.592  24.880  52.078  1.00  0.00    -0.259 OA
BRANCH  15  17
HETATM   17  O   UNL     1       5.693  26.519  50.914  1.00  0.00    -0.317 OA
BRANCH  17  18
HETATM   18  C   UNL     1       4.657  27.124  50.127  1.00  0.00     0.174 C 
HETATM   19  C   UNL     1       4.542  26.417  48.788  1.00  0.00     0.034 C 
ENDBRANCH  17  18
ENDBRANCH  15  17
ENDBRANCH   1  15
BRANCH   5  20
HETATM   20  C   UNL     1       7.104  24.635  54.340  1.00  0.00     0.129 A 
HETATM   21  N   UNL     1       7.464  23.882  53.324  1.00  0.00    -0.238 NA
HETATM   22  C   UNL     1       7.793  22.612  53.767  1.00  0.00     0.075 A 
HETATM   23  C   UNL     1       8.251  21.548  52.963  1.00  0.00     0.033 A 
HETATM   24  C   UNL     1       7.644  22.399  55.138  1.00  0.00     0.035 A 
HETATM   25  C   UNL     1       8.547  20.311  53.548  1.00  0.00     0.002 A 
HETATM   26  C   UNL     1       8.391  20.123  54.918  1.00  0.00     0.002 A 
HETATM   27  C   UNL     1       7.936  21.162  55.735  1.00  0.00     0.021 A 
HETATM   28  S   UNL     1       7.076  23.848  55.868  1.00  0.00    -0.066 SA
ENDBRANCH   5  20
TORSDOF 6
ENDMDL
MODEL 8
REMARK VINA RESULT:      -7.8      4.258      6.811
REMARK  6 active torsions:
REMARK  status: ('A' for Active; 'I' for Inactive)
REMARK    1  A    between atoms: C_2  and  O_3 
REMARK    2  A    between atoms: O_3  and  C_4 
REMARK    3  A    between atoms: C_4  and  C_6 
REMARK    4  A    between atoms: C_8  and  N_9 
REMARK    5  A    between atoms: N_9  and  C_10 
REMARK    6  A    between atoms: C_18  and  C_19 
ROOT
HETATM    1  C   UNL     1       5.531  28.066  54.853  1.00  0.00     0.115 A 
HETATM    2  S   UNL     1       4.513  29.336  54.301  1.00  0.00    -0.043 SA
HETATM    3  C   UNL     1       3.740  28.257  53.199  1.00  0.00     0.172 A 
HETATM    4  N   UNL     1       4.234  27.042  53.208  1.00  0.00    -0.220 NA
HETATM    5  C   UNL     1       5.262  26.920  54.135  1.00  0.00     0.118 A 
ENDROOT
BRANCH   3   6
HETATM    6  N   UNL     1       2.706  28.718  52.458  1.00  0.00    -0.335 N 
HETATM    7  H   UNL     1       1.810  28.790  52.924  1.00  0.00     0.168 HD
BRANCH   6   8
HETATM    8  C   UNL     1       2.674  29.040  51.088  1.00  0.00     0.034 A 
HETATM    9  C   UNL     1       3.887  29.349  50.447  1.00  0.00     0.031 A 
HETATM   10  C   UNL     1       3.924  29.722  49.099  1.00  0.00     0.021 A 
HETATM   11  C   UNL     1       2.741  29.790  48.371  1.00  0.00     0.011 A 
HETATM   12 BR   UNL     1       2.782  30.299  46.552  1.00  0.00    -0.051 Br
HETATM   13  C   UNL     1       1.529  29.488  48.979  1.00  0.00     0.021 A 
HETATM   14  C   UNL     1       1.500  29.120  50.330  1.00  0.00     0.031 A 
ENDBRANCH   6   8
ENDBRANCH   3   6
BRANCH   1  15
HETATM   15  C   UNL     1       6.414  28.283  55.968  1.00  0.00     0.302 C 
HETATM   16  O   UNL     1       6.090  28.293  57.148  1.00  0.00    -0.259 OA
BRANCH  15  17
HETATM   17  O   UNL     1       7.676  28.554  55.514  1.00  0.00    -0.317 OA
BRANCH  17  18
HETATM   18  C   UNL     1       8.696  28.644  56.520  1.00  0.00     0.174 C 
HETATM   19  C   UNL     1       9.810  29.562  56.051  1.00  0.00     0.034 C 
ENDBRANCH  17  18
ENDBRANCH  15  17
ENDBRANCH   1  15
BRANCH   5  20
HETATM   20  C   UNL     1       6.008  25.620  54.281  1.00  0.00     0.129 A 
HETATM   21  N   UNL     1       6.500  24.964  53.252  1.00  0.00    -0.238 NA
HETATM   22  C   UNL     1       7.141  23.815  53.684  1.00  0.00     0.075 A 
HETATM   23  C   UNL     1       7.811  22.884  52.865  1.00  0.00     0.033 A 
HETATM   24  C   UNL     1       7.100  23.588  55.061  1.00  0.00     0.035 A 
HETATM   25  C   UNL     1       8.417  21.761  53.440  1.00  0.00     0.002 A 
HETATM   26  C   UNL     1       8.363  21.556  54.815  1.00  0.00     0.002 A 
HETATM   27  C   UNL     1       7.703  22.464  55.648  1.00  0.00     0.021 A 
HETATM   28  S   UNL     1       6.229  24.867  55.810  1.00  0.00    -0.066 SA
ENDBRANCH   5  20
TORSDOF 6
ENDMDL
MODEL 9
REMARK VINA RESULT:      -7.8      3.907      5.612
REMARK  6 active torsions:
REMARK  status: ('A' for Active; 'I' for Inactive)
REMARK    1  A    between atoms: C_2  and  O_3 
REMARK    2  A    between atoms: O_3  and  C_4 
REMARK    3  A    between atoms: C_4  and  C_6 
REMARK    4  A    between atoms: C_8  and  N_9 
REMARK    5  A    between atoms: N_9  and  C_10 
REMARK    6  A    between atoms: C_18  and  C_19 
ROOT
HETATM    1  C   UNL     1       6.867  26.952  56.294  1.00  0.00     0.115 A 
HETATM    2  S   UNL     1       5.960  28.411  56.326  1.00  0.00    -0.043 SA
HETATM    3  C   UNL     1       4.855  27.768  55.168  1.00  0.00     0.172 A 
HETATM    4  N   UNL     1       5.163  26.563  54.751  1.00  0.00    -0.220 NA
HETATM    5  C   UNL     1       6.311  26.089  55.372  1.00  0.00     0.118 A 
ENDROOT
BRANCH   3   6
HETATM    6  N   UNL     1       3.783  28.512  54.812  1.00  0.00    -0.335 N 
HETATM    7  H   UNL     1       2.968  28.448  55.409  1.00  0.00     0.168 HD
BRANCH   6   8
HETATM    8  C   UNL     1       3.602  29.313  53.669  1.00  0.00     0.034 A 
HETATM    9  C   UNL     1       3.266  28.682  52.458  1.00  0.00     0.031 A 
HETATM   10  C   UNL     1       3.116  29.410  51.273  1.00  0.00     0.021 A 
HETATM   11  C   UNL     1       3.302  30.788  51.285  1.00  0.00     0.011 A 
HETATM   12 BR   UNL     1       3.108  31.779  49.688  1.00  0.00    -0.051 Br
HETATM   13  C   UNL     1       3.633  31.438  52.468  1.00  0.00     0.021 A 
HETATM   14  C   UNL     1       3.785  30.701  53.649  1.00  0.00     0.031 A 
ENDBRANCH   6   8
ENDBRANCH   3   6
BRANCH   1  15
HETATM   15  C   UNL     1       7.957  26.759  57.213  1.00  0.00     0.302 C 
HETATM   16  O   UNL     1       7.906  26.139  58.267  1.00  0.00    -0.259 OA
BRANCH  15  17
HETATM   17  O   UNL     1       9.060  27.440  56.774  1.00  0.00    -0.317 OA
BRANCH  17  18
HETATM   18  C   UNL     1       9.255  28.744  57.340  1.00  0.00     0.174 C 
HETATM   19  C   UNL     1      10.179  29.562  56.455  1.00  0.00     0.034 C 
ENDBRANCH  17  18
ENDBRANCH  15  17
ENDBRANCH   1  15
BRANCH   5  20
HETATM   20  C   UNL     1       6.876  24.742  55.007  1.00  0.00     0.129 A 
HETATM   21  N   UNL     1       6.994  23.762  55.875  1.00  0.00    -0.238 NA
HETATM   22  C   UNL     1       7.532  22.644  55.260  1.00  0.00     0.075 A 
HETATM   23  C   UNL     1       7.773  21.397  55.873  1.00  0.00     0.033 A 
HETATM   24  C   UNL     1       7.855  22.800  53.911  1.00  0.00     0.035 A 
HETATM   25  C   UNL     1       8.324  20.349  55.126  1.00  0.00     0.002 A 
HETATM   26  C   UNL     1       8.638  20.529  53.783  1.00  0.00     0.002 A 
HETATM   27  C   UNL     1       8.410  21.756  53.153  1.00  0.00     0.021 A 
HETATM   28  S   UNL     1       7.461  24.401  53.427  1.00  0.00    -0.066 SA
ENDBRANCH   5  20
TORSDOF 6
ENDMDL
MODEL 10
REMARK VINA RESULT:      -7.7      4.046      8.531
REMARK  6 active torsions:
REMARK  status: ('A' for Active; 'I' for Inactive)
REMARK    1  A    between atoms: C_2  and  O_3 
REMARK    2  A    between atoms: O_3  and  C_4 
REMARK    3  A    between atoms: C_4  and  C_6 
REMARK    4  A    between atoms: C_8  and  N_9 
REMARK    5  A    between atoms: N_9  and  C_10 
REMARK    6  A    between atoms: C_18  and  C_19 
ROOT
HETATM    1  C   UNL     1       4.926  30.445  55.805  1.00  0.00     0.115 A 
HETATM    2  S   UNL     1       4.218  29.449  54.597  1.00  0.00    -0.043 SA
HETATM    3  C   UNL     1       4.903  28.046  55.331  1.00  0.00     0.172 A 
HETATM    4  N   UNL     1       5.645  28.303  56.381  1.00  0.00    -0.220 NA
HETATM    5  C   UNL     1       5.679  29.664  56.657  1.00  0.00     0.118 A 
ENDROOT
BRANCH   3   6
HETATM    6  N   UNL     1       4.613  26.832  54.807  1.00  0.00    -0.335 N 
HETATM    7  H   UNL     1       3.635  26.632  54.641  1.00  0.00     0.168 HD
BRANCH   6   8
HETATM    8  C   UNL     1       5.479  25.759  54.531  1.00  0.00     0.034 A 
HETATM    9  C   UNL     1       5.636  25.354  53.194  1.00  0.00     0.031 A 
HETATM   10  C   UNL     1       6.446  24.265  52.851  1.00  0.00     0.021 A 
HETATM   11  C   UNL     1       7.114  23.564  53.850  1.00  0.00     0.011 A 
HETATM   12 BR   UNL     1       8.204  22.089  53.397  1.00  0.00    -0.051 Br
HETATM   13  C   UNL     1       6.978  23.944  55.180  1.00  0.00     0.021 A 
HETATM   14  C   UNL     1       6.163  25.031  55.514  1.00  0.00     0.031 A 
ENDBRANCH   6   8
ENDBRANCH   3   6
BRANCH   1  15
HETATM   15  C   UNL     1       4.614  31.849  55.856  1.00  0.00     0.302 C 
HETATM   16  O   UNL     1       5.220  32.739  55.275  1.00  0.00    -0.259 OA
BRANCH  15  17
HETATM   17  O   UNL     1       3.574  32.062  56.718  1.00  0.00    -0.317 OA
BRANCH  17  18
HETATM   18  C   UNL     1       3.319  33.431  57.063  1.00  0.00     0.174 C 
HETATM   19  C   UNL     1       3.510  33.635  58.556  1.00  0.00     0.034 C 
ENDBRANCH  17  18
ENDBRANCH  15  17
ENDBRANCH   1  15
BRANCH   5  20
HETATM   20  C   UNL     1       6.513  30.193  57.795  1.00  0.00     0.129 A 
HETATM   21  N   UNL     1       6.140  31.214  58.535  1.00  0.00    -0.238 NA
HETATM   22  C   UNL     1       7.093  31.469  59.506  1.00  0.00     0.075 A 
HETATM   23  C   UNL     1       7.017  32.470  60.497  1.00  0.00     0.033 A 
HETATM   24  C   UNL     1       8.219  30.645  59.472  1.00  0.00     0.035 A 
HETATM   25  C   UNL     1       8.060  32.616  61.419  1.00  0.00     0.002 A 
HETATM   26  C   UNL     1       9.173  31.782  61.364  1.00  0.00     0.002 A 
HETATM   27  C   UNL     1       9.272  30.784  60.391  1.00  0.00     0.021 A 
HETATM   28  S   UNL     1       8.050  29.526  58.177  1.00  0.00    -0.066 SA
ENDBRANCH   5  20
TORSDOF 6
ENDMDL
