MODEL 1
REMARK VINA RESULT:      -8.3      0.000      0.000
REMARK  5 active torsions:
REMARK  status: ('A' for Active; 'I' for Inactive)
REMARK    1  A    between atoms: C_8  and  C_9 
REMARK    2  A    between atoms: C_11  and  O_12 
REMARK    3  A    between atoms: C_14  and  O_15 
REMARK    4  A    between atoms: C_18  and  C_19 
REMARK    5  A    between atoms: C_22  and  O_23 
ROOT
HETATM    1  C   UNL     1       4.534  24.865  52.881  1.00  0.00     0.070 C 
HETATM    2  C   UNL     1       5.208  26.120  53.287  1.00  0.00     0.033 A 
HETATM    3  N   UNL     1       4.990  27.299  52.626  1.00  0.00    -0.282 N 
HETATM    4  H   UNL     1       4.395  27.464  51.821  1.00  0.00     0.189 HD
HETATM    5  N   UNL     1       5.648  28.345  53.148  1.00  0.00    -0.179 NA
HETATM    6  C   UNL     1       6.288  27.820  54.194  1.00  0.00     0.066 A 
HETATM    7  C   UNL     1       6.108  26.419  54.295  1.00  0.00     0.001 A 
HETATM    8  C   UNL     1       6.747  25.604  55.382  1.00  0.00     0.070 C 
HETATM    9  C   UNL     1       7.878  26.396  56.095  1.00  0.00     0.102 C 
HETATM   10  C   UNL     1       7.457  27.862  56.426  1.00  0.00     0.071 C 
HETATM   11  C   UNL     1       8.567  28.626  57.164  1.00  0.00     0.047 C 
HETATM   12  C   UNL     1       7.112  28.641  55.124  1.00  0.00     0.100 C 
ENDROOT
BRANCH   8  13
HETATM   13  C   UNL     1       7.255  24.327  54.721  1.00  0.00    -0.046 A 
HETATM   14  C   UNL     1       7.123  23.100  55.404  1.00  0.00     0.047 A 
HETATM   15  C   UNL     1       7.571  21.911  54.826  1.00  0.00     0.101 A 
HETATM   16  C   UNL     1       8.201  21.959  53.579  1.00  0.00     0.099 A 
HETATM   17  C   UNL     1       8.343  23.151  52.886  1.00  0.00     0.040 A 
HETATM   18  C   UNL     1       7.860  24.332  53.449  1.00  0.00     0.011 A 
BRANCH  15  19
HETATM   19  O   UNL     1       7.469  20.662  55.383  1.00  0.00    -0.353 OA
HETATM   20  C   UNL     1       8.346  20.402  56.476  1.00  0.00     0.210 C 
ENDBRANCH  15  19
BRANCH  16  21
HETATM   21  O   UNL     1       8.678  20.814  53.003  1.00  0.00    -0.358 OA
HETATM   22  H   UNL     1       8.449  20.893  52.057  1.00  0.00     0.218 HD
ENDBRANCH  16  21
ENDBRANCH   8  13
BRANCH   9  23
HETATM   23  C   UNL     1       8.264  25.648  57.363  1.00  0.00     0.131 C 
HETATM   24  C   UNL     1       9.465  24.741  57.304  1.00  0.00     0.091 C 
HETATM   25  O   UNL     1       7.606  25.768  58.400  1.00  0.00    -0.298 OA
ENDBRANCH   9  23
BRANCH  10  26
HETATM   26  O   UNL     1       6.299  27.875  57.275  1.00  0.00    -0.389 OA
HETATM   27  H   UNL     1       5.542  27.523  56.759  1.00  0.00     0.210 HD
ENDBRANCH  10  26
TORSDOF 5
ENDMDL
MODEL 2
REMARK VINA RESULT:      -7.8      4.264      6.045
REMARK  5 active torsions:
REMARK  status: ('A' for Active; 'I' for Inactive)
REMARK    1  A    between atoms: C_8  and  C_9 
REMARK    2  A    between atoms: C_11  and  O_12 
REMARK    3  A    between atoms: C_14  and  O_15 
REMARK    4  A    between atoms: C_18  and  C_19 
REMARK    5  A    between atoms: C_22  and  O_23 
ROOT
HETATM    1  C   UNL     1       2.171  29.193  51.152  1.00  0.00     0.070 C 
HETATM    2  C   UNL     1       3.067  29.221  52.332  1.00  0.00     0.033 A 
HETATM    3  N   UNL     1       2.975  30.205  53.281  1.00  0.00    -0.282 N 
HETATM    4  H   UNL     1       2.341  30.998  53.300  1.00  0.00     0.189 HD
HETATM    5  N   UNL     1       3.833  30.059  54.301  1.00  0.00    -0.179 NA
HETATM    6  C   UNL     1       4.477  28.929  54.007  1.00  0.00     0.066 A 
HETATM    7  C   UNL     1       4.091  28.392  52.754  1.00  0.00     0.001 A 
HETATM    8  C   UNL     1       4.693  27.133  52.200  1.00  0.00     0.070 C 
HETATM    9  C   UNL     1       5.994  26.746  52.956  1.00  0.00     0.102 C 
HETATM   10  C   UNL     1       5.839  26.867  54.504  1.00  0.00     0.071 C 
HETATM   11  C   UNL     1       7.117  26.447  55.245  1.00  0.00     0.047 C 
HETATM   12  C   UNL     1       5.501  28.331  54.908  1.00  0.00     0.100 C 
ENDROOT
BRANCH   8  13
HETATM   13  C   UNL     1       4.933  27.387  50.715  1.00  0.00    -0.046 A 
HETATM   14  C   UNL     1       4.419  26.475  49.770  1.00  0.00     0.047 A 
HETATM   15  C   UNL     1       4.614  26.680  48.403  1.00  0.00     0.101 A 
HETATM   16  C   UNL     1       5.372  27.777  47.984  1.00  0.00     0.099 A 
HETATM   17  C   UNL     1       5.888  28.689  48.892  1.00  0.00     0.040 A 
HETATM   18  C   UNL     1       5.659  28.503  50.255  1.00  0.00     0.011 A 
BRANCH  15  19
HETATM   19  O   UNL     1       4.137  25.879  47.398  1.00  0.00    -0.353 OA
HETATM   20  C   UNL     1       3.055  25.023  47.754  1.00  0.00     0.210 C 
ENDBRANCH  15  19
BRANCH  16  21
HETATM   21  O   UNL     1       5.606  27.985  46.652  1.00  0.00    -0.358 OA
HETATM   22  H   UNL     1       6.114  27.204  46.360  1.00  0.00     0.218 HD
ENDBRANCH  16  21
ENDBRANCH   8  13
BRANCH   9  23
HETATM   23  C   UNL     1       6.374  25.325  52.563  1.00  0.00     0.131 C 
HETATM   24  C   UNL     1       7.763  25.093  52.028  1.00  0.00     0.091 C 
HETATM   25  O   UNL     1       5.566  24.398  52.665  1.00  0.00    -0.298 OA
ENDBRANCH   9  23
BRANCH  10  26
HETATM   26  O   UNL     1       4.781  26.018  54.973  1.00  0.00    -0.389 OA
HETATM   27  H   UNL     1       3.927  26.427  54.713  1.00  0.00     0.210 HD
ENDBRANCH  10  26
TORSDOF 5
ENDMDL
MODEL 3
REMARK VINA RESULT:      -7.5      2.301      3.791
REMARK  5 active torsions:
REMARK  status: ('A' for Active; 'I' for Inactive)
REMARK    1  A    between atoms: C_8  and  C_9 
REMARK    2  A    between atoms: C_11  and  O_12 
REMARK    3  A    between atoms: C_14  and  O_15 
REMARK    4  A    between atoms: C_18  and  C_19 
REMARK    5  A    between atoms: C_22  and  O_23 
ROOT
HETATM    1  C   UNL     1       9.488  24.439  56.781  1.00  0.00     0.070 C 
HETATM    2  C   UNL     1       8.223  25.205  56.862  1.00  0.00     0.033 A 
HETATM    3  N   UNL     1       7.749  25.686  58.053  1.00  0.00    -0.282 N 
HETATM    4  H   UNL     1       8.157  25.583  58.976  1.00  0.00     0.189 HD
HETATM    5  N   UNL     1       6.612  26.390  57.942  1.00  0.00    -0.179 NA
HETATM    6  C   UNL     1       6.366  26.379  56.631  1.00  0.00     0.066 A 
HETATM    7  C   UNL     1       7.300  25.597  55.908  1.00  0.00     0.001 A 
HETATM    8  C   UNL     1       7.216  25.419  54.420  1.00  0.00     0.070 C 
HETATM    9  C   UNL     1       5.828  25.855  53.873  1.00  0.00     0.102 C 
HETATM   10  C   UNL     1       5.351  27.212  54.479  1.00  0.00     0.071 C 
HETATM   11  C   UNL     1       3.996  27.654  53.906  1.00  0.00     0.047 C 
HETATM   12  C   UNL     1       5.214  27.103  56.026  1.00  0.00     0.100 C 
ENDROOT
BRANCH   8  13
HETATM   13  C   UNL     1       7.519  23.950  54.143  1.00  0.00    -0.046 A 
HETATM   14  C   UNL     1       7.327  23.003  55.171  1.00  0.00     0.047 A 
HETATM   15  C   UNL     1       7.588  21.650  54.951  1.00  0.00     0.101 A 
HETATM   16  C   UNL     1       8.092  21.251  53.710  1.00  0.00     0.099 A 
HETATM   17  C   UNL     1       8.288  22.160  52.682  1.00  0.00     0.040 A 
HETATM   18  C   UNL     1       7.991  23.506  52.893  1.00  0.00     0.011 A 
BRANCH  15  19
HETATM   19  O   UNL     1       7.411  20.642  55.864  1.00  0.00    -0.353 OA
HETATM   20  C   UNL     1       8.332  20.628  56.950  1.00  0.00     0.210 C 
ENDBRANCH  15  19
BRANCH  16  21
HETATM   21  O   UNL     1       8.385  19.935  53.477  1.00  0.00    -0.358 OA
HETATM   22  H   UNL     1       7.731  19.434  54.000  1.00  0.00     0.218 HD
ENDBRANCH  16  21
ENDBRANCH   8  13
BRANCH   9  23
HETATM   23  C   UNL     1       5.916  25.945  52.356  1.00  0.00     0.131 C 
HETATM   24  C   UNL     1       4.973  25.093  51.548  1.00  0.00     0.091 C 
HETATM   25  O   UNL     1       6.741  26.681  51.807  1.00  0.00    -0.298 OA
ENDBRANCH   9  23
BRANCH  10  26
HETATM   26  O   UNL     1       6.294  28.255  54.187  1.00  0.00    -0.389 OA
HETATM   27  H   UNL     1       7.049  28.162  54.807  1.00  0.00     0.210 HD
ENDBRANCH  10  26
TORSDOF 5
ENDMDL
MODEL 4
REMARK VINA RESULT:      -7.4      2.475      4.425
REMARK  5 active torsions:
REMARK  status: ('A' for Active; 'I' for Inactive)
REMARK    1  A    between atoms: C_8  and  C_9 
REMARK    2  A    between atoms: C_11  and  O_12 
REMARK    3  A    between atoms: C_14  and  O_15 
REMARK    4  A    between atoms: C_18  and  C_19 
REMARK    5  A    between atoms: C_22  and  O_23 
ROOT
HETATM    1  C   UNL     1       9.013  28.275  56.824  1.00  0.00     0.070 C 
HETATM    2  C   UNL     1       7.703  28.849  56.440  1.00  0.00     0.033 A 
HETATM    3  N   UNL     1       7.201  29.968  57.051  1.00  0.00    -0.282 N 
HETATM    4  H   UNL     1       7.616  30.508  57.803  1.00  0.00     0.189 HD
HETATM    5  N   UNL     1       6.024  30.377  56.556  1.00  0.00    -0.179 NA
HETATM    6  C   UNL     1       5.778  29.505  55.578  1.00  0.00     0.066 A 
HETATM    7  C   UNL     1       6.757  28.484  55.498  1.00  0.00     0.001 A 
HETATM    8  C   UNL     1       6.684  27.378  54.486  1.00  0.00     0.070 C 
HETATM    9  C   UNL     1       5.271  27.289  53.843  1.00  0.00     0.102 C 
HETATM   10  C   UNL     1       4.713  28.690  53.443  1.00  0.00     0.071 C 
HETATM   11  C   UNL     1       3.333  28.591  52.775  1.00  0.00     0.047 C 
HETATM   12  C   UNL     1       4.583  29.607  54.694  1.00  0.00     0.100 C 
ENDROOT
BRANCH   8  13
HETATM   13  C   UNL     1       7.075  26.098  55.217  1.00  0.00    -0.046 A 
HETATM   14  C   UNL     1       7.941  25.182  54.584  1.00  0.00     0.047 A 
HETATM   15  C   UNL     1       8.324  24.003  55.226  1.00  0.00     0.101 A 
HETATM   16  C   UNL     1       7.797  23.718  56.489  1.00  0.00     0.099 A 
HETATM   17  C   UNL     1       6.945  24.601  57.133  1.00  0.00     0.040 A 
HETATM   18  C   UNL     1       6.593  25.795  56.505  1.00  0.00     0.011 A 
BRANCH  15  19
HETATM   19  O   UNL     1       9.180  23.059  54.721  1.00  0.00    -0.353 OA
HETATM   20  C   UNL     1       8.652  22.247  53.676  1.00  0.00     0.210 C 
ENDBRANCH  15  19
BRANCH  16  21
HETATM   21  O   UNL     1       8.131  22.555  57.128  1.00  0.00    -0.358 OA
HETATM   22  H   UNL     1       7.336  22.312  57.641  1.00  0.00     0.218 HD
ENDBRANCH  16  21
ENDBRANCH   8  13
BRANCH   9  23
HETATM   23  C   UNL     1       5.352  26.375  52.629  1.00  0.00     0.131 C 
HETATM   24  C   UNL     1       4.668  25.036  52.713  1.00  0.00     0.091 C 
HETATM   25  O   UNL     1       5.969  26.714  51.615  1.00  0.00    -0.298 OA
ENDBRANCH   9  23
BRANCH  10  26
HETATM   26  O   UNL     1       5.590  29.334  52.506  1.00  0.00    -0.389 OA
HETATM   27  H   UNL     1       5.843  30.206  52.879  1.00  0.00     0.210 HD
ENDBRANCH  10  26
TORSDOF 5
ENDMDL
MODEL 5
REMARK VINA RESULT:      -7.4      9.337     13.370
REMARK  5 active torsions:
REMARK  status: ('A' for Active; 'I' for Inactive)
REMARK    1  A    between atoms: C_8  and  C_9 
REMARK    2  A    between atoms: C_11  and  O_12 
REMARK    3  A    between atoms: C_14  and  O_15 
REMARK    4  A    between atoms: C_18  and  C_19 
REMARK    5  A    between atoms: C_22  and  O_23 
ROOT
HETATM    1  C   UNL     1       7.422  33.128  64.518  1.00  0.00     0.070 C 
HETATM    2  C   UNL     1       7.430  32.849  63.064  1.00  0.00     0.033 A 
HETATM    3  N   UNL     1       8.479  32.208  62.460  1.00  0.00    -0.282 N 
HETATM    4  H   UNL     1       9.336  31.873  62.888  1.00  0.00     0.189 HD
HETATM    5  N   UNL     1       8.307  32.001  61.146  1.00  0.00    -0.179 NA
HETATM    6  C   UNL     1       7.095  32.504  60.908  1.00  0.00     0.066 A 
HETATM    7  C   UNL     1       6.521  33.110  62.052  1.00  0.00     0.001 A 
HETATM    8  C   UNL     1       5.170  33.762  62.024  1.00  0.00     0.070 C 
HETATM    9  C   UNL     1       4.692  34.014  60.566  1.00  0.00     0.102 C 
HETATM   10  C   UNL     1       4.932  32.780  59.642  1.00  0.00     0.071 C 
HETATM   11  C   UNL     1       4.423  33.023  58.214  1.00  0.00     0.047 C 
HETATM   12  C   UNL     1       6.449  32.438  59.567  1.00  0.00     0.100 C 
ENDROOT
BRANCH   8  13
HETATM   13  C   UNL     1       5.296  35.052  62.828  1.00  0.00    -0.046 A 
HETATM   14  C   UNL     1       4.735  35.114  64.121  1.00  0.00     0.047 A 
HETATM   15  C   UNL     1       4.837  36.276  64.887  1.00  0.00     0.101 A 
HETATM   16  C   UNL     1       5.460  37.398  64.336  1.00  0.00     0.099 A 
HETATM   17  C   UNL     1       6.020  37.365  63.068  1.00  0.00     0.040 A 
HETATM   18  C   UNL     1       5.950  36.191  62.319  1.00  0.00     0.011 A 
BRANCH  15  19
HETATM   19  O   UNL     1       4.358  36.438  66.162  1.00  0.00    -0.353 OA
HETATM   20  C   UNL     1       3.380  35.488  66.577  1.00  0.00     0.210 C 
ENDBRANCH  15  19
BRANCH  16  21
HETATM   21  O   UNL     1       5.547  38.560  65.053  1.00  0.00    -0.358 OA
HETATM   22  H   UNL     1       4.765  38.555  65.638  1.00  0.00     0.218 HD
ENDBRANCH  16  21
ENDBRANCH   8  13
BRANCH   9  23
HETATM   23  C   UNL     1       3.214  34.380  60.601  1.00  0.00     0.131 C 
HETATM   24  C   UNL     1       2.820  35.750  60.114  1.00  0.00     0.091 C 
HETATM   25  O   UNL     1       2.371  33.587  61.028  1.00  0.00    -0.298 OA
ENDBRANCH   9  23
BRANCH  10  26
HETATM   26  O   UNL     1       4.239  31.628  60.147  1.00  0.00    -0.389 OA
HETATM   27  H   UNL     1       3.844  31.869  61.013  1.00  0.00     0.210 HD
ENDBRANCH  10  26
TORSDOF 5
ENDMDL
MODEL 6
REMARK VINA RESULT:      -7.3      3.290      5.394
REMARK  5 active torsions:
REMARK  status: ('A' for Active; 'I' for Inactive)
REMARK    1  A    between atoms: C_8  and  C_9 
REMARK    2  A    between atoms: C_11  and  O_12 
REMARK    3  A    between atoms: C_14  and  O_15 
REMARK    4  A    between atoms: C_18  and  C_19 
REMARK    5  A    between atoms: C_22  and  O_23 
ROOT
HETATM    1  C   UNL     1       8.695  28.590  57.367  1.00  0.00     0.070 C 
HETATM    2  C   UNL     1       7.494  29.445  57.502  1.00  0.00     0.033 A 
HETATM    3  N   UNL     1       7.292  30.233  58.603  1.00  0.00    -0.282 N 
HETATM    4  H   UNL     1       7.883  30.325  59.423  1.00  0.00     0.189 HD
HETATM    5  N   UNL     1       6.174  30.973  58.547  1.00  0.00    -0.179 NA
HETATM    6  C   UNL     1       5.658  30.665  57.356  1.00  0.00     0.066 A 
HETATM    7  C   UNL     1       6.400  29.664  56.682  1.00  0.00     0.001 A 
HETATM    8  C   UNL     1       6.002  29.140  55.333  1.00  0.00     0.070 C 
HETATM    9  C   UNL     1       4.540  29.534  54.980  1.00  0.00     0.102 C 
HETATM   10  C   UNL     1       4.233  31.029  55.308  1.00  0.00     0.071 C 
HETATM   11  C   UNL     1       2.799  31.420  54.922  1.00  0.00     0.047 C 
HETATM   12  C   UNL     1       4.421  31.306  56.828  1.00  0.00     0.100 C 
ENDROOT
BRANCH   8  13
HETATM   13  C   UNL     1       6.205  27.629  55.380  1.00  0.00    -0.046 A 
HETATM   14  C   UNL     1       7.076  27.023  54.451  1.00  0.00     0.047 A 
HETATM   15  C   UNL     1       7.290  25.644  54.470  1.00  0.00     0.101 A 
HETATM   16  C   UNL     1       6.587  24.862  55.391  1.00  0.00     0.099 A 
HETATM   17  C   UNL     1       5.726  25.432  56.315  1.00  0.00     0.040 A 
HETATM   18  C   UNL     1       5.543  26.814  56.319  1.00  0.00     0.011 A 
BRANCH  15  19
HETATM   19  O   UNL     1       8.134  24.954  53.637  1.00  0.00    -0.353 OA
HETATM   20  C   UNL     1       7.872  25.093  52.244  1.00  0.00     0.210 C 
ENDBRANCH  15  19
BRANCH  16  21
HETATM   21  O   UNL     1       6.754  23.504  55.410  1.00  0.00    -0.358 OA
HETATM   22  H   UNL     1       6.264  23.201  56.199  1.00  0.00     0.218 HD
ENDBRANCH  16  21
ENDBRANCH   8  13
BRANCH   9  23
HETATM   23  C   UNL     1       4.309  29.249  53.502  1.00  0.00     0.131 C 
HETATM   24  C   UNL     1       3.356  28.140  53.144  1.00  0.00     0.091 C 
HETATM   25  O   UNL     1       4.893  29.896  52.629  1.00  0.00    -0.298 OA
ENDBRANCH   9  23
BRANCH  10  26
HETATM   26  O   UNL     1       5.117  31.897  54.583  1.00  0.00    -0.389 OA
HETATM   27  H   UNL     1       5.361  32.642  55.173  1.00  0.00     0.210 HD
ENDBRANCH  10  26
TORSDOF 5
ENDMDL
MODEL 7
REMARK VINA RESULT:      -7.2      9.535     13.648
REMARK  5 active torsions:
REMARK  status: ('A' for Active; 'I' for Inactive)
REMARK    1  A    between atoms: C_8  and  C_9 
REMARK    2  A    between atoms: C_11  and  O_12 
REMARK    3  A    between atoms: C_14  and  O_15 
REMARK    4  A    between atoms: C_18  and  C_19 
REMARK    5  A    between atoms: C_22  and  O_23 
ROOT
HETATM    1  C   UNL     1       7.228  33.378  64.887  1.00  0.00     0.070 C 
HETATM    2  C   UNL     1       7.299  33.030  63.449  1.00  0.00     0.033 A 
HETATM    3  N   UNL     1       8.363  32.343  62.927  1.00  0.00    -0.282 N 
HETATM    4  H   UNL     1       9.193  32.015  63.410  1.00  0.00     0.189 HD
HETATM    5  N   UNL     1       8.250  32.076  61.618  1.00  0.00    -0.179 NA
HETATM    6  C   UNL     1       7.060  32.588  61.298  1.00  0.00     0.066 A 
HETATM    7  C   UNL     1       6.445  33.258  62.384  1.00  0.00     0.001 A 
HETATM    8  C   UNL     1       5.108  33.930  62.260  1.00  0.00     0.070 C 
HETATM    9  C   UNL     1       4.705  34.120  60.771  1.00  0.00     0.102 C 
HETATM   10  C   UNL     1       4.966  32.839  59.918  1.00  0.00     0.071 C 
HETATM   11  C   UNL     1       4.529  33.022  58.456  1.00  0.00     0.047 C 
HETATM   12  C   UNL     1       6.477  32.469  59.932  1.00  0.00     0.100 C 
ENDROOT
BRANCH   8  13
HETATM   13  C   UNL     1       5.221  35.254  63.008  1.00  0.00    -0.046 A 
HETATM   14  C   UNL     1       5.960  36.309  62.433  1.00  0.00     0.047 A 
HETATM   15  C   UNL     1       6.078  37.536  63.087  1.00  0.00     0.101 A 
HETATM   16  C   UNL     1       5.495  37.690  64.348  1.00  0.00     0.099 A 
HETATM   17  C   UNL     1       4.763  36.670  64.936  1.00  0.00     0.040 A 
HETATM   18  C   UNL     1       4.615  35.458  64.263  1.00  0.00     0.011 A 
BRANCH  15  19
HETATM   19  O   UNL     1       6.744  38.636  62.611  1.00  0.00    -0.353 OA
HETATM   20  C   UNL     1       6.480  38.974  61.252  1.00  0.00     0.210 C 
ENDBRANCH  15  19
BRANCH  16  21
HETATM   21  O   UNL     1       5.622  38.871  65.026  1.00  0.00    -0.358 OA
HETATM   22  H   UNL     1       6.483  39.234  64.742  1.00  0.00     0.218 HD
ENDBRANCH  16  21
ENDBRANCH   8  13
BRANCH   9  23
HETATM   23  C   UNL     1       3.235  34.511  60.717  1.00  0.00     0.131 C 
HETATM   24  C   UNL     1       2.892  35.875  60.177  1.00  0.00     0.091 C 
HETATM   25  O   UNL     1       2.355  33.744  61.117  1.00  0.00    -0.298 OA
ENDBRANCH   9  23
BRANCH  10  26
HETATM   26  O   UNL     1       4.228  31.724  60.442  1.00  0.00    -0.389 OA
HETATM   27  H   UNL     1       3.392  32.069  60.825  1.00  0.00     0.210 HD
ENDBRANCH  10  26
TORSDOF 5
ENDMDL
MODEL 8
REMARK VINA RESULT:      -7.2      6.035      8.320
REMARK  5 active torsions:
REMARK  status: ('A' for Active; 'I' for Inactive)
REMARK    1  A    between atoms: C_8  and  C_9 
REMARK    2  A    between atoms: C_11  and  O_12 
REMARK    3  A    between atoms: C_14  and  O_15 
REMARK    4  A    between atoms: C_18  and  C_19 
REMARK    5  A    between atoms: C_22  and  O_23 
ROOT
HETATM    1  C   UNL     1       5.218  25.910  51.317  1.00  0.00     0.070 C 
HETATM    2  C   UNL     1       4.584  27.083  51.961  1.00  0.00     0.033 A 
HETATM    3  N   UNL     1       4.174  27.051  53.268  1.00  0.00    -0.282 N 
HETATM    4  H   UNL     1       4.230  26.278  53.922  1.00  0.00     0.189 HD
HETATM    5  N   UNL     1       3.656  28.209  53.704  1.00  0.00    -0.179 NA
HETATM    6  C   UNL     1       3.763  29.016  52.647  1.00  0.00     0.066 A 
HETATM    7  C   UNL     1       4.273  28.352  51.504  1.00  0.00     0.001 A 
HETATM    8  C   UNL     1       4.464  29.049  50.189  1.00  0.00     0.070 C 
HETATM    9  C   UNL     1       3.703  30.403  50.149  1.00  0.00     0.102 C 
HETATM   10  C   UNL     1       3.899  31.233  51.456  1.00  0.00     0.071 C 
HETATM   11  C   UNL     1       3.175  32.586  51.393  1.00  0.00     0.047 C 
HETATM   12  C   UNL     1       3.361  30.450  52.688  1.00  0.00     0.100 C 
ENDROOT
BRANCH   8  13
HETATM   13  C   UNL     1       3.988  28.079  49.113  1.00  0.00    -0.046 A 
HETATM   14  C   UNL     1       2.603  27.902  48.910  1.00  0.00     0.047 A 
HETATM   15  C   UNL     1       2.132  27.027  47.930  1.00  0.00     0.101 A 
HETATM   16  C   UNL     1       3.053  26.287  47.184  1.00  0.00     0.099 A 
HETATM   17  C   UNL     1       4.419  26.441  47.362  1.00  0.00     0.040 A 
HETATM   18  C   UNL     1       4.887  27.344  48.316  1.00  0.00     0.011 A 
BRANCH  15  19
HETATM   19  O   UNL     1       0.814  26.799  47.628  1.00  0.00    -0.353 OA
HETATM   20  C   UNL     1       0.186  27.797  46.828  1.00  0.00     0.210 C 
ENDBRANCH  15  19
BRANCH  16  21
HETATM   21  O   UNL     1       2.619  25.398  46.239  1.00  0.00    -0.358 OA
HETATM   22  H   UNL     1       2.761  24.518  46.636  1.00  0.00     0.218 HD
ENDBRANCH  16  21
ENDBRANCH   8  13
BRANCH   9  23
HETATM   23  C   UNL     1       4.183  31.189  48.936  1.00  0.00     0.131 C 
HETATM   24  C   UNL     1       3.174  31.510  47.865  1.00  0.00     0.091 C 
HETATM   25  O   UNL     1       5.362  31.538  48.828  1.00  0.00    -0.298 OA
ENDBRANCH   9  23
BRANCH  10  26
HETATM   26  O   UNL     1       5.291  31.509  51.674  1.00  0.00    -0.389 OA
HETATM   27  H   UNL     1       5.802  31.075  50.957  1.00  0.00     0.210 HD
ENDBRANCH  10  26
TORSDOF 5
ENDMDL
MODEL 9
REMARK VINA RESULT:      -7.0     10.111     13.789
REMARK  5 active torsions:
REMARK  status: ('A' for Active; 'I' for Inactive)
REMARK    1  A    between atoms: C_8  and  C_9 
REMARK    2  A    between atoms: C_11  and  O_12 
REMARK    3  A    between atoms: C_14  and  O_15 
REMARK    4  A    between atoms: C_18  and  C_19 
REMARK    5  A    between atoms: C_22  and  O_23 
ROOT
HETATM    1  C   UNL     1       3.959  35.573  65.321  1.00  0.00     0.070 C 
HETATM    2  C   UNL     1       5.191  34.777  65.114  1.00  0.00     0.033 A 
HETATM    3  N   UNL     1       6.082  34.554  66.130  1.00  0.00    -0.282 N 
HETATM    4  H   UNL     1       6.035  34.886  67.087  1.00  0.00     0.189 HD
HETATM    5  N   UNL     1       7.123  33.782  65.781  1.00  0.00    -0.179 NA
HETATM    6  C   UNL     1       6.874  33.482  64.506  1.00  0.00     0.066 A 
HETATM    7  C   UNL     1       5.716  34.129  64.009  1.00  0.00     0.001 A 
HETATM    8  C   UNL     1       5.246  33.959  62.594  1.00  0.00     0.070 C 
HETATM    9  C   UNL     1       6.353  33.335  61.699  1.00  0.00     0.102 C 
HETATM   10  C   UNL     1       7.062  32.128  62.388  1.00  0.00     0.071 C 
HETATM   11  C   UNL     1       8.128  31.494  61.482  1.00  0.00     0.047 C 
HETATM   12  C   UNL     1       7.749  32.577  63.710  1.00  0.00     0.100 C 
ENDROOT
BRANCH   8  13
HETATM   13  C   UNL     1       4.816  35.342  62.114  1.00  0.00    -0.046 A 
HETATM   14  C   UNL     1       5.760  36.390  62.101  1.00  0.00     0.047 A 
HETATM   15  C   UNL     1       5.402  37.665  61.662  1.00  0.00     0.101 A 
HETATM   16  C   UNL     1       4.079  37.905  61.282  1.00  0.00     0.099 A 
HETATM   17  C   UNL     1       3.131  36.893  61.284  1.00  0.00     0.040 A 
HETATM   18  C   UNL     1       3.500  35.610  61.687  1.00  0.00     0.011 A 
BRANCH  15  19
HETATM   19  O   UNL     1       6.241  38.747  61.579  1.00  0.00    -0.353 OA
HETATM   20  C   UNL     1       6.694  39.271  62.824  1.00  0.00     0.210 C 
ENDBRANCH  15  19
BRANCH  16  21
HETATM   21  O   UNL     1       3.694  39.153  60.877  1.00  0.00    -0.358 OA
HETATM   22  H   UNL     1       4.271  39.768  61.370  1.00  0.00     0.218 HD
ENDBRANCH  16  21
ENDBRANCH   8  13
BRANCH   9  23
HETATM   23  C   UNL     1       5.722  32.908  60.381  1.00  0.00     0.131 C 
HETATM   24  C   UNL     1       4.338  32.314  60.427  1.00  0.00     0.091 C 
HETATM   25  O   UNL     1       6.329  33.031  59.314  1.00  0.00    -0.298 OA
ENDBRANCH   9  23
BRANCH  10  26
HETATM   26  O   UNL     1       6.112  31.099  62.706  1.00  0.00    -0.389 OA
HETATM   27  H   UNL     1       6.354  30.724  63.580  1.00  0.00     0.210 HD
ENDBRANCH  10  26
TORSDOF 5
ENDMDL
MODEL 10
REMARK VINA RESULT:      -7.0      5.497      9.398
REMARK  5 active torsions:
REMARK  status: ('A' for Active; 'I' for Inactive)
REMARK    1  A    between atoms: C_8  and  C_9 
REMARK    2  A    between atoms: C_11  and  O_12 
REMARK    3  A    between atoms: C_14  and  O_15 
REMARK    4  A    between atoms: C_18  and  C_19 
REMARK    5  A    between atoms: C_22  and  O_23 
ROOT
HETATM    1  C   UNL     1       6.901  32.921  61.210  1.00  0.00     0.070 C 
HETATM    2  C   UNL     1       7.842  32.327  60.233  1.00  0.00     0.033 A 
HETATM    3  N   UNL     1       9.188  32.574  60.290  1.00  0.00    -0.282 N 
HETATM    4  H   UNL     1       9.689  33.163  60.948  1.00  0.00     0.189 HD
HETATM    5  N   UNL     1       9.900  31.928  59.355  1.00  0.00    -0.179 NA
HETATM    6  C   UNL     1       8.980  31.223  58.695  1.00  0.00     0.066 A 
HETATM    7  C   UNL     1       7.664  31.481  59.152  1.00  0.00     0.001 A 
HETATM    8  C   UNL     1       6.460  30.819  58.548  1.00  0.00     0.070 C 
HETATM    9  C   UNL     1       6.800  30.160  57.182  1.00  0.00     0.102 C 
HETATM   10  C   UNL     1       8.136  29.355  57.228  1.00  0.00     0.071 C 
HETATM   11  C   UNL     1       8.445  28.676  55.885  1.00  0.00     0.047 C 
HETATM   12  C   UNL     1       9.327  30.289  57.587  1.00  0.00     0.100 C 
ENDROOT
BRANCH   8  13
HETATM   13  C   UNL     1       5.390  31.899  58.427  1.00  0.00    -0.046 A 
HETATM   14  C   UNL     1       4.372  31.971  59.400  1.00  0.00     0.047 A 
HETATM   15  C   UNL     1       3.380  32.950  59.323  1.00  0.00     0.101 A 
HETATM   16  C   UNL     1       3.380  33.830  58.237  1.00  0.00     0.099 A 
HETATM   17  C   UNL     1       4.369  33.782  57.267  1.00  0.00     0.040 A 
HETATM   18  C   UNL     1       5.380  32.827  57.367  1.00  0.00     0.011 A 
BRANCH  15  19
HETATM   19  O   UNL     1       2.363  33.132  60.225  1.00  0.00    -0.353 OA
HETATM   20  C   UNL     1       2.726  33.786  61.437  1.00  0.00     0.210 C 
ENDBRANCH  15  19
BRANCH  16  21
HETATM   21  O   UNL     1       2.402  34.780  58.120  1.00  0.00    -0.358 OA
HETATM   22  H   UNL     1       2.612  35.258  57.295  1.00  0.00     0.218 HD
ENDBRANCH  16  21
ENDBRANCH   8  13
BRANCH   9  23
HETATM   23  C   UNL     1       5.641  29.257  56.782  1.00  0.00     0.131 C 
HETATM   24  C   UNL     1       4.892  29.596  55.520  1.00  0.00     0.091 C 
HETATM   25  O   UNL     1       5.317  28.290  57.477  1.00  0.00    -0.298 OA
ENDBRANCH   9  23
BRANCH  10  26
HETATM   26  O   UNL     1       8.066  28.318  58.219  1.00  0.00    -0.389 OA
HETATM   27  H   UNL     1       8.927  28.293  58.690  1.00  0.00     0.210 HD
ENDBRANCH  10  26
TORSDOF 5
ENDMDL
