MODEL 1
REMARK VINA RESULT:      -9.6      0.000      0.000
REMARK  4 active torsions:
REMARK  status: ('A' for Active; 'I' for Inactive)
REMARK    1  A    between atoms: C_4  and  C_5 
REMARK    2  A    between atoms: C_9  and  C_10 
REMARK       I    between atoms: C_10  and  N_11 
REMARK    3  A    between atoms: N_11  and  C_12 
REMARK    4  A    between atoms: C_13  and  O_14 
ROOT
HETATM    1  C   UNL     1       6.883  26.455  52.906  1.00  0.00     0.270 C 
HETATM    2  N   UNL     1       6.804  25.135  53.267  1.00  0.00    -0.344 N 
HETATM    3  O   UNL     1       7.675  27.230  53.431  1.00  0.00    -0.266 OA
HETATM    4  H   UNL     1       6.034  24.565  52.948  1.00  0.00     0.163 HD
ENDROOT
BRANCH   1   5
HETATM    5  C   UNL     1       5.949  26.873  51.899  1.00  0.00     0.120 A 
HETATM    6  N   UNL     1       5.629  28.191  51.715  1.00  0.00    -0.272 N 
HETATM    7  N   UNL     1       4.753  28.412  50.724  1.00  0.00    -0.173 NA
HETATM    8  H   UNL     1       5.986  28.984  52.242  1.00  0.00     0.189 HD
HETATM    9  C   UNL     1       4.517  27.194  50.220  1.00  0.00     0.096 A 
HETATM   10  C   UNL     1       5.229  26.198  50.933  1.00  0.00     0.071 A 
BRANCH   9  11
HETATM   11  C   UNL     1       3.622  26.979  49.036  1.00  0.00     0.035 A 
HETATM   12  S   UNL     1       2.245  27.924  48.678  1.00  0.00    -0.093 SA
HETATM   13  C   UNL     1       1.866  26.985  47.300  1.00  0.00    -0.021 A 
HETATM   14  C   UNL     1       0.665  27.299  46.476  1.00  0.00     0.056 C 
HETATM   15  C   UNL     1       2.793  25.983  47.100  1.00  0.00     0.015 A 
HETATM   16  C   UNL     1       3.806  25.978  48.104  1.00  0.00     0.022 A 
ENDBRANCH   9  11
ENDBRANCH   1   5
BRANCH   2  17
HETATM   17  C   UNL     1       7.716  24.558  54.231  1.00  0.00     0.147 C 
HETATM   18  C   UNL     1       7.285  24.765  55.715  1.00  0.00     0.149 C 
HETATM   19  C   UNL     1       7.812  23.543  56.488  1.00  0.00     0.073 C 
HETATM   20  C   UNL     1       7.835  22.488  55.419  1.00  0.00    -0.047 A 
HETATM   21  C   UNL     1       7.783  23.058  54.142  1.00  0.00    -0.027 A 
HETATM   22  C   UNL     1       7.943  21.117  55.589  1.00  0.00     0.008 A 
HETATM   23  C   UNL     1       7.853  22.261  53.007  1.00  0.00     0.010 A 
HETATM   24  C   UNL     1       7.946  20.877  53.169  1.00  0.00     0.001 A 
HETATM   25  C   UNL     1       7.988  20.309  54.452  1.00  0.00     0.001 A 
BRANCH  18  26
HETATM   26  O   UNL     1       5.854  24.814  55.855  1.00  0.00    -0.393 OA
HETATM   27  H   UNL     1       5.504  24.105  55.288  1.00  0.00     0.210 HD
ENDBRANCH  18  26
ENDBRANCH   2  17
TORSDOF 4
ENDMDL
MODEL 2
REMARK VINA RESULT:      -9.1      4.953      7.493
REMARK  4 active torsions:
REMARK  status: ('A' for Active; 'I' for Inactive)
REMARK    1  A    between atoms: C_4  and  C_5 
REMARK    2  A    between atoms: C_9  and  C_10 
REMARK       I    between atoms: C_10  and  N_11 
REMARK    3  A    between atoms: N_11  and  C_12 
REMARK    4  A    between atoms: C_13  and  O_14 
ROOT
HETATM    1  C   UNL     1       6.343  25.971  54.843  1.00  0.00     0.270 C 
HETATM    2  N   UNL     1       7.225  24.929  54.968  1.00  0.00    -0.344 N 
HETATM    3  O   UNL     1       5.281  25.860  54.240  1.00  0.00    -0.266 OA
HETATM    4  H   UNL     1       8.159  25.092  55.315  1.00  0.00     0.163 HD
ENDROOT
BRANCH   1   5
HETATM    5  C   UNL     1       6.766  27.208  55.437  1.00  0.00     0.120 A 
HETATM    6  N   UNL     1       6.090  28.379  55.223  1.00  0.00    -0.272 N 
HETATM    7  N   UNL     1       6.608  29.439  55.862  1.00  0.00    -0.173 NA
HETATM    8  H   UNL     1       5.263  28.507  54.646  1.00  0.00     0.189 HD
HETATM    9  C   UNL     1       7.642  28.933  56.546  1.00  0.00     0.096 A 
HETATM   10  C   UNL     1       7.791  27.546  56.298  1.00  0.00     0.071 A 
BRANCH   9  11
HETATM   11  C   UNL     1       8.483  29.774  57.459  1.00  0.00     0.035 A 
HETATM   12  S   UNL     1       7.952  30.413  58.951  1.00  0.00    -0.093 SA
HETATM   13  C   UNL     1       9.442  31.206  59.228  1.00  0.00    -0.021 A 
HETATM   14  C   UNL     1       9.647  32.027  60.454  1.00  0.00     0.056 C 
HETATM   15  C   UNL     1      10.340  30.963  58.210  1.00  0.00     0.015 A 
HETATM   16  C   UNL     1       9.786  30.138  57.187  1.00  0.00     0.022 A 
ENDBRANCH   9  11
ENDBRANCH   1   5
BRANCH   2  17
HETATM   17  C   UNL     1       6.912  23.608  54.466  1.00  0.00     0.147 C 
HETATM   18  C   UNL     1       7.364  23.365  52.994  1.00  0.00     0.149 C 
HETATM   19  C   UNL     1       7.692  21.865  52.890  1.00  0.00     0.073 C 
HETATM   20  C   UNL     1       8.093  21.538  54.300  1.00  0.00    -0.047 A 
HETATM   21  C   UNL     1       7.652  22.520  55.195  1.00  0.00    -0.027 A 
HETATM   22  C   UNL     1       8.766  20.412  54.746  1.00  0.00     0.008 A 
HETATM   23  C   UNL     1       7.866  22.383  56.559  1.00  0.00     0.010 A 
HETATM   24  C   UNL     1       8.558  21.258  57.016  1.00  0.00     0.001 A 
HETATM   25  C   UNL     1       9.006  20.281  56.114  1.00  0.00     0.001 A 
BRANCH  18  26
HETATM   26  O   UNL     1       8.546  24.117  52.666  1.00  0.00    -0.393 OA
HETATM   27  H   UNL     1       9.207  23.887  53.342  1.00  0.00     0.210 HD
ENDBRANCH  18  26
ENDBRANCH   2  17
TORSDOF 4
ENDMDL
MODEL 3
REMARK VINA RESULT:      -9.0      8.409     10.727
REMARK  4 active torsions:
REMARK  status: ('A' for Active; 'I' for Inactive)
REMARK    1  A    between atoms: C_4  and  C_5 
REMARK    2  A    between atoms: C_9  and  C_10 
REMARK       I    between atoms: C_10  and  N_11 
REMARK    3  A    between atoms: N_11  and  C_12 
REMARK    4  A    between atoms: C_13  and  O_14 
ROOT
HETATM    1  C   UNL     1       6.305  31.713  58.880  1.00  0.00     0.270 C 
HETATM    2  N   UNL     1       5.955  31.602  60.200  1.00  0.00    -0.344 N 
HETATM    3  O   UNL     1       6.183  32.763  58.258  1.00  0.00    -0.266 OA
HETATM    4  H   UNL     1       5.902  30.694  60.638  1.00  0.00     0.163 HD
ENDROOT
BRANCH   1   5
HETATM    5  C   UNL     1       6.790  30.508  58.269  1.00  0.00     0.120 A 
HETATM    6  N   UNL     1       7.662  29.672  58.915  1.00  0.00    -0.272 N 
HETATM    7  N   UNL     1       8.005  28.583  58.210  1.00  0.00    -0.173 NA
HETATM    8  H   UNL     1       8.054  29.801  59.844  1.00  0.00     0.189 HD
HETATM    9  C   UNL     1       7.303  28.696  57.075  1.00  0.00     0.096 A 
HETATM   10  C   UNL     1       6.542  29.891  57.058  1.00  0.00     0.071 A 
BRANCH   9  11
HETATM   11  C   UNL     1       7.341  27.646  56.005  1.00  0.00     0.035 A 
HETATM   12  S   UNL     1       7.223  25.966  56.292  1.00  0.00    -0.093 SA
HETATM   13  C   UNL     1       7.403  25.594  54.632  1.00  0.00    -0.021 A 
HETATM   14  C   UNL     1       7.406  24.177  54.169  1.00  0.00     0.056 C 
HETATM   15  C   UNL     1       7.523  26.736  53.868  1.00  0.00     0.015 A 
HETATM   16  C   UNL     1       7.490  27.921  54.662  1.00  0.00     0.022 A 
ENDBRANCH   9  11
ENDBRANCH   1   5
BRANCH   2  17
HETATM   17  C   UNL     1       5.500  32.745  60.962  1.00  0.00     0.147 C 
HETATM   18  C   UNL     1       4.004  32.665  61.394  1.00  0.00     0.149 C 
HETATM   19  C   UNL     1       3.903  33.425  62.729  1.00  0.00     0.073 C 
HETATM   20  C   UNL     1       5.287  33.253  63.287  1.00  0.00    -0.047 A 
HETATM   21  C   UNL     1       6.193  32.871  62.291  1.00  0.00    -0.027 A 
HETATM   22  C   UNL     1       5.704  33.472  64.590  1.00  0.00     0.008 A 
HETATM   23  C   UNL     1       7.541  32.715  62.582  1.00  0.00     0.010 A 
HETATM   24  C   UNL     1       7.968  32.919  63.896  1.00  0.00     0.001 A 
HETATM   25  C   UNL     1       7.055  33.293  64.894  1.00  0.00     0.001 A 
BRANCH  18  26
HETATM   26  O   UNL     1       3.580  31.306  61.606  1.00  0.00    -0.393 OA
HETATM   27  H   UNL     1       3.355  30.955  60.727  1.00  0.00     0.210 HD
ENDBRANCH  18  26
ENDBRANCH   2  17
TORSDOF 4
ENDMDL
MODEL 4
REMARK VINA RESULT:      -8.9      1.479      1.920
REMARK  4 active torsions:
REMARK  status: ('A' for Active; 'I' for Inactive)
REMARK    1  A    between atoms: C_4  and  C_5 
REMARK    2  A    between atoms: C_9  and  C_10 
REMARK       I    between atoms: C_10  and  N_11 
REMARK    3  A    between atoms: N_11  and  C_12 
REMARK    4  A    between atoms: C_13  and  O_14 
ROOT
HETATM    1  C   UNL     1       5.906  27.058  51.973  1.00  0.00     0.270 C 
HETATM    2  N   UNL     1       6.135  25.787  52.432  1.00  0.00    -0.344 N 
HETATM    3  O   UNL     1       6.289  28.051  52.581  1.00  0.00    -0.266 OA
HETATM    4  H   UNL     1       5.664  25.000  52.009  1.00  0.00     0.163 HD
ENDROOT
BRANCH   1   5
HETATM    5  C   UNL     1       5.155  27.144  50.752  1.00  0.00     0.120 A 
HETATM    6  N   UNL     1       5.419  26.329  49.684  1.00  0.00    -0.272 N 
HETATM    7  N   UNL     1       4.617  26.529  48.627  1.00  0.00    -0.173 NA
HETATM    8  H   UNL     1       6.140  25.614  49.627  1.00  0.00     0.189 HD
HETATM    9  C   UNL     1       3.776  27.488  49.034  1.00  0.00     0.096 A 
HETATM   10  C   UNL     1       4.084  27.917  50.349  1.00  0.00     0.071 A 
BRANCH   9  11
HETATM   11  C   UNL     1       2.657  27.987  48.170  1.00  0.00     0.035 A 
HETATM   12  S   UNL     1       1.286  27.067  47.733  1.00  0.00    -0.093 SA
HETATM   13  C   UNL     1       0.646  28.334  46.779  1.00  0.00    -0.021 A 
HETATM   14  C   UNL     1      -0.638  28.155  46.044  1.00  0.00     0.056 C 
HETATM   15  C   UNL     1       1.453  29.452  46.817  1.00  0.00     0.015 A 
HETATM   16  C   UNL     1       2.615  29.251  47.619  1.00  0.00     0.022 A 
ENDBRANCH   9  11
ENDBRANCH   1   5
BRANCH   2  17
HETATM   17  C   UNL     1       6.922  25.542  53.621  1.00  0.00     0.147 C 
HETATM   18  C   UNL     1       6.150  25.784  54.954  1.00  0.00     0.149 C 
HETATM   19  C   UNL     1       6.750  24.805  55.980  1.00  0.00     0.073 C 
HETATM   20  C   UNL     1       7.226  23.687  55.097  1.00  0.00    -0.047 A 
HETATM   21  C   UNL     1       7.328  24.100  53.763  1.00  0.00    -0.027 A 
HETATM   22  C   UNL     1       7.587  22.405  55.479  1.00  0.00     0.008 A 
HETATM   23  C   UNL     1       7.807  23.236  52.788  1.00  0.00     0.010 A 
HETATM   24  C   UNL     1       8.158  21.937  53.163  1.00  0.00     0.001 A 
HETATM   25  C   UNL     1       8.046  21.524  54.499  1.00  0.00     0.001 A 
BRANCH  18  26
HETATM   26  O   UNL     1       4.746  25.503  54.818  1.00  0.00    -0.393 OA
HETATM   27  H   UNL     1       4.668  24.533  54.786  1.00  0.00     0.210 HD
ENDBRANCH  18  26
ENDBRANCH   2  17
TORSDOF 4
ENDMDL
MODEL 5
REMARK VINA RESULT:      -8.8      5.423      8.418
REMARK  4 active torsions:
REMARK  status: ('A' for Active; 'I' for Inactive)
REMARK    1  A    between atoms: C_4  and  C_5 
REMARK    2  A    between atoms: C_9  and  C_10 
REMARK       I    between atoms: C_10  and  N_11 
REMARK    3  A    between atoms: N_11  and  C_12 
REMARK    4  A    between atoms: C_13  and  O_14 
ROOT
HETATM    1  C   UNL     1       6.552  27.273  55.787  1.00  0.00     0.270 C 
HETATM    2  N   UNL     1       7.198  26.119  55.430  1.00  0.00    -0.344 N 
HETATM    3  O   UNL     1       5.487  27.610  55.279  1.00  0.00    -0.266 OA
HETATM    4  H   UNL     1       8.147  25.953  55.732  1.00  0.00     0.163 HD
ENDROOT
BRANCH   1   5
HETATM    5  C   UNL     1       7.225  28.077  56.768  1.00  0.00     0.120 A 
HETATM    6  N   UNL     1       8.591  28.124  56.846  1.00  0.00    -0.272 N 
HETATM    7  N   UNL     1       9.060  28.934  57.808  1.00  0.00    -0.173 NA
HETATM    8  H   UNL     1       9.253  27.620  56.262  1.00  0.00     0.189 HD
HETATM    9  C   UNL     1       7.957  29.461  58.356  1.00  0.00     0.096 A 
HETATM   10  C   UNL     1       6.785  28.942  57.750  1.00  0.00     0.071 A 
BRANCH   9  11
HETATM   11  C   UNL     1       8.019  30.482  59.452  1.00  0.00     0.035 A 
HETATM   12  S   UNL     1       6.809  31.647  59.760  1.00  0.00    -0.093 SA
HETATM   13  C   UNL     1       7.699  32.341  61.046  1.00  0.00    -0.021 A 
HETATM   14  C   UNL     1       7.162  33.513  61.793  1.00  0.00     0.056 C 
HETATM   15  C   UNL     1       8.889  31.675  61.253  1.00  0.00     0.015 A 
HETATM   16  C   UNL     1       9.075  30.603  60.331  1.00  0.00     0.022 A 
ENDBRANCH   9  11
ENDBRANCH   1   5
BRANCH   2  17
HETATM   17  C   UNL     1       6.615  25.183  54.492  1.00  0.00     0.147 C 
HETATM   18  C   UNL     1       6.901  25.522  52.998  1.00  0.00     0.149 C 
HETATM   19  C   UNL     1       6.945  24.174  52.254  1.00  0.00     0.073 C 
HETATM   20  C   UNL     1       7.389  23.237  53.341  1.00  0.00    -0.047 A 
HETATM   21  C   UNL     1       7.202  23.803  54.608  1.00  0.00    -0.027 A 
HETATM   22  C   UNL     1       7.881  21.951  53.196  1.00  0.00     0.008 A 
HETATM   23  C   UNL     1       7.493  23.080  55.756  1.00  0.00     0.010 A 
HETATM   24  C   UNL     1       8.004  21.787  55.619  1.00  0.00     0.001 A 
HETATM   25  C   UNL     1       8.199  21.228  54.347  1.00  0.00     0.001 A 
BRANCH  18  26
HETATM   26  O   UNL     1       8.170  26.180  52.831  1.00  0.00    -0.393 OA
HETATM   27  H   UNL     1       8.479  25.944  51.939  1.00  0.00     0.210 HD
ENDBRANCH  18  26
ENDBRANCH   2  17
TORSDOF 4
ENDMDL
MODEL 6
REMARK VINA RESULT:      -8.8      7.389     10.370
REMARK  4 active torsions:
REMARK  status: ('A' for Active; 'I' for Inactive)
REMARK    1  A    between atoms: C_4  and  C_5 
REMARK    2  A    between atoms: C_9  and  C_10 
REMARK       I    between atoms: C_10  and  N_11 
REMARK    3  A    between atoms: N_11  and  C_12 
REMARK    4  A    between atoms: C_13  and  O_14 
ROOT
HETATM    1  C   UNL     1       9.331  29.380  57.610  1.00  0.00     0.270 C 
HETATM    2  N   UNL     1       8.417  28.359  57.624  1.00  0.00    -0.344 N 
HETATM    3  O   UNL     1      10.264  29.411  56.814  1.00  0.00    -0.266 OA
HETATM    4  H   UNL     1       7.768  28.268  58.392  1.00  0.00     0.163 HD
ENDROOT
BRANCH   1   5
HETATM    5  C   UNL     1       9.142  30.388  58.614  1.00  0.00     0.120 A 
HETATM    6  N   UNL     1       9.735  31.618  58.521  1.00  0.00    -0.272 N 
HETATM    7  N   UNL     1       9.444  32.448  59.535  1.00  0.00    -0.173 NA
HETATM    8  H   UNL     1      10.350  31.943  57.780  1.00  0.00     0.189 HD
HETATM    9  C   UNL     1       8.601  31.743  60.300  1.00  0.00     0.096 A 
HETATM   10  C   UNL     1       8.395  30.443  59.775  1.00  0.00     0.071 A 
BRANCH   9  11
HETATM   11  C   UNL     1       7.970  32.319  61.532  1.00  0.00     0.035 A 
HETATM   12  S   UNL     1       6.510  33.206  61.549  1.00  0.00    -0.093 SA
HETATM   13  C   UNL     1       6.604  33.474  63.236  1.00  0.00    -0.021 A 
HETATM   14  C   UNL     1       5.555  34.267  63.937  1.00  0.00     0.056 C 
HETATM   15  C   UNL     1       7.719  32.872  63.782  1.00  0.00     0.015 A 
HETATM   16  C   UNL     1       8.509  32.207  62.798  1.00  0.00     0.022 A 
ENDBRANCH   9  11
ENDBRANCH   1   5
BRANCH   2  17
HETATM   17  C   UNL     1       8.449  27.299  56.639  1.00  0.00     0.147 C 
HETATM   18  C   UNL     1       8.392  25.865  57.248  1.00  0.00     0.149 C 
HETATM   19  C   UNL     1       7.673  24.987  56.207  1.00  0.00     0.073 C 
HETATM   20  C   UNL     1       6.801  25.990  55.507  1.00  0.00    -0.047 A 
HETATM   21  C   UNL     1       7.238  27.299  55.746  1.00  0.00    -0.027 A 
HETATM   22  C   UNL     1       5.723  25.736  54.676  1.00  0.00     0.008 A 
HETATM   23  C   UNL     1       6.607  28.378  55.144  1.00  0.00     0.010 A 
HETATM   24  C   UNL     1       5.508  28.131  54.317  1.00  0.00     0.001 A 
HETATM   25  C   UNL     1       5.068  26.818  54.087  1.00  0.00     0.001 A 
BRANCH  18  26
HETATM   26  O   UNL     1       7.639  25.834  58.474  1.00  0.00    -0.393 OA
HETATM   27  H   UNL     1       7.144  26.670  58.506  1.00  0.00     0.210 HD
ENDBRANCH  18  26
ENDBRANCH   2  17
TORSDOF 4
ENDMDL
MODEL 7
REMARK VINA RESULT:      -8.7      6.334      9.097
REMARK  4 active torsions:
REMARK  status: ('A' for Active; 'I' for Inactive)
REMARK    1  A    between atoms: C_4  and  C_5 
REMARK    2  A    between atoms: C_9  and  C_10 
REMARK       I    between atoms: C_10  and  N_11 
REMARK    3  A    between atoms: N_11  and  C_12 
REMARK    4  A    between atoms: C_13  and  O_14 
ROOT
HETATM    1  C   UNL     1       7.996  29.158  57.238  1.00  0.00     0.270 C 
HETATM    2  N   UNL     1       7.049  29.705  58.064  1.00  0.00    -0.344 N 
HETATM    3  O   UNL     1       8.918  29.819  56.772  1.00  0.00    -0.266 OA
HETATM    4  H   UNL     1       6.212  29.189  58.291  1.00  0.00     0.163 HD
ENDROOT
BRANCH   1   5
HETATM    5  C   UNL     1       7.812  27.768  56.929  1.00  0.00     0.120 A 
HETATM    6  N   UNL     1       7.321  26.883  57.851  1.00  0.00    -0.272 N 
HETATM    7  N   UNL     1       7.197  25.627  57.397  1.00  0.00    -0.173 NA
HETATM    8  H   UNL     1       7.052  27.089  58.809  1.00  0.00     0.189 HD
HETATM    9  C   UNL     1       7.592  25.702  56.120  1.00  0.00     0.096 A 
HETATM   10  C   UNL     1       8.002  27.017  55.786  1.00  0.00     0.071 A 
BRANCH   9  11
HETATM   11  C   UNL     1       7.559  24.516  55.203  1.00  0.00     0.035 A 
HETATM   12  S   UNL     1       7.885  22.910  55.684  1.00  0.00    -0.093 SA
HETATM   13  C   UNL     1       7.679  22.312  54.095  1.00  0.00    -0.021 A 
HETATM   14  C   UNL     1       7.858  20.862  53.802  1.00  0.00     0.056 C 
HETATM   15  C   UNL     1       7.340  23.320  53.216  1.00  0.00     0.015 A 
HETATM   16  C   UNL     1       7.272  24.593  53.855  1.00  0.00     0.022 A 
ENDBRANCH   9  11
ENDBRANCH   1   5
BRANCH   2  17
HETATM   17  C   UNL     1       7.133  31.082  58.504  1.00  0.00     0.147 C 
HETATM   18  C   UNL     1       5.750  31.791  58.634  1.00  0.00     0.149 C 
HETATM   19  C   UNL     1       5.905  32.824  59.766  1.00  0.00     0.073 C 
HETATM   20  C   UNL     1       6.975  32.196  60.612  1.00  0.00    -0.047 A 
HETATM   21  C   UNL     1       7.674  31.212  59.902  1.00  0.00    -0.027 A 
HETATM   22  C   UNL     1       7.323  32.524  61.912  1.00  0.00     0.008 A 
HETATM   23  C   UNL     1       8.746  30.548  60.480  1.00  0.00     0.010 A 
HETATM   24  C   UNL     1       9.093  30.861  61.797  1.00  0.00     0.001 A 
HETATM   25  C   UNL     1       8.385  31.841  62.508  1.00  0.00     0.001 A 
BRANCH  18  26
HETATM   26  O   UNL     1       4.707  30.868  58.994  1.00  0.00    -0.393 OA
HETATM   27  H   UNL     1       4.534  30.335  58.198  1.00  0.00     0.210 HD
ENDBRANCH  18  26
ENDBRANCH   2  17
TORSDOF 4
ENDMDL
MODEL 8
REMARK VINA RESULT:      -8.6      7.779     10.588
REMARK  4 active torsions:
REMARK  status: ('A' for Active; 'I' for Inactive)
REMARK    1  A    between atoms: C_4  and  C_5 
REMARK    2  A    between atoms: C_9  and  C_10 
REMARK       I    between atoms: C_10  and  N_11 
REMARK    3  A    between atoms: N_11  and  C_12 
REMARK    4  A    between atoms: C_13  and  O_14 
ROOT
HETATM    1  C   UNL     1       7.154  30.922  58.568  1.00  0.00     0.270 C 
HETATM    2  N   UNL     1       6.164  31.424  59.371  1.00  0.00    -0.344 N 
HETATM    3  O   UNL     1       8.144  31.580  58.262  1.00  0.00    -0.266 OA
HETATM    4  H   UNL     1       5.287  30.933  59.465  1.00  0.00     0.163 HD
ENDROOT
BRANCH   1   5
HETATM    5  C   UNL     1       6.933  29.590  58.081  1.00  0.00     0.120 A 
HETATM    6  N   UNL     1       5.699  29.169  57.666  1.00  0.00    -0.272 N 
HETATM    7  N   UNL     1       5.668  27.901  57.227  1.00  0.00    -0.173 NA
HETATM    8  H   UNL     1       4.840  29.712  57.662  1.00  0.00     0.189 HD
HETATM    9  C   UNL     1       6.939  27.491  57.327  1.00  0.00     0.096 A 
HETATM   10  C   UNL     1       7.764  28.506  57.872  1.00  0.00     0.071 A 
BRANCH   9  11
HETATM   11  C   UNL     1       7.375  26.128  56.882  1.00  0.00     0.035 A 
HETATM   12  S   UNL     1       6.653  25.247  55.609  1.00  0.00    -0.093 SA
HETATM   13  C   UNL     1       7.690  23.908  55.846  1.00  0.00    -0.021 A 
HETATM   14  C   UNL     1       7.560  22.689  54.999  1.00  0.00     0.056 C 
HETATM   15  C   UNL     1       8.592  24.141  56.864  1.00  0.00     0.015 A 
HETATM   16  C   UNL     1       8.409  25.422  57.463  1.00  0.00     0.022 A 
ENDBRANCH   9  11
ENDBRANCH   1   5
BRANCH   2  17
HETATM   17  C   UNL     1       6.272  32.734  59.979  1.00  0.00     0.147 C 
HETATM   18  C   UNL     1       4.900  33.425  60.244  1.00  0.00     0.149 C 
HETATM   19  C   UNL     1       5.100  34.306  61.491  1.00  0.00     0.073 C 
HETATM   20  C   UNL     1       6.194  33.573  62.215  1.00  0.00    -0.047 A 
HETATM   21  C   UNL     1       6.860  32.685  61.362  1.00  0.00    -0.027 A 
HETATM   22  C   UNL     1       6.587  33.733  63.533  1.00  0.00     0.008 A 
HETATM   23  C   UNL     1       7.947  31.949  61.816  1.00  0.00     0.010 A 
HETATM   24  C   UNL     1       8.340  32.093  63.148  1.00  0.00     0.001 A 
HETATM   25  C   UNL     1       7.663  32.978  64.001  1.00  0.00     0.001 A 
BRANCH  18  26
HETATM   26  O   UNL     1       3.863  32.468  60.520  1.00  0.00    -0.393 OA
HETATM   27  H   UNL     1       4.257  31.592  60.366  1.00  0.00     0.210 HD
ENDBRANCH  18  26
ENDBRANCH   2  17
TORSDOF 4
ENDMDL
MODEL 9
REMARK VINA RESULT:      -8.2      6.619      9.683
REMARK  4 active torsions:
REMARK  status: ('A' for Active; 'I' for Inactive)
REMARK    1  A    between atoms: C_4  and  C_5 
REMARK    2  A    between atoms: C_9  and  C_10 
REMARK       I    between atoms: C_10  and  N_11 
REMARK    3  A    between atoms: N_11  and  C_12 
REMARK    4  A    between atoms: C_13  and  O_14 
ROOT
HETATM    1  C   UNL     1       8.097  28.795  56.775  1.00  0.00     0.270 C 
HETATM    2  N   UNL     1       7.497  27.571  56.914  1.00  0.00    -0.344 N 
HETATM    3  O   UNL     1       8.896  29.034  55.876  1.00  0.00    -0.266 OA
HETATM    4  H   UNL     1       6.984  27.348  57.754  1.00  0.00     0.163 HD
ENDROOT
BRANCH   1   5
HETATM    5  C   UNL     1       7.754  29.765  57.778  1.00  0.00     0.120 A 
HETATM    6  N   UNL     1       6.769  30.694  57.575  1.00  0.00    -0.272 N 
HETATM    7  N   UNL     1       6.564  31.515  58.616  1.00  0.00    -0.173 NA
HETATM    8  H   UNL     1       6.203  30.808  56.738  1.00  0.00     0.189 HD
HETATM    9  C   UNL     1       7.425  31.083  59.546  1.00  0.00     0.096 A 
HETATM   10  C   UNL     1       8.203  30.001  59.062  1.00  0.00     0.071 A 
BRANCH   9  11
HETATM   11  C   UNL     1       7.495  31.692  60.914  1.00  0.00     0.035 A 
HETATM   12  S   UNL     1       6.235  32.587  61.641  1.00  0.00    -0.093 SA
HETATM   13  C   UNL     1       7.162  32.895  63.045  1.00  0.00    -0.021 A 
HETATM   14  C   UNL     1       6.601  33.710  64.160  1.00  0.00     0.056 C 
HETATM   15  C   UNL     1       8.404  32.300  62.971  1.00  0.00     0.015 A 
HETATM   16  C   UNL     1       8.597  31.607  61.739  1.00  0.00     0.022 A 
ENDBRANCH   9  11
ENDBRANCH   1   5
BRANCH   2  17
HETATM   17  C   UNL     1       7.706  26.512  55.950  1.00  0.00     0.147 C 
HETATM   18  C   UNL     1       7.615  25.078  56.553  1.00  0.00     0.149 C 
HETATM   19  C   UNL     1       7.082  24.173  55.427  1.00  0.00     0.073 C 
HETATM   20  C   UNL     1       6.283  25.144  54.604  1.00  0.00    -0.047 A 
HETATM   21  C   UNL     1       6.635  26.467  54.895  1.00  0.00    -0.027 A 
HETATM   22  C   UNL     1       5.342  24.849  53.631  1.00  0.00     0.008 A 
HETATM   23  C   UNL     1       6.057  27.522  54.202  1.00  0.00     0.010 A 
HETATM   24  C   UNL     1       5.096  27.235  53.230  1.00  0.00     0.001 A 
HETATM   25  C   UNL     1       4.740  25.907  52.948  1.00  0.00     0.001 A 
BRANCH  18  26
HETATM   26  O   UNL     1       6.697  25.020  57.660  1.00  0.00    -0.393 OA
HETATM   27  H   UNL     1       7.023  24.312  58.242  1.00  0.00     0.210 HD
ENDBRANCH  18  26
ENDBRANCH   2  17
TORSDOF 4
ENDMDL
MODEL 10
REMARK VINA RESULT:      -8.1      1.996      2.173
REMARK  4 active torsions:
REMARK  status: ('A' for Active; 'I' for Inactive)
REMARK    1  A    between atoms: C_4  and  C_5 
REMARK    2  A    between atoms: C_9  and  C_10 
REMARK       I    between atoms: C_10  and  N_11 
REMARK    3  A    between atoms: N_11  and  C_12 
REMARK    4  A    between atoms: C_13  and  O_14 
ROOT
HETATM    1  C   UNL     1       6.141  27.553  53.089  1.00  0.00     0.270 C 
HETATM    2  N   UNL     1       6.137  26.214  53.383  1.00  0.00    -0.344 N 
HETATM    3  O   UNL     1       6.846  28.353  53.695  1.00  0.00    -0.266 OA
HETATM    4  H   UNL     1       5.429  25.610  52.993  1.00  0.00     0.163 HD
ENDROOT
BRANCH   1   5
HETATM    5  C   UNL     1       5.237  27.956  52.049  1.00  0.00     0.120 A 
HETATM    6  N   UNL     1       3.889  28.062  52.266  1.00  0.00    -0.272 N 
HETATM    7  N   UNL     1       3.189  28.464  51.194  1.00  0.00    -0.173 NA
HETATM    8  H   UNL     1       3.396  27.871  53.133  1.00  0.00     0.189 HD
HETATM    9  C   UNL     1       4.120  28.660  50.252  1.00  0.00     0.096 A 
HETATM   10  C   UNL     1       5.413  28.339  50.734  1.00  0.00     0.071 A 
BRANCH   9  11
HETATM   11  C   UNL     1       3.778  29.177  48.887  1.00  0.00     0.035 A 
HETATM   12  S   UNL     1       4.638  30.408  48.073  1.00  0.00    -0.093 SA
HETATM   13  C   UNL     1       3.580  30.365  46.730  1.00  0.00    -0.021 A 
HETATM   14  C   UNL     1       3.781  31.286  45.576  1.00  0.00     0.056 C 
HETATM   15  C   UNL     1       2.601  29.406  46.890  1.00  0.00     0.015 A 
HETATM   16  C   UNL     1       2.714  28.721  48.136  1.00  0.00     0.022 A 
ENDBRANCH   9  11
ENDBRANCH   1   5
BRANCH   2  17
HETATM   17  C   UNL     1       7.033  25.654  54.372  1.00  0.00     0.147 C 
HETATM   18  C   UNL     1       6.449  25.630  55.817  1.00  0.00     0.149 C 
HETATM   19  C   UNL     1       7.073  24.405  56.511  1.00  0.00     0.073 C 
HETATM   20  C   UNL     1       7.339  23.493  55.347  1.00  0.00    -0.047 A 
HETATM   21  C   UNL     1       7.319  24.196  54.136  1.00  0.00    -0.027 A 
HETATM   22  C   UNL     1       7.624  22.139  55.385  1.00  0.00     0.008 A 
HETATM   23  C   UNL     1       7.600  23.551  52.939  1.00  0.00     0.010 A 
HETATM   24  C   UNL     1       7.873  22.182  52.967  1.00  0.00     0.001 A 
HETATM   25  C   UNL     1       7.883  21.480  54.182  1.00  0.00     0.001 A 
BRANCH  18  26
HETATM   26  O   UNL     1       5.018  25.475  55.813  1.00  0.00    -0.393 OA
HETATM   27  H   UNL     1       4.698  25.920  56.617  1.00  0.00     0.210 HD
ENDBRANCH  18  26
ENDBRANCH   2  17
TORSDOF 4
ENDMDL
