MODEL 1
REMARK VINA RESULT:     -10.8      0.000      0.000
REMARK  6 active torsions:
REMARK  status: ('A' for Active; 'I' for Inactive)
REMARK    1  A    between atoms: C_5  and  C_6 
REMARK    2  A    between atoms: C_6  and  S_7 
REMARK    3  A    between atoms: S_7  and  C_8 
REMARK    4  A    between atoms: C_10  and  N_11 
REMARK    5  A    between atoms: C_12  and  N_13 
REMARK       I    between atoms: N_13  and  C_14 
REMARK    6  A    between atoms: C_14  and  C_15 
ROOT
HETATM    1  C   UNL     1       6.192  25.958  53.879  1.00  0.00     0.171 C 
HETATM    2  N   UNL     1       5.183  26.385  54.560  1.00  0.00    -0.210 NA
HETATM    3  C   UNL     1       5.408  27.417  55.444  1.00  0.00     0.136 C 
HETATM    4  C   UNL     1       6.595  28.069  55.526  1.00  0.00     0.144 C 
HETATM    5  C   UNL     1       7.581  27.742  54.455  1.00  0.00     0.277 C 
HETATM    6  O   UNL     1       8.370  28.552  53.981  1.00  0.00    -0.266 OA
HETATM    7  N   UNL     1       7.429  26.506  53.912  1.00  0.00    -0.300 N 
HETATM    8  H   UNL     1       8.075  26.247  53.181  1.00  0.00     0.171 HD
ENDROOT
BRANCH   1   9
HETATM    9  S   UNL     1       6.134  24.619  52.780  1.00  0.00    -0.087 SA
BRANCH   9  10
HETATM   10  C   UNL     1       7.870  24.099  52.756  1.00  0.00     0.121 C 
BRANCH  10  11
HETATM   11  C   UNL     1       8.028  22.728  53.385  1.00  0.00    -0.037 A 
HETATM   12  C   UNL     1       8.168  22.533  54.791  1.00  0.00    -0.019 A 
HETATM   13  C   UNL     1       8.336  21.212  55.282  1.00  0.00    -0.025 A 
HETATM   14  C   UNL     1       8.158  23.581  55.743  1.00  0.00     0.013 A 
HETATM   15  C   UNL     1       8.470  20.981  56.662  1.00  0.00     0.012 A 
HETATM   16  C   UNL     1       8.376  20.131  54.391  1.00  0.00     0.012 A 
HETATM   17  C   UNL     1       8.446  22.036  57.572  1.00  0.00     0.001 A 
HETATM   18  C   UNL     1       8.293  23.336  57.112  1.00  0.00     0.001 A 
HETATM   19  C   UNL     1       8.253  20.330  53.020  1.00  0.00     0.001 A 
HETATM   20  C   UNL     1       8.081  21.616  52.522  1.00  0.00     0.009 A 
ENDBRANCH  10  11
ENDBRANCH   9  10
ENDBRANCH   1   9
BRANCH   3  21
HETATM   21  N   UNL     1       4.366  27.753  56.300  1.00  0.00    -0.285 NA
HETATM   22  H   UNL     1       3.879  26.889  56.540  1.00  0.00     0.125 HD
HETATM   23  H   UNL     1       3.709  28.378  55.836  1.00  0.00     0.125 HD
ENDBRANCH   3  21
BRANCH   4  24
HETATM   24  N   UNL     1       6.847  28.992  56.524  1.00  0.00    -0.314 N 
HETATM   25  C   UNL     1       7.524  28.757  57.707  1.00  0.00     0.280 C 
HETATM   26  O   UNL     1       7.963  27.667  58.057  1.00  0.00    -0.265 OA
HETATM   27  H   UNL     1       6.297  29.844  56.497  1.00  0.00     0.169 HD
BRANCH  25  28
HETATM   28  C   UNL     1       7.601  29.920  58.570  1.00  0.00     0.144 A 
HETATM   29  O   UNL     1       8.491  29.938  59.613  1.00  0.00    -0.298 OA
HETATM   30  C   UNL     1       8.376  31.155  60.213  1.00  0.00     0.122 A 
HETATM   31 BR   UNL     1       9.400  31.703  61.673  1.00  0.00    -0.023 Br
HETATM   32  C   UNL     1       7.412  31.913  59.589  1.00  0.00     0.048 A 
HETATM   33  C   UNL     1       6.913  31.119  58.528  1.00  0.00     0.046 A 
ENDBRANCH  25  28
ENDBRANCH   4  24
TORSDOF 6
ENDMDL
MODEL 2
REMARK VINA RESULT:     -10.8      2.208      3.444
REMARK  6 active torsions:
REMARK  status: ('A' for Active; 'I' for Inactive)
REMARK    1  A    between atoms: C_5  and  C_6 
REMARK    2  A    between atoms: C_6  and  S_7 
REMARK    3  A    between atoms: S_7  and  C_8 
REMARK    4  A    between atoms: C_10  and  N_11 
REMARK    5  A    between atoms: C_12  and  N_13 
REMARK       I    between atoms: N_13  and  C_14 
REMARK    6  A    between atoms: C_14  and  C_15 
ROOT
HETATM    1  C   UNL     1       7.402  28.265  56.300  1.00  0.00     0.171 C 
HETATM    2  N   UNL     1       6.369  28.992  56.560  1.00  0.00    -0.210 NA
HETATM    3  C   UNL     1       6.418  29.780  57.689  1.00  0.00     0.136 C 
HETATM    4  C   UNL     1       7.538  29.913  58.444  1.00  0.00     0.144 C 
HETATM    5  C   UNL     1       8.777  29.319  57.863  1.00  0.00     0.277 C 
HETATM    6  O   UNL     1       9.897  29.798  58.007  1.00  0.00    -0.266 OA
HETATM    7  N   UNL     1       8.557  28.287  57.007  1.00  0.00    -0.300 N 
HETATM    8  H   UNL     1       9.369  27.860  56.589  1.00  0.00     0.171 HD
ENDROOT
BRANCH   1   9
HETATM    9  S   UNL     1       7.504  27.149  54.979  1.00  0.00    -0.087 SA
BRANCH   9  10
HETATM   10  C   UNL     1       7.632  25.566  55.855  1.00  0.00     0.121 C 
BRANCH  10  11
HETATM   11  C   UNL     1       7.719  24.415  54.871  1.00  0.00    -0.037 A 
HETATM   12  C   UNL     1       7.958  23.068  55.276  1.00  0.00    -0.019 A 
HETATM   13  C   UNL     1       8.048  22.063  54.277  1.00  0.00    -0.025 A 
HETATM   14  C   UNL     1       8.120  22.660  56.622  1.00  0.00     0.013 A 
HETATM   15  C   UNL     1       8.275  20.724  54.639  1.00  0.00     0.012 A 
HETATM   16  C   UNL     1       7.918  22.404  52.924  1.00  0.00     0.012 A 
HETATM   17  C   UNL     1       8.421  20.356  55.975  1.00  0.00     0.001 A 
HETATM   18  C   UNL     1       8.346  21.325  56.965  1.00  0.00     0.001 A 
HETATM   19  C   UNL     1       7.700  23.721  52.536  1.00  0.00     0.001 A 
HETATM   20  C   UNL     1       7.602  24.717  53.500  1.00  0.00     0.009 A 
ENDBRANCH  10  11
ENDBRANCH   9  10
ENDBRANCH   1   9
BRANCH   3  21
HETATM   21  N   UNL     1       5.243  30.421  58.063  1.00  0.00    -0.285 NA
HETATM   22  H   UNL     1       4.490  30.028  57.499  1.00  0.00     0.125 HD
HETATM   23  H   UNL     1       5.305  31.420  57.874  1.00  0.00     0.125 HD
ENDBRANCH   3  21
BRANCH   4  24
HETATM   24  N   UNL     1       7.521  30.581  59.654  1.00  0.00    -0.314 N 
HETATM   25  C   UNL     1       8.070  31.824  59.914  1.00  0.00     0.280 C 
HETATM   26  O   UNL     1       8.695  32.496  59.100  1.00  0.00    -0.265 OA
HETATM   27  H   UNL     1       7.296  30.024  60.472  1.00  0.00     0.169 HD
BRANCH  25  28
HETATM   28  C   UNL     1       7.917  32.247  61.292  1.00  0.00     0.144 A 
HETATM   29  O   UNL     1       7.047  33.260  61.603  1.00  0.00    -0.298 OA
HETATM   30  C   UNL     1       7.078  33.410  62.956  1.00  0.00     0.122 A 
HETATM   31 BR   UNL     1       6.040  34.642  63.896  1.00  0.00    -0.023 Br
HETATM   32  C   UNL     1       7.969  32.527  63.520  1.00  0.00     0.048 A 
HETATM   33  C   UNL     1       8.509  31.775  62.449  1.00  0.00     0.046 A 
ENDBRANCH  25  28
ENDBRANCH   4  24
TORSDOF 6
ENDMDL
MODEL 3
REMARK VINA RESULT:     -10.0      2.289      3.845
REMARK  6 active torsions:
REMARK  status: ('A' for Active; 'I' for Inactive)
REMARK    1  A    between atoms: C_5  and  C_6 
REMARK    2  A    between atoms: C_6  and  S_7 
REMARK    3  A    between atoms: S_7  and  C_8 
REMARK    4  A    between atoms: C_10  and  N_11 
REMARK    5  A    between atoms: C_12  and  N_13 
REMARK       I    between atoms: N_13  and  C_14 
REMARK    6  A    between atoms: C_14  and  C_15 
ROOT
HETATM    1  C   UNL     1       7.449  28.624  55.888  1.00  0.00     0.171 C 
HETATM    2  N   UNL     1       6.337  29.095  56.343  1.00  0.00    -0.210 NA
HETATM    3  C   UNL     1       6.381  29.771  57.542  1.00  0.00     0.136 C 
HETATM    4  C   UNL     1       7.543  30.063  58.179  1.00  0.00     0.144 C 
HETATM    5  C   UNL     1       8.787  29.793  57.401  1.00  0.00     0.277 C 
HETATM    6  O   UNL     1       9.801  30.477  57.475  1.00  0.00    -0.266 OA
HETATM    7  N   UNL     1       8.660  28.819  56.461  1.00  0.00    -0.300 N 
HETATM    8  H   UNL     1       9.478  28.608  55.911  1.00  0.00     0.171 HD
ENDROOT
BRANCH   1   9
HETATM    9  S   UNL     1       7.591  27.677  54.444  1.00  0.00    -0.087 SA
BRANCH   9  10
HETATM   10  C   UNL     1       6.487  26.288  54.815  1.00  0.00     0.121 C 
BRANCH  10  11
HETATM   11  C   UNL     1       7.256  25.151  55.461  1.00  0.00    -0.037 A 
HETATM   12  C   UNL     1       7.633  23.971  54.754  1.00  0.00    -0.019 A 
HETATM   13  C   UNL     1       8.329  22.951  55.453  1.00  0.00    -0.025 A 
HETATM   14  C   UNL     1       7.353  23.743  53.385  1.00  0.00     0.013 A 
HETATM   15  C   UNL     1       8.723  21.778  54.787  1.00  0.00     0.012 A 
HETATM   16  C   UNL     1       8.619  23.106  56.816  1.00  0.00     0.012 A 
HETATM   17  C   UNL     1       8.439  21.590  53.436  1.00  0.00     0.001 A 
HETATM   18  C   UNL     1       7.752  22.571  52.736  1.00  0.00     0.001 A 
HETATM   19  C   UNL     1       8.235  24.252  57.503  1.00  0.00     0.001 A 
HETATM   20  C   UNL     1       7.559  25.264  56.833  1.00  0.00     0.009 A 
ENDBRANCH  10  11
ENDBRANCH   9  10
ENDBRANCH   1   9
BRANCH   3  21
HETATM   21  N   UNL     1       5.163  30.120  58.114  1.00  0.00    -0.285 NA
HETATM   22  H   UNL     1       5.318  30.962  58.668  1.00  0.00     0.125 HD
HETATM   23  H   UNL     1       4.833  29.380  58.732  1.00  0.00     0.125 HD
ENDBRANCH   3  21
BRANCH   4  24
HETATM   24  N   UNL     1       7.555  30.601  59.453  1.00  0.00    -0.314 N 
HETATM   25  C   UNL     1       7.160  31.878  59.809  1.00  0.00     0.280 C 
HETATM   26  O   UNL     1       6.778  32.737  59.021  1.00  0.00    -0.265 OA
HETATM   27  H   UNL     1       8.111  30.108  60.144  1.00  0.00     0.169 HD
BRANCH  25  28
HETATM   28  C   UNL     1       7.320  32.160  61.222  1.00  0.00     0.144 A 
HETATM   29  O   UNL     1       6.266  32.664  61.940  1.00  0.00    -0.298 OA
HETATM   30  C   UNL     1       6.686  32.786  63.230  1.00  0.00     0.122 A 
HETATM   31 BR   UNL     1       5.611  33.397  64.627  1.00  0.00    -0.023 Br
HETATM   32  C   UNL     1       7.998  32.390  63.351  1.00  0.00     0.048 A 
HETATM   33  C   UNL     1       8.407  31.984  62.058  1.00  0.00     0.046 A 
ENDBRANCH  25  28
ENDBRANCH   4  24
TORSDOF 6
ENDMDL
MODEL 4
REMARK VINA RESULT:      -9.7      3.600      9.303
REMARK  6 active torsions:
REMARK  status: ('A' for Active; 'I' for Inactive)
REMARK    1  A    between atoms: C_5  and  C_6 
REMARK    2  A    between atoms: C_6  and  S_7 
REMARK    3  A    between atoms: S_7  and  C_8 
REMARK    4  A    between atoms: C_10  and  N_11 
REMARK    5  A    between atoms: C_12  and  N_13 
REMARK       I    between atoms: N_13  and  C_14 
REMARK    6  A    between atoms: C_14  and  C_15 
ROOT
HETATM    1  C   UNL     1       6.232  29.963  57.322  1.00  0.00     0.171 C 
HETATM    2  N   UNL     1       5.274  29.099  57.335  1.00  0.00    -0.210 NA
HETATM    3  C   UNL     1       5.572  27.819  56.922  1.00  0.00     0.136 C 
HETATM    4  C   UNL     1       6.835  27.415  56.634  1.00  0.00     0.144 C 
HETATM    5  C   UNL     1       7.915  28.380  56.992  1.00  0.00     0.277 C 
HETATM    6  O   UNL     1       9.027  28.046  57.386  1.00  0.00    -0.266 OA
HETATM    7  N   UNL     1       7.520  29.680  57.013  1.00  0.00    -0.300 N 
HETATM    8  H   UNL     1       8.220  30.365  57.254  1.00  0.00     0.171 HD
ENDROOT
BRANCH   1   9
HETATM    9  S   UNL     1       6.043  31.638  57.724  1.00  0.00    -0.087 SA
BRANCH   9  10
HETATM   10  C   UNL     1       5.648  31.541  59.491  1.00  0.00     0.121 C 
BRANCH  10  11
HETATM   11  C   UNL     1       6.886  31.790  60.331  1.00  0.00    -0.037 A 
HETATM   12  C   UNL     1       6.825  32.211  61.693  1.00  0.00    -0.019 A 
HETATM   13  C   UNL     1       8.040  32.443  62.389  1.00  0.00    -0.025 A 
HETATM   14  C   UNL     1       5.620  32.421  62.406  1.00  0.00     0.013 A 
HETATM   15  C   UNL     1       8.019  32.852  63.734  1.00  0.00     0.012 A 
HETATM   16  C   UNL     1       9.268  32.274  61.734  1.00  0.00     0.012 A 
HETATM   17  C   UNL     1       6.814  33.040  64.408  1.00  0.00     0.001 A 
HETATM   18  C   UNL     1       5.615  32.827  63.743  1.00  0.00     0.001 A 
HETATM   19  C   UNL     1       9.320  31.878  60.402  1.00  0.00     0.001 A 
HETATM   20  C   UNL     1       8.140  31.639  59.707  1.00  0.00     0.009 A 
ENDBRANCH  10  11
ENDBRANCH   9  10
ENDBRANCH   1   9
BRANCH   3  21
HETATM   21  N   UNL     1       4.505  26.942  56.768  1.00  0.00    -0.285 NA
HETATM   22  H   UNL     1       3.720  27.480  56.402  1.00  0.00     0.125 HD
HETATM   23  H   UNL     1       4.236  26.544  57.666  1.00  0.00     0.125 HD
ENDBRANCH   3  21
BRANCH   4  24
HETATM   24  N   UNL     1       7.089  26.176  56.074  1.00  0.00    -0.314 N 
HETATM   25  C   UNL     1       7.341  25.916  54.739  1.00  0.00     0.280 C 
HETATM   26  O   UNL     1       7.331  26.758  53.848  1.00  0.00    -0.265 OA
HETATM   27  H   UNL     1       6.844  25.369  56.637  1.00  0.00     0.169 HD
BRANCH  25  28
HETATM   28  C   UNL     1       7.539  24.509  54.451  1.00  0.00     0.144 A 
HETATM   29  O   UNL     1       7.554  23.598  55.476  1.00  0.00    -0.298 OA
HETATM   30  C   UNL     1       7.711  22.368  54.913  1.00  0.00     0.122 A 
HETATM   31 BR   UNL     1       7.759  20.773  55.880  1.00  0.00    -0.023 Br
HETATM   32  C   UNL     1       7.819  22.472  53.546  1.00  0.00     0.048 A 
HETATM   33  C   UNL     1       7.707  23.851  53.247  1.00  0.00     0.046 A 
ENDBRANCH  25  28
ENDBRANCH   4  24
TORSDOF 6
ENDMDL
MODEL 5
REMARK VINA RESULT:      -9.7      4.264     10.429
REMARK  6 active torsions:
REMARK  status: ('A' for Active; 'I' for Inactive)
REMARK    1  A    between atoms: C_5  and  C_6 
REMARK    2  A    between atoms: C_6  and  S_7 
REMARK    3  A    between atoms: S_7  and  C_8 
REMARK    4  A    between atoms: C_10  and  N_11 
REMARK    5  A    between atoms: C_12  and  N_13 
REMARK       I    between atoms: N_13  and  C_14 
REMARK    6  A    between atoms: C_14  and  C_15 
ROOT
HETATM    1  C   UNL     1       8.928  30.824  59.302  1.00  0.00     0.171 C 
HETATM    2  N   UNL     1       9.843  30.546  58.435  1.00  0.00    -0.210 NA
HETATM    3  C   UNL     1       9.577  29.535  57.537  1.00  0.00     0.136 C 
HETATM    4  C   UNL     1       8.366  28.927  57.453  1.00  0.00     0.144 C 
HETATM    5  C   UNL     1       7.274  29.559  58.248  1.00  0.00     0.277 C 
HETATM    6  O   UNL     1       6.102  29.597  57.890  1.00  0.00    -0.266 OA
HETATM    7  N   UNL     1       7.701  30.252  59.336  1.00  0.00    -0.300 N 
HETATM    8  H   UNL     1       6.994  30.698  59.899  1.00  0.00     0.171 HD
ENDROOT
BRANCH   1   9
HETATM    9  S   UNL     1       9.102  31.999  60.562  1.00  0.00    -0.087 SA
BRANCH   9  10
HETATM   10  C   UNL     1       7.965  31.350  61.817  1.00  0.00     0.121 C 
BRANCH  10  11
HETATM   11  C   UNL     1       7.351  32.482  62.620  1.00  0.00    -0.037 A 
HETATM   12  C   UNL     1       6.293  33.298  62.123  1.00  0.00    -0.019 A 
HETATM   13  C   UNL     1       5.802  34.350  62.941  1.00  0.00    -0.025 A 
HETATM   14  C   UNL     1       5.694  33.134  60.850  1.00  0.00     0.013 A 
HETATM   15  C   UNL     1       4.755  35.170  62.486  1.00  0.00     0.012 A 
HETATM   16  C   UNL     1       6.366  34.579  64.203  1.00  0.00     0.012 A 
HETATM   17  C   UNL     1       4.182  34.975  61.231  1.00  0.00     0.001 A 
HETATM   18  C   UNL     1       4.654  33.958  60.413  1.00  0.00     0.001 A 
HETATM   19  C   UNL     1       7.407  33.788  64.676  1.00  0.00     0.001 A 
HETATM   20  C   UNL     1       7.896  32.749  63.892  1.00  0.00     0.009 A 
ENDBRANCH  10  11
ENDBRANCH   9  10
ENDBRANCH   1   9
BRANCH   3  21
HETATM   21  N   UNL     1      10.626  29.120  56.725  1.00  0.00    -0.285 NA
HETATM   22  H   UNL     1      10.329  29.247  55.758  1.00  0.00     0.125 HD
HETATM   23  H   UNL     1      10.827  28.134  56.877  1.00  0.00     0.125 HD
ENDBRANCH   3  21
BRANCH   4  24
HETATM   24  N   UNL     1       8.169  27.814  56.656  1.00  0.00    -0.314 N 
HETATM   25  C   UNL     1       7.921  26.526  57.093  1.00  0.00     0.280 C 
HETATM   26  O   UNL     1       7.883  26.181  58.269  1.00  0.00    -0.265 OA
HETATM   27  H   UNL     1       8.457  27.899  55.687  1.00  0.00     0.169 HD
BRANCH  25  28
HETATM   28  C   UNL     1       7.789  25.565  56.016  1.00  0.00     0.144 A 
HETATM   29  O   UNL     1       7.717  26.000  54.717  1.00  0.00    -0.298 OA
HETATM   30  C   UNL     1       7.644  24.892  53.929  1.00  0.00     0.122 A 
HETATM   31 BR   UNL     1       7.564  24.936  52.066  1.00  0.00    -0.023 Br
HETATM   32  C   UNL     1       7.646  23.751  54.698  1.00  0.00     0.048 A 
HETATM   33  C   UNL     1       7.742  24.183  56.043  1.00  0.00     0.046 A 
ENDBRANCH  25  28
ENDBRANCH   4  24
TORSDOF 6
ENDMDL
MODEL 6
REMARK VINA RESULT:      -9.7      3.760      9.643
REMARK  6 active torsions:
REMARK  status: ('A' for Active; 'I' for Inactive)
REMARK    1  A    between atoms: C_5  and  C_6 
REMARK    2  A    between atoms: C_6  and  S_7 
REMARK    3  A    between atoms: S_7  and  C_8 
REMARK    4  A    between atoms: C_10  and  N_11 
REMARK    5  A    between atoms: C_12  and  N_13 
REMARK       I    between atoms: N_13  and  C_14 
REMARK    6  A    between atoms: C_14  and  C_15 
ROOT
HETATM    1  C   UNL     1       6.704  29.371  56.947  1.00  0.00     0.171 C 
HETATM    2  N   UNL     1       7.052  28.449  57.780  1.00  0.00    -0.210 NA
HETATM    3  C   UNL     1       7.395  27.221  57.258  1.00  0.00     0.136 C 
HETATM    4  C   UNL     1       7.502  26.994  55.925  1.00  0.00     0.144 C 
HETATM    5  C   UNL     1       7.431  28.207  55.059  1.00  0.00     0.277 C 
HETATM    6  O   UNL     1       8.064  28.342  54.018  1.00  0.00    -0.266 OA
HETATM    7  N   UNL     1       6.734  29.241  55.600  1.00  0.00    -0.300 N 
HETATM    8  H   UNL     1       6.665  30.082  55.048  1.00  0.00     0.171 HD
ENDROOT
BRANCH   1   9
HETATM    9  S   UNL     1       6.161  30.950  57.408  1.00  0.00    -0.087 SA
BRANCH   9  10
HETATM   10  C   UNL     1       7.141  31.245  58.904  1.00  0.00     0.121 C 
BRANCH  10  11
HETATM   11  C   UNL     1       6.459  32.261  59.800  1.00  0.00    -0.037 A 
HETATM   12  C   UNL     1       6.873  32.509  61.142  1.00  0.00    -0.019 A 
HETATM   13  C   UNL     1       6.153  33.462  61.911  1.00  0.00    -0.025 A 
HETATM   14  C   UNL     1       7.962  31.859  61.771  1.00  0.00     0.013 A 
HETATM   15  C   UNL     1       6.537  33.738  63.235  1.00  0.00     0.012 A 
HETATM   16  C   UNL     1       5.052  34.126  61.355  1.00  0.00     0.012 A 
HETATM   17  C   UNL     1       7.620  33.086  63.820  1.00  0.00     0.001 A 
HETATM   18  C   UNL     1       8.331  32.145  63.088  1.00  0.00     0.001 A 
HETATM   19  C   UNL     1       4.645  33.867  60.050  1.00  0.00     0.001 A 
HETATM   20  C   UNL     1       5.341  32.943  59.280  1.00  0.00     0.009 A 
ENDBRANCH  10  11
ENDBRANCH   9  10
ENDBRANCH   1   9
BRANCH   3  21
HETATM   21  N   UNL     1       7.595  26.185  58.162  1.00  0.00    -0.285 NA
HETATM   22  H   UNL     1       7.018  26.380  58.980  1.00  0.00     0.125 HD
HETATM   23  H   UNL     1       8.570  26.147  58.452  1.00  0.00     0.125 HD
ENDBRANCH   3  21
BRANCH   4  24
HETATM   24  N   UNL     1       7.693  25.721  55.420  1.00  0.00    -0.314 N 
HETATM   25  C   UNL     1       6.745  24.939  54.785  1.00  0.00     0.280 C 
HETATM   26  O   UNL     1       5.573  25.258  54.619  1.00  0.00    -0.265 OA
HETATM   27  H   UNL     1       8.520  25.229  55.742  1.00  0.00     0.169 HD
BRANCH  25  28
HETATM   28  C   UNL     1       7.240  23.633  54.395  1.00  0.00     0.144 A 
HETATM   29  O   UNL     1       7.543  22.703  55.356  1.00  0.00    -0.298 OA
HETATM   30  C   UNL     1       7.935  21.572  54.706  1.00  0.00     0.122 A 
HETATM   31 BR   UNL     1       8.423  19.989  55.562  1.00  0.00    -0.023 Br
HETATM   32  C   UNL     1       7.910  21.764  53.344  1.00  0.00     0.048 A 
HETATM   33  C   UNL     1       7.460  23.091  53.142  1.00  0.00     0.046 A 
ENDBRANCH  25  28
ENDBRANCH   4  24
TORSDOF 6
ENDMDL
MODEL 7
REMARK VINA RESULT:      -9.5      3.524      9.179
REMARK  6 active torsions:
REMARK  status: ('A' for Active; 'I' for Inactive)
REMARK    1  A    between atoms: C_5  and  C_6 
REMARK    2  A    between atoms: C_6  and  S_7 
REMARK    3  A    between atoms: S_7  and  C_8 
REMARK    4  A    between atoms: C_10  and  N_11 
REMARK    5  A    between atoms: C_12  and  N_13 
REMARK       I    between atoms: N_13  and  C_14 
REMARK    6  A    between atoms: C_14  and  C_15 
ROOT
HETATM    1  C   UNL     1       5.169  29.333  57.347  1.00  0.00     0.171 C 
HETATM    2  N   UNL     1       6.365  28.958  57.652  1.00  0.00    -0.210 NA
HETATM    3  C   UNL     1       6.827  27.792  57.083  1.00  0.00     0.136 C 
HETATM    4  C   UNL     1       6.133  27.112  56.135  1.00  0.00     0.144 C 
HETATM    5  C   UNL     1       4.934  27.813  55.592  1.00  0.00     0.277 C 
HETATM    6  O   UNL     1       4.556  27.722  54.429  1.00  0.00    -0.266 OA
HETATM    7  N   UNL     1       4.373  28.709  56.446  1.00  0.00    -0.300 N 
HETATM    8  H   UNL     1       3.561  29.207  56.116  1.00  0.00     0.171 HD
ENDROOT
BRANCH   1   9
HETATM    9  S   UNL     1       4.378  30.720  58.019  1.00  0.00    -0.087 SA
BRANCH   9  10
HETATM   10  C   UNL     1       5.721  31.938  58.010  1.00  0.00     0.121 C 
BRANCH  10  11
HETATM   11  C   UNL     1       6.005  32.433  59.416  1.00  0.00    -0.037 A 
HETATM   12  C   UNL     1       7.148  32.022  60.164  1.00  0.00    -0.019 A 
HETATM   13  C   UNL     1       7.313  32.520  61.483  1.00  0.00    -0.025 A 
HETATM   14  C   UNL     1       8.138  31.134  59.678  1.00  0.00     0.013 A 
HETATM   15  C   UNL     1       8.431  32.142  62.247  1.00  0.00     0.012 A 
HETATM   16  C   UNL     1       6.358  33.386  62.031  1.00  0.00     0.012 A 
HETATM   17  C   UNL     1       9.392  31.274  61.733  1.00  0.00     0.001 A 
HETATM   18  C   UNL     1       9.244  30.768  60.450  1.00  0.00     0.001 A 
HETATM   19  C   UNL     1       5.239  33.771  61.302  1.00  0.00     0.001 A 
HETATM   20  C   UNL     1       5.064  33.298  60.006  1.00  0.00     0.009 A 
ENDBRANCH  10  11
ENDBRANCH   9  10
ENDBRANCH   1   9
BRANCH   3  21
HETATM   21  N   UNL     1       8.040  27.299  57.549  1.00  0.00    -0.285 NA
HETATM   22  H   UNL     1       8.135  26.345  57.201  1.00  0.00     0.125 HD
HETATM   23  H   UNL     1       8.050  27.277  58.567  1.00  0.00     0.125 HD
ENDBRANCH   3  21
BRANCH   4  24
HETATM   24  N   UNL     1       6.541  25.867  55.692  1.00  0.00    -0.314 N 
HETATM   25  C   UNL     1       7.273  25.601  54.550  1.00  0.00     0.280 C 
HETATM   26  O   UNL     1       7.631  26.446  53.736  1.00  0.00    -0.265 OA
HETATM   27  H   UNL     1       6.074  25.068  56.107  1.00  0.00     0.169 HD
BRANCH  25  28
HETATM   28  C   UNL     1       7.520  24.189  54.336  1.00  0.00     0.144 A 
HETATM   29  O   UNL     1       7.561  23.333  55.407  1.00  0.00    -0.298 OA
HETATM   30  C   UNL     1       7.762  22.082  54.909  1.00  0.00     0.122 A 
HETATM   31 BR   UNL     1       7.859  20.542  55.958  1.00  0.00    -0.023 Br
HETATM   32  C   UNL     1       7.872  22.119  53.538  1.00  0.00     0.048 A 
HETATM   33  C   UNL     1       7.714  23.476  53.168  1.00  0.00     0.046 A 
ENDBRANCH  25  28
ENDBRANCH   4  24
TORSDOF 6
ENDMDL
MODEL 8
REMARK VINA RESULT:      -9.3      3.170      4.477
REMARK  6 active torsions:
REMARK  status: ('A' for Active; 'I' for Inactive)
REMARK    1  A    between atoms: C_5  and  C_6 
REMARK    2  A    between atoms: C_6  and  S_7 
REMARK    3  A    between atoms: S_7  and  C_8 
REMARK    4  A    between atoms: C_10  and  N_11 
REMARK    5  A    between atoms: C_12  and  N_13 
REMARK       I    between atoms: N_13  and  C_14 
REMARK    6  A    between atoms: C_14  and  C_15 
ROOT
HETATM    1  C   UNL     1       7.226  28.198  57.385  1.00  0.00     0.171 C 
HETATM    2  N   UNL     1       6.016  28.344  56.962  1.00  0.00    -0.210 NA
HETATM    3  C   UNL     1       5.313  29.436  57.421  1.00  0.00     0.136 C 
HETATM    4  C   UNL     1       5.879  30.409  58.179  1.00  0.00     0.144 C 
HETATM    5  C   UNL     1       7.363  30.334  58.315  1.00  0.00     0.277 C 
HETATM    6  O   UNL     1       8.093  31.316  58.391  1.00  0.00    -0.266 OA
HETATM    7  N   UNL     1       7.876  29.084  58.176  1.00  0.00    -0.300 N 
HETATM    8  H   UNL     1       8.877  28.990  58.258  1.00  0.00     0.171 HD
ENDROOT
BRANCH   1   9
HETATM    9  S   UNL     1       8.243  26.852  56.992  1.00  0.00    -0.087 SA
BRANCH   9  10
HETATM   10  C   UNL     1       7.019  25.614  56.484  1.00  0.00     0.121 C 
BRANCH  10  11
HETATM   11  C   UNL     1       7.296  25.135  55.071  1.00  0.00    -0.037 A 
HETATM   12  C   UNL     1       7.530  23.766  54.750  1.00  0.00    -0.019 A 
HETATM   13  C   UNL     1       7.806  23.420  53.401  1.00  0.00    -0.025 A 
HETATM   14  C   UNL     1       7.510  22.713  55.697  1.00  0.00     0.013 A 
HETATM   15  C   UNL     1       8.033  22.079  53.046  1.00  0.00     0.012 A 
HETATM   16  C   UNL     1       7.860  24.417  52.417  1.00  0.00     0.012 A 
HETATM   17  C   UNL     1       7.998  21.067  54.003  1.00  0.00     0.001 A 
HETATM   18  C   UNL     1       7.739  21.385  55.328  1.00  0.00     0.001 A 
HETATM   19  C   UNL     1       7.646  25.753  52.740  1.00  0.00     0.001 A 
HETATM   20  C   UNL     1       7.368  26.109  54.055  1.00  0.00     0.009 A 
ENDBRANCH  10  11
ENDBRANCH   9  10
ENDBRANCH   1   9
BRANCH   3  21
HETATM   21  N   UNL     1       3.960  29.494  57.106  1.00  0.00    -0.285 NA
HETATM   22  H   UNL     1       3.886  29.531  56.090  1.00  0.00     0.125 HD
HETATM   23  H   UNL     1       3.538  30.335  57.495  1.00  0.00     0.125 HD
ENDBRANCH   3  21
BRANCH   4  24
HETATM   24  N   UNL     1       5.121  31.411  58.756  1.00  0.00    -0.314 N 
HETATM   25  C   UNL     1       4.970  32.702  58.284  1.00  0.00     0.280 C 
HETATM   26  O   UNL     1       5.532  33.154  57.292  1.00  0.00    -0.265 OA
HETATM   27  H   UNL     1       4.841  31.263  59.720  1.00  0.00     0.169 HD
BRANCH  25  28
HETATM   28  C   UNL     1       4.133  33.533  59.128  1.00  0.00     0.144 A 
HETATM   29  O   UNL     1       3.893  33.163  60.426  1.00  0.00    -0.298 OA
HETATM   30  C   UNL     1       3.125  34.140  60.983  1.00  0.00     0.122 A 
HETATM   31 BR   UNL     1       2.547  34.134  62.756  1.00  0.00    -0.023 Br
HETATM   32  C   UNL     1       2.849  35.123  60.060  1.00  0.00     0.048 A 
HETATM   33  C   UNL     1       3.501  34.733  58.865  1.00  0.00     0.046 A 
ENDBRANCH  25  28
ENDBRANCH   4  24
TORSDOF 6
ENDMDL
MODEL 9
REMARK VINA RESULT:      -9.3      2.482      3.770
REMARK  6 active torsions:
REMARK  status: ('A' for Active; 'I' for Inactive)
REMARK    1  A    between atoms: C_5  and  C_6 
REMARK    2  A    between atoms: C_6  and  S_7 
REMARK    3  A    between atoms: S_7  and  C_8 
REMARK    4  A    between atoms: C_10  and  N_11 
REMARK    5  A    between atoms: C_12  and  N_13 
REMARK       I    between atoms: N_13  and  C_14 
REMARK    6  A    between atoms: C_14  and  C_15 
ROOT
HETATM    1  C   UNL     1       6.852  28.969  55.800  1.00  0.00     0.171 C 
HETATM    2  N   UNL     1       7.632  28.737  56.802  1.00  0.00    -0.210 NA
HETATM    3  C   UNL     1       7.396  29.440  57.963  1.00  0.00     0.136 C 
HETATM    4  C   UNL     1       6.319  30.249  58.125  1.00  0.00     0.144 C 
HETATM    5  C   UNL     1       5.291  30.174  57.048  1.00  0.00     0.277 C 
HETATM    6  O   UNL     1       4.086  30.294  57.242  1.00  0.00    -0.266 OA
HETATM    7  N   UNL     1       5.774  29.787  55.838  1.00  0.00    -0.300 N 
HETATM    8  H   UNL     1       5.109  29.719  55.082  1.00  0.00     0.171 HD
ENDROOT
BRANCH   1   9
HETATM    9  S   UNL     1       7.034  28.252  54.234  1.00  0.00    -0.087 SA
BRANCH   9  10
HETATM   10  C   UNL     1       6.026  26.754  54.405  1.00  0.00     0.121 C 
BRANCH  10  11
HETATM   11  C   UNL     1       6.763  25.546  53.861  1.00  0.00    -0.037 A 
HETATM   12  C   UNL     1       7.380  24.572  54.701  1.00  0.00    -0.019 A 
HETATM   13  C   UNL     1       8.070  23.490  54.095  1.00  0.00    -0.025 A 
HETATM   14  C   UNL     1       7.356  24.615  56.116  1.00  0.00     0.013 A 
HETATM   15  C   UNL     1       8.683  22.507  54.892  1.00  0.00     0.012 A 
HETATM   16  C   UNL     1       8.149  23.400  52.699  1.00  0.00     0.012 A 
HETATM   17  C   UNL     1       8.633  22.575  56.282  1.00  0.00     0.001 A 
HETATM   18  C   UNL     1       7.971  23.631  56.894  1.00  0.00     0.001 A 
HETATM   19  C   UNL     1       7.558  24.361  51.886  1.00  0.00     0.001 A 
HETATM   20  C   UNL     1       6.872  25.424  52.461  1.00  0.00     0.009 A 
ENDBRANCH  10  11
ENDBRANCH   9  10
ENDBRANCH   1   9
BRANCH   3  21
HETATM   21  N   UNL     1       8.341  29.321  58.975  1.00  0.00    -0.285 NA
HETATM   22  H   UNL     1       8.036  28.564  59.587  1.00  0.00     0.125 HD
HETATM   23  H   UNL     1       8.391  30.180  59.520  1.00  0.00     0.125 HD
ENDBRANCH   3  21
BRANCH   4  24
HETATM   24  N   UNL     1       6.186  31.063  59.236  1.00  0.00    -0.314 N 
HETATM   25  C   UNL     1       5.952  32.426  59.231  1.00  0.00     0.280 C 
HETATM   26  O   UNL     1       5.871  33.119  58.222  1.00  0.00    -0.265 OA
HETATM   27  H   UNL     1       6.515  30.680  60.115  1.00  0.00     0.169 HD
BRANCH  25  28
HETATM   28  C   UNL     1       5.893  33.008  60.558  1.00  0.00     0.144 A 
HETATM   29  O   UNL     1       6.785  32.608  61.519  1.00  0.00    -0.298 OA
HETATM   30  C   UNL     1       6.526  33.345  62.634  1.00  0.00     0.122 A 
HETATM   31 BR   UNL     1       7.489  33.209  64.225  1.00  0.00    -0.023 Br
HETATM   32  C   UNL     1       5.468  34.196  62.416  1.00  0.00     0.048 A 
HETATM   33  C   UNL     1       5.061  33.982  61.077  1.00  0.00     0.046 A 
ENDBRANCH  25  28
ENDBRANCH   4  24
TORSDOF 6
ENDMDL
MODEL 10
REMARK VINA RESULT:      -9.1      6.461      8.699
REMARK  6 active torsions:
REMARK  status: ('A' for Active; 'I' for Inactive)
REMARK    1  A    between atoms: C_5  and  C_6 
REMARK    2  A    between atoms: C_6  and  S_7 
REMARK    3  A    between atoms: S_7  and  C_8 
REMARK    4  A    between atoms: C_10  and  N_11 
REMARK    5  A    between atoms: C_12  and  N_13 
REMARK       I    between atoms: N_13  and  C_14 
REMARK    6  A    between atoms: C_14  and  C_15 
ROOT
HETATM    1  C   UNL     1       5.532  27.327  52.012  1.00  0.00     0.171 C 
HETATM    2  N   UNL     1       5.809  26.887  50.831  1.00  0.00    -0.210 NA
HETATM    3  C   UNL     1       4.848  27.044  49.856  1.00  0.00     0.136 C 
HETATM    4  C   UNL     1       3.703  27.743  50.059  1.00  0.00     0.144 C 
HETATM    5  C   UNL     1       3.638  28.511  51.336  1.00  0.00     0.277 C 
HETATM    6  O   UNL     1       3.075  29.594  51.455  1.00  0.00    -0.266 OA
HETATM    7  N   UNL     1       4.404  28.002  52.337  1.00  0.00    -0.300 N 
HETATM    8  H   UNL     1       4.391  28.495  53.216  1.00  0.00     0.171 HD
ENDROOT
BRANCH   1   9
HETATM    9  S   UNL     1       6.570  27.153  53.388  1.00  0.00    -0.087 SA
BRANCH   9  10
HETATM   10  C   UNL     1       7.448  25.618  52.984  1.00  0.00     0.121 C 
BRANCH  10  11
HETATM   11  C   UNL     1       7.631  24.763  54.223  1.00  0.00    -0.037 A 
HETATM   12  C   UNL     1       7.777  23.345  54.170  1.00  0.00    -0.019 A 
HETATM   13  C   UNL     1       7.917  22.629  55.388  1.00  0.00    -0.025 A 
HETATM   14  C   UNL     1       7.786  22.592  52.971  1.00  0.00     0.013 A 
HETATM   15  C   UNL     1       8.071  21.232  55.374  1.00  0.00     0.012 A 
HETATM   16  C   UNL     1       7.896  23.313  56.611  1.00  0.00     0.012 A 
HETATM   17  C   UNL     1       8.085  20.523  54.175  1.00  0.00     0.001 A 
HETATM   18  C   UNL     1       7.940  21.203  52.974  1.00  0.00     0.001 A 
HETATM   19  C   UNL     1       7.738  24.694  56.656  1.00  0.00     0.001 A 
HETATM   20  C   UNL     1       7.606  25.412  55.473  1.00  0.00     0.009 A 
ENDBRANCH  10  11
ENDBRANCH   9  10
ENDBRANCH   1   9
BRANCH   3  21
HETATM   21  N   UNL     1       5.076  26.414  48.639  1.00  0.00    -0.285 NA
HETATM   22  H   UNL     1       4.455  26.844  47.953  1.00  0.00     0.125 HD
HETATM   23  H   UNL     1       4.855  25.422  48.702  1.00  0.00     0.125 HD
ENDBRANCH   3  21
BRANCH   4  24
HETATM   24  N   UNL     1       2.686  27.755  49.122  1.00  0.00    -0.314 N 
HETATM   25  C   UNL     1       2.501  28.694  48.124  1.00  0.00     0.280 C 
HETATM   26  O   UNL     1       3.203  29.685  47.957  1.00  0.00    -0.265 OA
HETATM   27  H   UNL     1       1.884  27.166  49.323  1.00  0.00     0.169 HD
BRANCH  25  28
HETATM   28  C   UNL     1       1.322  28.453  47.315  1.00  0.00     0.144 A 
HETATM   29  O   UNL     1       0.427  29.468  47.093  1.00  0.00    -0.298 OA
HETATM   30  C   UNL     1      -0.542  28.973  46.275  1.00  0.00     0.122 A 
HETATM   31 BR   UNL     1      -1.986  29.969  45.641  1.00  0.00    -0.023 Br
HETATM   32  C   UNL     1      -0.299  27.650  45.984  1.00  0.00     0.048 A 
HETATM   33  C   UNL     1       0.903  27.315  46.651  1.00  0.00     0.046 A 
ENDBRANCH  25  28
ENDBRANCH   4  24
TORSDOF 6
ENDMDL
