MODEL 1
REMARK VINA RESULT:      -9.1      0.000      0.000
REMARK  7 active torsions:
REMARK  status: ('A' for Active; 'I' for Inactive)
REMARK    1  A    between atoms: C_2  and  C_3 
REMARK    2  A    between atoms: C_3  and  O_4 
REMARK    3  A    between atoms: O_4  and  C_5 
REMARK    4  A    between atoms: C_8  and  C_9 
REMARK    5  A    between atoms: C_15  and  C_16 
REMARK    6  A    between atoms: C_19  and  N_20 
REMARK       I    between atoms: N_20  and  C_21 
REMARK    7  A    between atoms: C_29  and  N_30 
ROOT
HETATM    1  C   UNL     1       4.786  28.224  54.444  1.00  0.00     0.072 A 
HETATM    2  N   UNL     1       3.610  28.649  55.028  1.00  0.00    -0.274 N 
HETATM    3  H   UNL     1       2.686  28.670  54.609  1.00  0.00     0.189 HD
HETATM    4  N   UNL     1       3.755  29.121  56.286  1.00  0.00    -0.148 NA
HETATM    5  C   UNL     1       5.058  28.983  56.491  1.00  0.00     0.199 A 
HETATM    6  C   UNL     1       5.746  28.400  55.424  1.00  0.00     0.039 A 
HETATM    7  C   UNL     1       7.205  28.141  55.514  1.00  0.00     0.105 C 
HETATM    8  C   UNL     1       7.790  28.846  56.728  1.00  0.00     0.067 C 
HETATM    9  C   UNL     1       9.299  29.026  56.718  1.00  0.00     0.020 C 
HETATM   10  N   UNL     1      10.551  29.176  56.709  1.00  0.00    -0.096 N 
HETATM   11  C   UNL     1       7.030  29.424  57.694  1.00  0.00     0.139 C 
HETATM   12  O   UNL     1       5.626  29.407  57.637  1.00  0.00    -0.277 OA
ENDROOT
BRANCH   7  13
HETATM   13  C   UNL     1       7.345  26.626  55.571  1.00  0.00    -0.044 A 
HETATM   14  C   UNL     1       7.679  25.913  54.409  1.00  0.00     0.010 A 
HETATM   15  C   UNL     1       7.781  24.516  54.421  1.00  0.00     0.030 A 
HETATM   16  C   UNL     1       7.551  23.796  55.593  1.00  0.00     0.034 A 
HETATM   17  C   UNL     1       7.229  24.499  56.759  1.00  0.00     0.030 A 
HETATM   18  C   UNL     1       7.128  25.893  56.751  1.00  0.00     0.010 A 
BRANCH  16  19
HETATM   19  N   UNL     1       7.610  22.391  55.684  1.00  0.00    -0.328 N 
HETATM   20  C   UNL     1       8.681  21.570  55.378  1.00  0.00     0.218 C 
HETATM   21  C   UNL     1       8.348  20.113  55.580  1.00  0.00     0.117 C 
HETATM   22  O   UNL     1       9.796  21.915  55.004  1.00  0.00    -0.274 OA
HETATM   23  H   UNL     1       6.769  21.934  56.009  1.00  0.00     0.169 HD
ENDBRANCH  16  19
ENDBRANCH   7  13
BRANCH  11  24
HETATM   24  N   UNL     1       7.520  30.091  58.793  1.00  0.00    -0.282 NA
HETATM   25  H   UNL     1       8.065  29.536  59.447  1.00  0.00     0.126 HD
HETATM   26  H   UNL     1       6.807  30.662  59.244  1.00  0.00     0.126 HD
ENDBRANCH  11  24
BRANCH   1  27
HETATM   27  C   UNL     1       4.877  27.728  53.079  1.00  0.00    -0.007 A 
HETATM   28  C   UNL     1       4.818  26.351  52.828  1.00  0.00     0.016 A 
HETATM   29  C   UNL     1       4.857  25.859  51.519  1.00  0.00     0.037 A 
HETATM   30  C   UNL     1       4.958  26.739  50.444  1.00  0.00     0.068 A 
HETATM   31  C   UNL     1       5.048  28.110  50.692  1.00  0.00     0.037 A 
HETATM   32  C   UNL     1       5.003  28.606  51.999  1.00  0.00     0.016 A 
BRANCH  30  33
HETATM   33  O   UNL     1       4.993  26.384  49.124  1.00  0.00    -0.351 OA
BRANCH  33  34
HETATM   34  C   UNL     1       4.154  27.135  48.241  1.00  0.00     0.175 C 
BRANCH  34  35
HETATM   35  C   UNL     1       3.452  26.152  47.310  1.00  0.00     0.022 C 
HETATM   36  C   UNL     1       3.046  24.881  48.036  1.00  0.00     0.007 C 
ENDBRANCH  34  35
ENDBRANCH  33  34
ENDBRANCH  30  33
ENDBRANCH   1  27
TORSDOF 7
ENDMDL
MODEL 2
REMARK VINA RESULT:      -8.3      3.845      7.144
REMARK  7 active torsions:
REMARK  status: ('A' for Active; 'I' for Inactive)
REMARK    1  A    between atoms: C_2  and  C_3 
REMARK    2  A    between atoms: C_3  and  O_4 
REMARK    3  A    between atoms: O_4  and  C_5 
REMARK    4  A    between atoms: C_8  and  C_9 
REMARK    5  A    between atoms: C_15  and  C_16 
REMARK    6  A    between atoms: C_19  and  N_20 
REMARK       I    between atoms: N_20  and  C_21 
REMARK    7  A    between atoms: C_29  and  N_30 
ROOT
HETATM    1  C   UNL     1       9.119  29.059  56.755  1.00  0.00     0.072 A 
HETATM    2  N   UNL     1      10.244  29.507  56.094  1.00  0.00    -0.274 N 
HETATM    3  H   UNL     1      10.678  29.103  55.270  1.00  0.00     0.189 HD
HETATM    4  N   UNL     1      10.829  30.585  56.664  1.00  0.00    -0.148 NA
HETATM    5  C   UNL     1      10.044  30.813  57.708  1.00  0.00     0.199 A 
HETATM    6  C   UNL     1       8.952  29.946  57.803  1.00  0.00     0.039 A 
HETATM    7  C   UNL     1       7.957  30.098  58.894  1.00  0.00     0.105 C 
HETATM    8  C   UNL     1       8.475  31.065  59.946  1.00  0.00     0.067 C 
HETATM    9  C   UNL     1       7.780  30.999  61.297  1.00  0.00     0.020 C 
HETATM   10  N   UNL     1       7.205  30.943  62.418  1.00  0.00    -0.096 N 
HETATM   11  C   UNL     1       9.579  31.837  59.773  1.00  0.00     0.139 C 
HETATM   12  O   UNL     1      10.330  31.794  58.586  1.00  0.00    -0.277 OA
ENDROOT
BRANCH   7  13
HETATM   13  C   UNL     1       6.680  30.572  58.215  1.00  0.00    -0.044 A 
HETATM   14  C   UNL     1       5.781  29.632  57.688  1.00  0.00     0.010 A 
HETATM   15  C   UNL     1       4.614  30.036  57.026  1.00  0.00     0.030 A 
HETATM   16  C   UNL     1       4.316  31.390  56.875  1.00  0.00     0.034 A 
HETATM   17  C   UNL     1       5.200  32.335  57.407  1.00  0.00     0.030 A 
HETATM   18  C   UNL     1       6.365  31.934  58.069  1.00  0.00     0.010 A 
BRANCH  16  19
HETATM   19  N   UNL     1       3.178  31.881  56.204  1.00  0.00    -0.328 N 
HETATM   20  C   UNL     1       3.106  32.367  54.911  1.00  0.00     0.218 C 
HETATM   21  C   UNL     1       1.713  32.827  54.560  1.00  0.00     0.117 C 
HETATM   22  O   UNL     1       4.014  32.428  54.090  1.00  0.00    -0.274 OA
HETATM   23  H   UNL     1       2.317  31.878  56.734  1.00  0.00     0.169 HD
ENDBRANCH  16  19
ENDBRANCH   7  13
BRANCH  11  24
HETATM   24  N   UNL     1      10.093  32.706  60.708  1.00  0.00    -0.282 NA
HETATM   25  H   UNL     1      10.738  32.304  61.383  1.00  0.00     0.126 HD
HETATM   26  H   UNL     1       9.370  33.283  61.134  1.00  0.00     0.126 HD
ENDBRANCH  11  24
BRANCH   1  27
HETATM   27  C   UNL     1       8.360  27.884  56.353  1.00  0.00    -0.007 A 
HETATM   28  C   UNL     1       7.674  27.877  55.131  1.00  0.00     0.016 A 
HETATM   29  C   UNL     1       6.978  26.741  54.706  1.00  0.00     0.037 A 
HETATM   30  C   UNL     1       6.958  25.596  55.501  1.00  0.00     0.068 A 
HETATM   31  C   UNL     1       7.615  25.610  56.733  1.00  0.00     0.037 A 
HETATM   32  C   UNL     1       8.317  26.742  57.158  1.00  0.00     0.016 A 
BRANCH  30  33
HETATM   33  O   UNL     1       6.327  24.423  55.192  1.00  0.00    -0.351 OA
BRANCH  33  34
HETATM   34  C   UNL     1       7.164  23.277  55.018  1.00  0.00     0.175 C 
BRANCH  34  35
HETATM   35  C   UNL     1       7.555  23.199  53.545  1.00  0.00     0.022 C 
HETATM   36  C   UNL     1       7.927  21.785  53.136  1.00  0.00     0.007 C 
ENDBRANCH  34  35
ENDBRANCH  33  34
ENDBRANCH  30  33
ENDBRANCH   1  27
TORSDOF 7
ENDMDL
MODEL 3
REMARK VINA RESULT:      -8.0      3.036      7.516
REMARK  7 active torsions:
REMARK  status: ('A' for Active; 'I' for Inactive)
REMARK    1  A    between atoms: C_2  and  C_3 
REMARK    2  A    between atoms: C_3  and  O_4 
REMARK    3  A    between atoms: O_4  and  C_5 
REMARK    4  A    between atoms: C_8  and  C_9 
REMARK    5  A    between atoms: C_15  and  C_16 
REMARK    6  A    between atoms: C_19  and  N_20 
REMARK       I    between atoms: N_20  and  C_21 
REMARK    7  A    between atoms: C_29  and  N_30 
ROOT
HETATM    1  C   UNL     1       4.887  26.110  50.573  1.00  0.00     0.072 A 
HETATM    2  N   UNL     1       3.953  25.408  49.838  1.00  0.00    -0.274 N 
HETATM    3  H   UNL     1       3.761  24.412  49.875  1.00  0.00     0.189 HD
HETATM    4  N   UNL     1       3.266  26.161  48.951  1.00  0.00    -0.148 NA
HETATM    5  C   UNL     1       3.786  27.367  49.142  1.00  0.00     0.199 A 
HETATM    6  C   UNL     1       4.752  27.420  50.149  1.00  0.00     0.039 A 
HETATM    7  C   UNL     1       5.400  28.706  50.510  1.00  0.00     0.105 C 
HETATM    8  C   UNL     1       5.074  29.768  49.472  1.00  0.00     0.067 C 
HETATM    9  C   UNL     1       5.985  30.985  49.471  1.00  0.00     0.020 C 
HETATM   10  N   UNL     1       6.741  31.994  49.470  1.00  0.00    -0.096 N 
HETATM   11  C   UNL     1       4.142  29.601  48.499  1.00  0.00     0.139 C 
HETATM   12  O   UNL     1       3.399  28.413  48.386  1.00  0.00    -0.277 OA
ENDROOT
BRANCH   7  13
HETATM   13  C   UNL     1       4.881  29.043  51.902  1.00  0.00    -0.044 A 
HETATM   14  C   UNL     1       3.739  29.845  52.044  1.00  0.00     0.010 A 
HETATM   15  C   UNL     1       3.257  30.202  53.310  1.00  0.00     0.030 A 
HETATM   16  C   UNL     1       3.904  29.766  54.466  1.00  0.00     0.034 A 
HETATM   17  C   UNL     1       5.037  28.956  54.334  1.00  0.00     0.030 A 
HETATM   18  C   UNL     1       5.520  28.597  53.072  1.00  0.00     0.010 A 
BRANCH  16  19
HETATM   19  N   UNL     1       3.499  30.097  55.775  1.00  0.00    -0.328 N 
HETATM   20  C   UNL     1       4.150  30.920  56.675  1.00  0.00     0.218 C 
HETATM   21  C   UNL     1       3.415  31.007  57.990  1.00  0.00     0.117 C 
HETATM   22  O   UNL     1       5.186  31.547  56.491  1.00  0.00    -0.274 OA
HETATM   23  H   UNL     1       2.632  29.680  56.087  1.00  0.00     0.169 HD
ENDBRANCH  16  19
ENDBRANCH   7  13
BRANCH  11  24
HETATM   24  N   UNL     1       3.836  30.526  47.528  1.00  0.00    -0.282 NA
HETATM   25  H   UNL     1       4.624  31.008  47.106  1.00  0.00     0.126 HD
HETATM   26  H   UNL     1       3.086  31.152  47.818  1.00  0.00     0.126 HD
ENDBRANCH  11  24
BRANCH   1  27
HETATM   27  C   UNL     1       5.777  25.496  51.546  1.00  0.00    -0.007 A 
HETATM   28  C   UNL     1       7.162  25.513  51.339  1.00  0.00     0.016 A 
HETATM   29  C   UNL     1       8.036  24.971  52.287  1.00  0.00     0.037 A 
HETATM   30  C   UNL     1       7.534  24.401  53.455  1.00  0.00     0.068 A 
HETATM   31  C   UNL     1       6.152  24.354  53.651  1.00  0.00     0.037 A 
HETATM   32  C   UNL     1       5.276  24.902  52.708  1.00  0.00     0.016 A 
BRANCH  30  33
HETATM   33  O   UNL     1       8.282  23.851  54.459  1.00  0.00    -0.351 OA
BRANCH  33  34
HETATM   34  C   UNL     1       8.017  22.481  54.772  1.00  0.00     0.175 C 
BRANCH  34  35
HETATM   35  C   UNL     1       8.847  21.613  53.831  1.00  0.00     0.022 C 
HETATM   36  C   UNL     1       7.977  20.655  53.036  1.00  0.00     0.007 C 
ENDBRANCH  34  35
ENDBRANCH  33  34
ENDBRANCH  30  33
ENDBRANCH   1  27
TORSDOF 7
ENDMDL
MODEL 4
REMARK VINA RESULT:      -7.8      2.637      6.502
REMARK  7 active torsions:
REMARK  status: ('A' for Active; 'I' for Inactive)
REMARK    1  A    between atoms: C_2  and  C_3 
REMARK    2  A    between atoms: C_3  and  O_4 
REMARK    3  A    between atoms: O_4  and  C_5 
REMARK    4  A    between atoms: C_8  and  C_9 
REMARK    5  A    between atoms: C_15  and  C_16 
REMARK    6  A    between atoms: C_19  and  N_20 
REMARK       I    between atoms: N_20  and  C_21 
REMARK    7  A    between atoms: C_29  and  N_30 
ROOT
HETATM    1  C   UNL     1       7.911  28.401  56.828  1.00  0.00     0.072 A 
HETATM    2  N   UNL     1       9.176  28.950  56.816  1.00  0.00    -0.274 N 
HETATM    3  H   UNL     1      10.041  28.500  56.535  1.00  0.00     0.189 HD
HETATM    4  N   UNL     1       9.234  30.219  57.278  1.00  0.00    -0.148 NA
HETATM    5  C   UNL     1       7.967  30.466  57.584  1.00  0.00     0.199 A 
HETATM    6  C   UNL     1       7.094  29.415  57.294  1.00  0.00     0.039 A 
HETATM    7  C   UNL     1       5.636  29.551  57.541  1.00  0.00     0.105 C 
HETATM    8  C   UNL     1       5.358  30.794  58.372  1.00  0.00     0.067 C 
HETATM    9  C   UNL     1       3.999  30.838  59.051  1.00  0.00     0.020 C 
HETATM   10  N   UNL     1       2.871  30.874  59.615  1.00  0.00    -0.096 N 
HETATM   11  C   UNL     1       6.294  31.741  58.635  1.00  0.00     0.139 C 
HETATM   12  O   UNL     1       7.608  31.637  58.146  1.00  0.00    -0.277 OA
ENDROOT
BRANCH   7  13
HETATM   13  C   UNL     1       4.994  29.591  56.161  1.00  0.00    -0.044 A 
HETATM   14  C   UNL     1       4.910  30.808  55.467  1.00  0.00     0.010 A 
HETATM   15  C   UNL     1       4.294  30.885  54.210  1.00  0.00     0.030 A 
HETATM   16  C   UNL     1       3.748  29.748  53.616  1.00  0.00     0.034 A 
HETATM   17  C   UNL     1       3.837  28.528  54.295  1.00  0.00     0.030 A 
HETATM   18  C   UNL     1       4.452  28.448  55.549  1.00  0.00     0.010 A 
BRANCH  16  19
HETATM   19  N   UNL     1       3.092  29.742  52.368  1.00  0.00    -0.328 N 
HETATM   20  C   UNL     1       3.621  29.390  51.140  1.00  0.00     0.218 C 
HETATM   21  C   UNL     1       2.612  29.541  50.029  1.00  0.00     0.117 C 
HETATM   22  O   UNL     1       4.752  28.979  50.910  1.00  0.00    -0.274 OA
HETATM   23  H   UNL     1       2.124  30.034  52.378  1.00  0.00     0.169 HD
ENDBRANCH  16  19
ENDBRANCH   7  13
BRANCH  11  24
HETATM   24  N   UNL     1       6.090  32.866  59.401  1.00  0.00    -0.282 NA
HETATM   25  H   UNL     1       5.991  33.741  58.892  1.00  0.00     0.126 HD
HETATM   26  H   UNL     1       6.743  32.923  60.180  1.00  0.00     0.126 HD
ENDBRANCH  11  24
BRANCH   1  27
HETATM   27  C   UNL     1       7.619  27.033  56.426  1.00  0.00    -0.007 A 
HETATM   28  C   UNL     1       7.409  26.728  55.075  1.00  0.00     0.016 A 
HETATM   29  C   UNL     1       7.175  25.412  54.664  1.00  0.00     0.037 A 
HETATM   30  C   UNL     1       7.145  24.382  55.603  1.00  0.00     0.068 A 
HETATM   31  C   UNL     1       7.324  24.686  56.954  1.00  0.00     0.037 A 
HETATM   32  C   UNL     1       7.565  26.000  57.367  1.00  0.00     0.016 A 
BRANCH  30  33
HETATM   33  O   UNL     1       6.939  23.059  55.327  1.00  0.00    -0.351 OA
BRANCH  33  34
HETATM   34  C   UNL     1       8.084  22.310  54.911  1.00  0.00     0.175 C 
BRANCH  34  35
HETATM   35  C   UNL     1       7.962  22.056  53.412  1.00  0.00     0.022 C 
HETATM   36  C   UNL     1       7.950  20.572  53.091  1.00  0.00     0.007 C 
ENDBRANCH  34  35
ENDBRANCH  33  34
ENDBRANCH  30  33
ENDBRANCH   1  27
TORSDOF 7
ENDMDL
MODEL 5
REMARK VINA RESULT:      -7.7      7.614     12.167
REMARK  7 active torsions:
REMARK  status: ('A' for Active; 'I' for Inactive)
REMARK    1  A    between atoms: C_2  and  C_3 
REMARK    2  A    between atoms: C_3  and  O_4 
REMARK    3  A    between atoms: O_4  and  C_5 
REMARK    4  A    between atoms: C_8  and  C_9 
REMARK    5  A    between atoms: C_15  and  C_16 
REMARK    6  A    between atoms: C_19  and  N_20 
REMARK       I    between atoms: N_20  and  C_21 
REMARK    7  A    between atoms: C_29  and  N_30 
ROOT
HETATM    1  C   UNL     1       6.292  32.682  61.997  1.00  0.00     0.072 A 
HETATM    2  N   UNL     1       7.549  32.125  62.115  1.00  0.00    -0.274 N 
HETATM    3  H   UNL     1       8.038  31.556  61.432  1.00  0.00     0.189 HD
HETATM    4  N   UNL     1       8.145  32.351  63.307  1.00  0.00    -0.148 NA
HETATM    5  C   UNL     1       7.233  33.072  63.946  1.00  0.00     0.199 A 
HETATM    6  C   UNL     1       6.092  33.350  63.191  1.00  0.00     0.039 A 
HETATM    7  C   UNL     1       4.996  34.181  63.752  1.00  0.00     0.105 C 
HETATM    8  C   UNL     1       5.197  34.375  65.246  1.00  0.00     0.067 C 
HETATM    9  C   UNL     1       3.969  34.828  66.020  1.00  0.00     0.020 C 
HETATM   10  N   UNL     1       2.950  35.203  66.661  1.00  0.00    -0.096 N 
HETATM   11  C   UNL     1       6.336  34.028  65.898  1.00  0.00     0.139 C 
HETATM   12  O   UNL     1       7.428  33.457  65.223  1.00  0.00    -0.277 OA
ENDROOT
BRANCH   7  13
HETATM   13  C   UNL     1       5.031  35.483  62.964  1.00  0.00    -0.044 A 
HETATM   14  C   UNL     1       5.940  36.491  63.322  1.00  0.00     0.010 A 
HETATM   15  C   UNL     1       5.974  37.713  62.639  1.00  0.00     0.030 A 
HETATM   16  C   UNL     1       5.101  37.960  61.580  1.00  0.00     0.034 A 
HETATM   17  C   UNL     1       4.199  36.957  61.207  1.00  0.00     0.030 A 
HETATM   18  C   UNL     1       4.164  35.735  61.887  1.00  0.00     0.010 A 
BRANCH  16  19
HETATM   19  N   UNL     1       5.053  39.168  60.857  1.00  0.00    -0.328 N 
HETATM   20  C   UNL     1       6.019  39.682  60.010  1.00  0.00     0.218 C 
HETATM   21  C   UNL     1       5.613  41.019  59.440  1.00  0.00     0.117 C 
HETATM   22  O   UNL     1       7.085  39.163  59.700  1.00  0.00    -0.274 OA
HETATM   23  H   UNL     1       4.215  39.722  60.976  1.00  0.00     0.169 HD
ENDBRANCH  16  19
ENDBRANCH   7  13
BRANCH  11  24
HETATM   24  N   UNL     1       6.548  34.165  67.251  1.00  0.00    -0.282 NA
HETATM   25  H   UNL     1       5.719  34.139  67.838  1.00  0.00     0.126 HD
HETATM   26  H   UNL     1       7.171  34.942  67.465  1.00  0.00     0.126 HD
ENDBRANCH  11  24
BRANCH   1  27
HETATM   27  C   UNL     1       5.444  32.523  60.825  1.00  0.00    -0.007 A 
HETATM   28  C   UNL     1       5.971  32.733  59.544  1.00  0.00     0.016 A 
HETATM   29  C   UNL     1       5.185  32.539  58.404  1.00  0.00     0.037 A 
HETATM   30  C   UNL     1       3.858  32.133  58.531  1.00  0.00     0.068 A 
HETATM   31  C   UNL     1       3.320  31.951  59.807  1.00  0.00     0.037 A 
HETATM   32  C   UNL     1       4.106  32.139  60.949  1.00  0.00     0.016 A 
BRANCH  30  33
HETATM   33  O   UNL     1       2.994  31.898  57.498  1.00  0.00    -0.351 OA
BRANCH  33  34
HETATM   34  C   UNL     1       3.557  31.322  56.316  1.00  0.00     0.175 C 
BRANCH  34  35
HETATM   35  C   UNL     1       3.583  29.808  56.497  1.00  0.00     0.022 C 
HETATM   36  C   UNL     1       4.982  29.244  56.314  1.00  0.00     0.007 C 
ENDBRANCH  34  35
ENDBRANCH  33  34
ENDBRANCH  30  33
ENDBRANCH   1  27
TORSDOF 7
ENDMDL
MODEL 6
REMARK VINA RESULT:      -7.6      3.871      7.759
REMARK  7 active torsions:
REMARK  status: ('A' for Active; 'I' for Inactive)
REMARK    1  A    between atoms: C_2  and  C_3 
REMARK    2  A    between atoms: C_3  and  O_4 
REMARK    3  A    between atoms: O_4  and  C_5 
REMARK    4  A    between atoms: C_8  and  C_9 
REMARK    5  A    between atoms: C_15  and  C_16 
REMARK    6  A    between atoms: C_19  and  N_20 
REMARK       I    between atoms: N_20  and  C_21 
REMARK    7  A    between atoms: C_29  and  N_30 
ROOT
HETATM    1  C   UNL     1       8.606  30.453  58.012  1.00  0.00     0.072 A 
HETATM    2  N   UNL     1       9.872  31.000  58.062  1.00  0.00    -0.274 N 
HETATM    3  H   UNL     1      10.700  30.684  57.568  1.00  0.00     0.189 HD
HETATM    4  N   UNL     1       9.988  32.050  58.905  1.00  0.00    -0.148 NA
HETATM    5  C   UNL     1       8.759  32.159  59.392  1.00  0.00     0.199 A 
HETATM    6  C   UNL     1       7.850  31.243  58.859  1.00  0.00     0.039 A 
HETATM    7  C   UNL     1       6.424  31.262  59.273  1.00  0.00     0.105 C 
HETATM    8  C   UNL     1       6.241  32.160  60.486  1.00  0.00     0.067 C 
HETATM    9  C   UNL     1       4.954  31.953  61.267  1.00  0.00     0.020 C 
HETATM   10  N   UNL     1       3.886  31.781  61.915  1.00  0.00    -0.096 N 
HETATM   11  C   UNL     1       7.210  32.988  60.955  1.00  0.00     0.139 C 
HETATM   12  O   UNL     1       8.469  33.075  60.338  1.00  0.00    -0.277 OA
ENDROOT
BRANCH   7  13
HETATM   13  C   UNL     1       5.653  31.738  58.048  1.00  0.00    -0.044 A 
HETATM   14  C   UNL     1       5.385  33.105  57.882  1.00  0.00     0.010 A 
HETATM   15  C   UNL     1       4.649  33.571  56.784  1.00  0.00     0.030 A 
HETATM   16  C   UNL     1       4.164  32.682  55.825  1.00  0.00     0.034 A 
HETATM   17  C   UNL     1       4.437  31.318  55.976  1.00  0.00     0.030 A 
HETATM   18  C   UNL     1       5.172  30.851  57.070  1.00  0.00     0.010 A 
BRANCH  16  19
HETATM   19  N   UNL     1       3.397  33.065  54.706  1.00  0.00    -0.328 N 
HETATM   20  C   UNL     1       2.023  33.004  54.565  1.00  0.00     0.218 C 
HETATM   21  C   UNL     1       1.576  33.479  53.205  1.00  0.00     0.117 C 
HETATM   22  O   UNL     1       1.207  32.639  55.404  1.00  0.00    -0.274 OA
HETATM   23  H   UNL     1       3.918  33.422  53.916  1.00  0.00     0.169 HD
ENDBRANCH  16  19
ENDBRANCH   7  13
BRANCH  11  24
HETATM   24  N   UNL     1       7.093  33.797  62.062  1.00  0.00    -0.282 NA
HETATM   25  H   UNL     1       7.838  33.723  62.750  1.00  0.00     0.126 HD
HETATM   26  H   UNL     1       6.160  33.757  62.470  1.00  0.00     0.126 HD
ENDBRANCH  11  24
BRANCH   1  27
HETATM   27  C   UNL     1       8.261  29.285  57.215  1.00  0.00    -0.007 A 
HETATM   28  C   UNL     1       7.824  28.111  57.843  1.00  0.00     0.016 A 
HETATM   29  C   UNL     1       7.443  26.995  57.091  1.00  0.00     0.037 A 
HETATM   30  C   UNL     1       7.497  27.039  55.699  1.00  0.00     0.068 A 
HETATM   31  C   UNL     1       7.960  28.196  55.071  1.00  0.00     0.037 A 
HETATM   32  C   UNL     1       8.336  29.316  55.819  1.00  0.00     0.016 A 
BRANCH  30  33
HETATM   33  O   UNL     1       7.141  26.023  54.856  1.00  0.00    -0.351 OA
BRANCH  33  34
HETATM   34  C   UNL     1       7.065  26.347  53.465  1.00  0.00     0.175 C 
BRANCH  34  35
HETATM   35  C   UNL     1       7.878  25.312  52.694  1.00  0.00     0.022 C 
HETATM   36  C   UNL     1       7.865  23.959  53.385  1.00  0.00     0.007 C 
ENDBRANCH  34  35
ENDBRANCH  33  34
ENDBRANCH  30  33
ENDBRANCH   1  27
TORSDOF 7
ENDMDL
MODEL 7
REMARK VINA RESULT:      -7.0      4.481      9.126
REMARK  7 active torsions:
REMARK  status: ('A' for Active; 'I' for Inactive)
REMARK    1  A    between atoms: C_2  and  C_3 
REMARK    2  A    between atoms: C_3  and  O_4 
REMARK    3  A    between atoms: O_4  and  C_5 
REMARK    4  A    between atoms: C_8  and  C_9 
REMARK    5  A    between atoms: C_15  and  C_16 
REMARK    6  A    between atoms: C_19  and  N_20 
REMARK       I    between atoms: N_20  and  C_21 
REMARK    7  A    between atoms: C_29  and  N_30 
ROOT
HETATM    1  C   UNL     1       3.343  27.790  49.230  1.00  0.00     0.072 A 
HETATM    2  N   UNL     1       2.283  27.014  48.809  1.00  0.00    -0.274 N 
HETATM    3  H   UNL     1       1.998  26.110  49.172  1.00  0.00     0.189 HD
HETATM    4  N   UNL     1       1.596  27.533  47.767  1.00  0.00    -0.148 NA
HETATM    5  C   UNL     1       2.247  28.665  47.535  1.00  0.00     0.199 A 
HETATM    6  C   UNL     1       3.300  28.909  48.419  1.00  0.00     0.039 A 
HETATM    7  C   UNL     1       4.102  30.156  48.316  1.00  0.00     0.105 C 
HETATM    8  C   UNL     1       3.791  30.874  47.013  1.00  0.00     0.067 C 
HETATM    9  C   UNL     1       4.813  31.910  46.575  1.00  0.00     0.020 C 
HETATM   10  N   UNL     1       5.662  32.769  46.212  1.00  0.00    -0.096 N 
HETATM   11  C   UNL     1       2.763  30.527  46.196  1.00  0.00     0.139 C 
HETATM   12  O   UNL     1       1.899  29.464  46.507  1.00  0.00    -0.277 OA
ENDROOT
BRANCH   7  13
HETATM   13  C   UNL     1       3.746  30.969  49.554  1.00  0.00    -0.044 A 
HETATM   14  C   UNL     1       4.766  31.455  50.385  1.00  0.00     0.010 A 
HETATM   15  C   UNL     1       4.471  32.176  51.549  1.00  0.00     0.030 A 
HETATM   16  C   UNL     1       3.149  32.431  51.911  1.00  0.00     0.034 A 
HETATM   17  C   UNL     1       2.125  31.960  51.082  1.00  0.00     0.030 A 
HETATM   18  C   UNL     1       2.416  31.241  49.919  1.00  0.00     0.010 A 
BRANCH  16  19
HETATM   19  N   UNL     1       2.766  33.127  53.075  1.00  0.00    -0.328 N 
HETATM   20  C   UNL     1       2.570  32.609  54.342  1.00  0.00     0.218 C 
HETATM   21  C   UNL     1       2.136  33.669  55.323  1.00  0.00     0.117 C 
HETATM   22  O   UNL     1       2.730  31.447  54.700  1.00  0.00    -0.274 OA
HETATM   23  H   UNL     1       2.615  34.121  52.965  1.00  0.00     0.169 HD
ENDBRANCH  16  19
ENDBRANCH   7  13
BRANCH  11  24
HETATM   24  N   UNL     1       2.463  31.135  44.998  1.00  0.00    -0.282 NA
HETATM   25  H   UNL     1       1.591  30.853  44.560  1.00  0.00     0.126 HD
HETATM   26  H   UNL     1       3.256  31.134  44.359  1.00  0.00     0.126 HD
ENDBRANCH  11  24
BRANCH   1  27
HETATM   27  C   UNL     1       4.252  27.405  50.300  1.00  0.00    -0.007 A 
HETATM   28  C   UNL     1       4.286  28.143  51.490  1.00  0.00     0.016 A 
HETATM   29  C   UNL     1       5.119  27.760  52.547  1.00  0.00     0.037 A 
HETATM   30  C   UNL     1       5.930  26.634  52.425  1.00  0.00     0.068 A 
HETATM   31  C   UNL     1       5.922  25.914  51.229  1.00  0.00     0.037 A 
HETATM   32  C   UNL     1       5.085  26.290  50.172  1.00  0.00     0.016 A 
BRANCH  30  33
HETATM   33  O   UNL     1       6.775  26.153  53.386  1.00  0.00    -0.351 OA
BRANCH  33  34
HETATM   34  C   UNL     1       7.799  25.259  52.943  1.00  0.00     0.175 C 
BRANCH  34  35
HETATM   35  C   UNL     1       7.737  24.004  53.808  1.00  0.00     0.022 C 
HETATM   36  C   UNL     1       7.861  22.740  52.975  1.00  0.00     0.007 C 
ENDBRANCH  34  35
ENDBRANCH  33  34
ENDBRANCH  30  33
ENDBRANCH   1  27
TORSDOF 7
ENDMDL
MODEL 8
REMARK VINA RESULT:      -6.9      4.130      8.017
REMARK  7 active torsions:
REMARK  status: ('A' for Active; 'I' for Inactive)
REMARK    1  A    between atoms: C_2  and  C_3 
REMARK    2  A    between atoms: C_3  and  O_4 
REMARK    3  A    between atoms: O_4  and  C_5 
REMARK    4  A    between atoms: C_8  and  C_9 
REMARK    5  A    between atoms: C_15  and  C_16 
REMARK    6  A    between atoms: C_19  and  N_20 
REMARK       I    between atoms: N_20  and  C_21 
REMARK    7  A    between atoms: C_29  and  N_30 
ROOT
HETATM    1  C   UNL     1       4.388  27.154  50.137  1.00  0.00     0.072 A 
HETATM    2  N   UNL     1       5.347  26.181  50.326  1.00  0.00    -0.274 N 
HETATM    3  H   UNL     1       5.509  25.356  49.758  1.00  0.00     0.189 HD
HETATM    4  N   UNL     1       6.111  26.362  51.427  1.00  0.00    -0.148 NA
HETATM    5  C   UNL     1       5.613  27.482  51.935  1.00  0.00     0.199 A 
HETATM    6  C   UNL     1       4.585  28.046  51.176  1.00  0.00     0.039 A 
HETATM    7  C   UNL     1       3.951  29.323  51.591  1.00  0.00     0.105 C 
HETATM    8  C   UNL     1       4.371  29.683  53.007  1.00  0.00     0.067 C 
HETATM    9  C   UNL     1       3.496  30.707  53.711  1.00  0.00     0.020 C 
HETATM   10  N   UNL     1       2.769  31.556  54.295  1.00  0.00    -0.096 N 
HETATM   11  C   UNL     1       5.360  29.039  53.679  1.00  0.00     0.139 C 
HETATM   12  O   UNL     1       6.076  27.978  53.099  1.00  0.00    -0.277 OA
ENDROOT
BRANCH   7  13
HETATM   13  C   UNL     1       4.387  30.348  50.553  1.00  0.00    -0.044 A 
HETATM   14  C   UNL     1       3.420  31.096  49.863  1.00  0.00     0.010 A 
HETATM   15  C   UNL     1       3.788  32.021  48.878  1.00  0.00     0.030 A 
HETATM   16  C   UNL     1       5.130  32.223  48.557  1.00  0.00     0.034 A 
HETATM   17  C   UNL     1       6.101  31.491  49.248  1.00  0.00     0.030 A 
HETATM   18  C   UNL     1       5.738  30.567  50.232  1.00  0.00     0.010 A 
BRANCH  16  19
HETATM   19  N   UNL     1       5.582  33.116  47.565  1.00  0.00    -0.328 N 
HETATM   20  C   UNL     1       5.679  32.886  46.204  1.00  0.00     0.218 C 
HETATM   21  C   UNL     1       6.236  34.080  45.470  1.00  0.00     0.117 C 
HETATM   22  O   UNL     1       5.354  31.871  45.599  1.00  0.00    -0.274 OA
HETATM   23  H   UNL     1       5.870  34.029  47.891  1.00  0.00     0.169 HD
ENDBRANCH  16  19
ENDBRANCH   7  13
BRANCH  11  24
HETATM   24  N   UNL     1       5.753  29.317  54.968  1.00  0.00    -0.282 NA
HETATM   25  H   UNL     1       5.256  30.071  55.433  1.00  0.00     0.126 HD
HETATM   26  H   UNL     1       6.766  29.388  55.053  1.00  0.00     0.126 HD
ENDBRANCH  11  24
BRANCH   1  27
HETATM   27  C   UNL     1       3.420  27.135  49.051  1.00  0.00    -0.007 A 
HETATM   28  C   UNL     1       3.636  26.317  47.934  1.00  0.00     0.016 A 
HETATM   29  C   UNL     1       2.695  26.250  46.902  1.00  0.00     0.037 A 
HETATM   30  C   UNL     1       1.524  27.003  46.973  1.00  0.00     0.068 A 
HETATM   31  C   UNL     1       1.320  27.842  48.070  1.00  0.00     0.037 A 
HETATM   32  C   UNL     1       2.256  27.907  49.107  1.00  0.00     0.016 A 
BRANCH  30  33
HETATM   33  O   UNL     1       0.526  27.014  46.039  1.00  0.00    -0.351 OA
BRANCH  33  34
HETATM   34  C   UNL     1      -0.616  27.820  46.339  1.00  0.00     0.175 C 
BRANCH  34  35
HETATM   35  C   UNL     1      -0.821  28.796  45.185  1.00  0.00     0.022 C 
HETATM   36  C   UNL     1      -0.336  30.192  45.536  1.00  0.00     0.007 C 
ENDBRANCH  34  35
ENDBRANCH  33  34
ENDBRANCH  30  33
ENDBRANCH   1  27
TORSDOF 7
ENDMDL
MODEL 9
REMARK VINA RESULT:      -6.6      4.971      8.555
REMARK  7 active torsions:
REMARK  status: ('A' for Active; 'I' for Inactive)
REMARK    1  A    between atoms: C_2  and  C_3 
REMARK    2  A    between atoms: C_3  and  O_4 
REMARK    3  A    between atoms: O_4  and  C_5 
REMARK    4  A    between atoms: C_8  and  C_9 
REMARK    5  A    between atoms: C_15  and  C_16 
REMARK    6  A    between atoms: C_19  and  N_20 
REMARK       I    between atoms: N_20  and  C_21 
REMARK    7  A    between atoms: C_29  and  N_30 
ROOT
HETATM    1  C   UNL     1       4.470  31.585  50.692  1.00  0.00     0.072 A 
HETATM    2  N   UNL     1       3.872  32.395  51.636  1.00  0.00    -0.274 N 
HETATM    3  H   UNL     1       3.737  33.399  51.591  1.00  0.00     0.189 HD
HETATM    4  N   UNL     1       3.471  31.742  52.751  1.00  0.00    -0.148 NA
HETATM    5  C   UNL     1       3.828  30.492  52.490  1.00  0.00     0.199 A 
HETATM    6  C   UNL     1       4.405  30.313  51.230  1.00  0.00     0.039 A 
HETATM    7  C   UNL     1       4.822  28.963  50.773  1.00  0.00     0.105 C 
HETATM    8  C   UNL     1       4.794  27.983  51.935  1.00  0.00     0.067 C 
HETATM    9  C   UNL     1       5.581  26.699  51.729  1.00  0.00     0.020 C 
HETATM   10  N   UNL     1       6.235  25.634  51.558  1.00  0.00    -0.096 N 
HETATM   11  C   UNL     1       4.244  28.271  53.142  1.00  0.00     0.139 C 
HETATM   12  O   UNL     1       3.650  29.518  53.404  1.00  0.00    -0.277 OA
ENDROOT
BRANCH   7  13
HETATM   13  C   UNL     1       3.856  28.600  49.653  1.00  0.00    -0.044 A 
HETATM   14  C   UNL     1       2.475  28.591  49.899  1.00  0.00     0.010 A 
HETATM   15  C   UNL     1       1.563  28.228  48.900  1.00  0.00     0.030 A 
HETATM   16  C   UNL     1       2.008  27.865  47.629  1.00  0.00     0.034 A 
HETATM   17  C   UNL     1       3.383  27.882  47.370  1.00  0.00     0.030 A 
HETATM   18  C   UNL     1       4.296  28.245  48.366  1.00  0.00     0.010 A 
BRANCH  16  19
HETATM   19  N   UNL     1       1.160  27.465  46.576  1.00  0.00    -0.328 N 
HETATM   20  C   UNL     1       0.107  28.173  46.027  1.00  0.00     0.218 C 
HETATM   21  C   UNL     1      -0.581  27.398  44.931  1.00  0.00     0.117 C 
HETATM   22  O   UNL     1      -0.265  29.301  46.329  1.00  0.00    -0.274 OA
HETATM   23  H   UNL     1       1.347  26.553  46.182  1.00  0.00     0.169 HD
ENDBRANCH  16  19
ENDBRANCH   7  13
BRANCH  11  24
HETATM   24  N   UNL     1       4.220  27.422  54.225  1.00  0.00    -0.282 NA
HETATM   25  H   UNL     1       5.003  27.497  54.868  1.00  0.00     0.126 HD
HETATM   26  H   UNL     1       4.008  26.463  53.955  1.00  0.00     0.126 HD
ENDBRANCH  11  24
BRANCH   1  27
HETATM   27  C   UNL     1       5.025  32.078  49.441  1.00  0.00    -0.007 A 
HETATM   28  C   UNL     1       4.317  31.907  48.244  1.00  0.00     0.016 A 
HETATM   29  C   UNL     1       4.813  32.415  47.038  1.00  0.00     0.037 A 
HETATM   30  C   UNL     1       6.026  33.101  47.015  1.00  0.00     0.068 A 
HETATM   31  C   UNL     1       6.749  33.247  48.201  1.00  0.00     0.037 A 
HETATM   32  C   UNL     1       6.253  32.745  49.409  1.00  0.00     0.016 A 
BRANCH  30  33
HETATM   33  O   UNL     1       6.608  33.653  45.908  1.00  0.00    -0.351 OA
BRANCH  33  34
HETATM   34  C   UNL     1       7.779  34.442  46.132  1.00  0.00     0.175 C 
BRANCH  34  35
HETATM   35  C   UNL     1       7.945  35.386  44.945  1.00  0.00     0.022 C 
HETATM   36  C   UNL     1       7.281  34.839  43.694  1.00  0.00     0.007 C 
ENDBRANCH  34  35
ENDBRANCH  33  34
ENDBRANCH  30  33
ENDBRANCH   1  27
TORSDOF 7
ENDMDL
MODEL 10
REMARK VINA RESULT:      -6.5      5.776     10.017
REMARK  7 active torsions:
REMARK  status: ('A' for Active; 'I' for Inactive)
REMARK    1  A    between atoms: C_2  and  C_3 
REMARK    2  A    between atoms: C_3  and  O_4 
REMARK    3  A    between atoms: O_4  and  C_5 
REMARK    4  A    between atoms: C_8  and  C_9 
REMARK    5  A    between atoms: C_15  and  C_16 
REMARK    6  A    between atoms: C_19  and  N_20 
REMARK       I    between atoms: N_20  and  C_21 
REMARK    7  A    between atoms: C_29  and  N_30 
ROOT
HETATM    1  C   UNL     1       1.827  27.492  47.173  1.00  0.00     0.072 A 
HETATM    2  N   UNL     1       2.071  26.322  46.483  1.00  0.00    -0.274 N 
HETATM    3  H   UNL     1       1.538  25.940  45.709  1.00  0.00     0.189 HD
HETATM    4  N   UNL     1       3.123  25.613  46.949  1.00  0.00    -0.148 NA
HETATM    5  C   UNL     1       3.547  26.365  47.957  1.00  0.00     0.199 A 
HETATM    6  C   UNL     1       2.829  27.552  48.125  1.00  0.00     0.039 A 
HETATM    7  C   UNL     1       3.206  28.521  49.184  1.00  0.00     0.105 C 
HETATM    8  C   UNL     1       4.206  27.891  50.141  1.00  0.00     0.067 C 
HETATM    9  C   UNL     1       4.358  28.588  51.483  1.00  0.00     0.020 C 
HETATM   10  N   UNL     1       4.483  29.166  52.597  1.00  0.00    -0.096 N 
HETATM   11  C   UNL     1       4.820  26.704  49.904  1.00  0.00     0.139 C 
HETATM   12  O   UNL     1       4.570  25.963  48.736  1.00  0.00    -0.277 OA
ENDROOT
BRANCH   7  13
HETATM   13  C   UNL     1       3.758  29.733  48.446  1.00  0.00    -0.044 A 
HETATM   14  C   UNL     1       3.522  31.022  48.949  1.00  0.00     0.010 A 
HETATM   15  C   UNL     1       3.986  32.159  48.275  1.00  0.00     0.030 A 
HETATM   16  C   UNL     1       4.697  32.037  47.082  1.00  0.00     0.034 A 
HETATM   17  C   UNL     1       4.948  30.756  46.579  1.00  0.00     0.030 A 
HETATM   18  C   UNL     1       4.487  29.619  47.250  1.00  0.00     0.010 A 
BRANCH  16  19
HETATM   19  N   UNL     1       5.179  33.128  46.330  1.00  0.00    -0.328 N 
HETATM   20  C   UNL     1       6.368  33.812  46.504  1.00  0.00     0.218 C 
HETATM   21  C   UNL     1       6.516  34.942  45.516  1.00  0.00     0.117 C 
HETATM   22  O   UNL     1       7.247  33.573  47.323  1.00  0.00    -0.274 OA
HETATM   23  H   UNL     1       4.580  33.445  45.580  1.00  0.00     0.169 HD
ENDBRANCH  16  19
ENDBRANCH   7  13
BRANCH  11  24
HETATM   24  N   UNL     1       5.711  26.089  50.754  1.00  0.00    -0.282 NA
HETATM   25  H   UNL     1       6.605  25.825  50.349  1.00  0.00     0.126 HD
HETATM   26  H   UNL     1       5.275  25.343  51.292  1.00  0.00     0.126 HD
ENDBRANCH  11  24
BRANCH   1  27
HETATM   27  C   UNL     1       0.717  28.386  46.881  1.00  0.00    -0.007 A 
HETATM   28  C   UNL     1       0.837  29.759  47.132  1.00  0.00     0.016 A 
HETATM   29  C   UNL     1      -0.201  30.640  46.814  1.00  0.00     0.037 A 
HETATM   30  C   UNL     1      -1.377  30.157  46.242  1.00  0.00     0.068 A 
HETATM   31  C   UNL     1      -1.512  28.786  46.018  1.00  0.00     0.037 A 
HETATM   32  C   UNL     1      -0.473  27.903  46.329  1.00  0.00     0.016 A 
BRANCH  30  33
HETATM   33  O   UNL     1      -2.455  30.915  45.876  1.00  0.00    -0.351 OA
BRANCH  33  34
HETATM   34  C   UNL     1      -3.693  30.220  45.710  1.00  0.00     0.175 C 
BRANCH  34  35
HETATM   35  C   UNL     1      -4.630  30.649  46.835  1.00  0.00     0.022 C 
HETATM   36  C   UNL     1      -5.132  29.459  47.633  1.00  0.00     0.007 C 
ENDBRANCH  34  35
ENDBRANCH  33  34
ENDBRANCH  30  33
ENDBRANCH   1  27
TORSDOF 7
ENDMDL
