MODEL 1
REMARK VINA RESULT:      -9.6      0.000      0.000
REMARK  8 active torsions:
REMARK  status: ('A' for Active; 'I' for Inactive)
REMARK    1  A    between atoms: C_7  and  N_8 
REMARK    2  A    between atoms: C_9  and  S_10 
REMARK    3  A    between atoms: S_10  and  C_11 
REMARK    4  A    between atoms: C_11  and  C_12 
REMARK       I    between atoms: C_12  and  N_13 
REMARK    5  A    between atoms: N_13  and  C_14 
REMARK    6  A    between atoms: C_14  and  C_15 
REMARK    7  A    between atoms: C_15  and  C_16 
REMARK    8  A    between atoms: C_26  and  N_27 
ROOT
HETATM    1  N   UNL     1       7.047  28.379  55.487  1.00  0.00    -0.276 N 
HETATM    2  C   UNL     1       6.169  28.201  56.590  1.00  0.00     0.177 A 
HETATM    3  N   UNL     1       6.397  28.584  57.822  1.00  0.00    -0.204 NA
HETATM    4  C   UNL     1       7.583  29.204  57.995  1.00  0.00     0.162 A 
HETATM    5  C   UNL     1       8.559  29.478  57.077  1.00  0.00     0.081 A 
HETATM    6  C   UNL     1       8.330  29.033  55.735  1.00  0.00     0.124 A 
HETATM    7  N   UNL     1       8.044  29.712  59.173  1.00  0.00    -0.260 N 
HETATM    8  H   UNL     1       7.588  29.694  60.080  1.00  0.00     0.191 HD
HETATM    9  N   UNL     1       9.252  30.308  59.055  1.00  0.00    -0.177 NA
HETATM   10  C   UNL     1       9.571  30.170  57.757  1.00  0.00     0.068 A 
HETATM   11  C   UNL     1      10.850  30.733  57.261  1.00  0.00     0.073 C 
ENDROOT
BRANCH   2  12
HETATM   12  S   UNL     1       4.571  27.449  56.351  1.00  0.00    -0.082 SA
BRANCH  12  13
HETATM   13  C   UNL     1       4.840  25.889  57.249  1.00  0.00     0.185 C 
BRANCH  13  14
HETATM   14  C   UNL     1       5.894  25.012  56.602  1.00  0.00     0.227 C 
HETATM   15  N   UNL     1       7.042  24.814  57.341  1.00  0.00    -0.360 N 
HETATM   16  H   UNL     1       7.114  25.290  58.233  1.00  0.00     0.162 HD
HETATM   17  O   UNL     1       5.756  24.597  55.453  1.00  0.00    -0.273 OA
BRANCH  15  18
HETATM   18  C   UNL     1       8.251  24.278  56.740  1.00  0.00     0.127 C 
BRANCH  18  19
HETATM   19  C   UNL     1       8.417  22.783  57.012  1.00  0.00     0.058 C 
BRANCH  19  20
HETATM   20  C   UNL     1       8.485  21.996  55.726  1.00  0.00    -0.057 A 
HETATM   21  C   UNL     1       8.269  22.628  54.494  1.00  0.00     0.007 A 
HETATM   22  C   UNL     1       8.290  21.892  53.308  1.00  0.00     0.001 A 
HETATM   23  C   UNL     1       8.523  20.519  53.343  1.00  0.00     0.000 A 
HETATM   24  C   UNL     1       8.738  19.880  54.562  1.00  0.00     0.001 A 
HETATM   25  C   UNL     1       8.718  20.613  55.750  1.00  0.00     0.007 A 
ENDBRANCH  19  20
ENDBRANCH  18  19
ENDBRANCH  15  18
ENDBRANCH  13  14
ENDBRANCH  12  13
ENDBRANCH   2  12
BRANCH   1  26
HETATM   26  C   UNL     1       6.701  27.964  54.167  1.00  0.00     0.043 A 
HETATM   27  C   UNL     1       5.746  28.658  53.415  1.00  0.00     0.032 A 
HETATM   28  C   UNL     1       5.359  28.185  52.158  1.00  0.00     0.026 A 
HETATM   29  C   UNL     1       5.910  27.009  51.646  1.00  0.00     0.040 A 
HETATM   30  C   UNL     1       6.864  26.289  52.382  1.00  0.00    -0.038 A 
HETATM   31 CL   UNL     1       5.368  26.467  50.099  1.00  0.00    -0.084 Cl
HETATM   32  C   UNL     1       7.467  25.012  51.866  1.00  0.00     0.050 C 
HETATM   33  C   UNL     1       7.252  26.782  53.641  1.00  0.00     0.038 A 
ENDBRANCH   1  26
BRANCH   6  34
HETATM   34  N   UNL     1       9.254  29.179  54.804  1.00  0.00    -0.384 N 
HETATM   35  H   UNL     1       9.048  29.606  53.913  1.00  0.00     0.157 HD
HETATM   36  H   UNL     1      10.209  28.898  54.987  1.00  0.00     0.157 HD
ENDBRANCH   6  34
TORSDOF 8
ENDMDL
MODEL 2
REMARK VINA RESULT:      -9.1      4.192      6.180
REMARK  8 active torsions:
REMARK  status: ('A' for Active; 'I' for Inactive)
REMARK    1  A    between atoms: C_7  and  N_8 
REMARK    2  A    between atoms: C_9  and  S_10 
REMARK    3  A    between atoms: S_10  and  C_11 
REMARK    4  A    between atoms: C_11  and  C_12 
REMARK       I    between atoms: C_12  and  N_13 
REMARK    5  A    between atoms: N_13  and  C_14 
REMARK    6  A    between atoms: C_14  and  C_15 
REMARK    7  A    between atoms: C_15  and  C_16 
REMARK    8  A    between atoms: C_26  and  N_27 
ROOT
HETATM    1  N   UNL     1       7.206  31.999  60.259  1.00  0.00    -0.276 N 
HETATM    2  C   UNL     1       5.977  32.488  59.737  1.00  0.00     0.177 A 
HETATM    3  N   UNL     1       5.062  33.140  60.411  1.00  0.00    -0.204 NA
HETATM    4  C   UNL     1       5.373  33.341  61.708  1.00  0.00     0.162 A 
HETATM    5  C   UNL     1       6.490  32.963  62.400  1.00  0.00     0.081 A 
HETATM    6  C   UNL     1       7.480  32.222  61.677  1.00  0.00     0.124 A 
HETATM    7  N   UNL     1       4.598  34.008  62.611  1.00  0.00    -0.260 N 
HETATM    8  H   UNL     1       3.690  34.433  62.458  1.00  0.00     0.191 HD
HETATM    9  N   UNL     1       5.166  34.088  63.835  1.00  0.00    -0.177 NA
HETATM   10  C   UNL     1       6.339  33.448  63.707  1.00  0.00     0.068 A 
HETATM   11  C   UNL     1       7.248  33.357  64.875  1.00  0.00     0.073 C 
ENDROOT
BRANCH   2  12
HETATM   12  S   UNL     1       5.597  32.288  58.007  1.00  0.00    -0.082 SA
BRANCH  12  13
HETATM   13  C   UNL     1       4.413  30.911  58.121  1.00  0.00     0.185 C 
BRANCH  13  14
HETATM   14  C   UNL     1       4.495  29.965  56.939  1.00  0.00     0.227 C 
HETATM   15  N   UNL     1       4.569  28.624  57.252  1.00  0.00    -0.360 N 
HETATM   16  H   UNL     1       4.598  28.371  58.232  1.00  0.00     0.162 HD
HETATM   17  O   UNL     1       4.590  30.392  55.790  1.00  0.00    -0.273 OA
BRANCH  15  18
HETATM   18  C   UNL     1       4.970  27.634  56.267  1.00  0.00     0.127 C 
BRANCH  18  19
HETATM   19  C   UNL     1       5.089  26.234  56.869  1.00  0.00     0.058 C 
BRANCH  19  20
HETATM   20  C   UNL     1       5.913  25.326  55.990  1.00  0.00    -0.057 A 
HETATM   21  C   UNL     1       5.614  25.193  54.628  1.00  0.00     0.007 A 
HETATM   22  C   UNL     1       6.350  24.322  53.823  1.00  0.00     0.001 A 
HETATM   23  C   UNL     1       7.388  23.574  54.373  1.00  0.00     0.000 A 
HETATM   24  C   UNL     1       7.694  23.697  55.727  1.00  0.00     0.001 A 
HETATM   25  C   UNL     1       6.960  24.568  56.534  1.00  0.00     0.007 A 
ENDBRANCH  19  20
ENDBRANCH  18  19
ENDBRANCH  15  18
ENDBRANCH  13  14
ENDBRANCH  12  13
ENDBRANCH   2  12
BRANCH   1  26
HETATM   26  C   UNL     1       8.165  31.332  59.442  1.00  0.00     0.043 A 
HETATM   27  C   UNL     1       9.374  31.944  59.095  1.00  0.00     0.032 A 
HETATM   28  C   UNL     1      10.262  31.308  58.224  1.00  0.00     0.026 A 
HETATM   29  C   UNL     1       9.947  30.061  57.681  1.00  0.00     0.040 A 
HETATM   30  C   UNL     1       8.738  29.427  58.007  1.00  0.00    -0.038 A 
HETATM   31 CL   UNL     1      11.077  29.342  56.591  1.00  0.00    -0.084 Cl
HETATM   32  C   UNL     1       8.361  28.091  57.429  1.00  0.00     0.050 C 
HETATM   33  C   UNL     1       7.858  30.074  58.892  1.00  0.00     0.038 A 
ENDBRANCH   1  26
BRANCH   6  34
HETATM   34  N   UNL     1       8.549  31.744  62.285  1.00  0.00    -0.384 N 
HETATM   35  H   UNL     1       9.312  32.341  62.569  1.00  0.00     0.157 HD
HETATM   36  H   UNL     1       8.605  30.760  62.517  1.00  0.00     0.157 HD
ENDBRANCH   6  34
TORSDOF 8
ENDMDL
MODEL 3
REMARK VINA RESULT:      -9.0      4.194      8.109
REMARK  8 active torsions:
REMARK  status: ('A' for Active; 'I' for Inactive)
REMARK    1  A    between atoms: C_7  and  N_8 
REMARK    2  A    between atoms: C_9  and  S_10 
REMARK    3  A    between atoms: S_10  and  C_11 
REMARK    4  A    between atoms: C_11  and  C_12 
REMARK       I    between atoms: C_12  and  N_13 
REMARK    5  A    between atoms: N_13  and  C_14 
REMARK    6  A    between atoms: C_14  and  C_15 
REMARK    7  A    between atoms: C_15  and  C_16 
REMARK    8  A    between atoms: C_26  and  N_27 
ROOT
HETATM    1  N   UNL     1       6.088  28.602  56.107  1.00  0.00    -0.276 N 
HETATM    2  C   UNL     1       7.024  29.329  56.893  1.00  0.00     0.177 A 
HETATM    3  N   UNL     1       6.874  30.557  57.323  1.00  0.00    -0.204 NA
HETATM    4  C   UNL     1       5.705  31.128  56.963  1.00  0.00     0.162 A 
HETATM    5  C   UNL     1       4.679  30.607  56.224  1.00  0.00     0.081 A 
HETATM    6  C   UNL     1       4.850  29.277  55.724  1.00  0.00     0.124 A 
HETATM    7  N   UNL     1       5.304  32.386  57.302  1.00  0.00    -0.260 N 
HETATM    8  H   UNL     1       5.810  33.075  57.849  1.00  0.00     0.191 HD
HETATM    9  N   UNL     1       4.074  32.691  56.833  1.00  0.00    -0.177 NA
HETATM   10  C   UNL     1       3.681  31.591  56.170  1.00  0.00     0.068 A 
HETATM   11  C   UNL     1       2.345  31.568  55.530  1.00  0.00     0.073 C 
ENDROOT
BRANCH   2  12
HETATM   12  S   UNL     1       8.535  28.553  57.431  1.00  0.00    -0.082 SA
BRANCH  12  13
HETATM   13  C   UNL     1       9.700  29.912  57.099  1.00  0.00     0.185 C 
BRANCH  13  14
HETATM   14  C   UNL     1       9.886  30.831  58.291  1.00  0.00     0.227 C 
HETATM   15  N   UNL     1       9.235  30.450  59.446  1.00  0.00    -0.360 N 
HETATM   16  H   UNL     1       8.660  29.617  59.408  1.00  0.00     0.162 HD
HETATM   17  O   UNL     1      10.498  31.892  58.185  1.00  0.00    -0.273 OA
BRANCH  15  18
HETATM   18  C   UNL     1       9.053  31.370  60.556  1.00  0.00     0.127 C 
BRANCH  18  19
HETATM   19  C   UNL     1       7.685  32.050  60.525  1.00  0.00     0.058 C 
BRANCH  19  20
HETATM   20  C   UNL     1       7.372  32.713  61.844  1.00  0.00    -0.057 A 
HETATM   21  C   UNL     1       6.401  33.721  61.919  1.00  0.00     0.007 A 
HETATM   22  C   UNL     1       6.140  34.364  63.130  1.00  0.00     0.001 A 
HETATM   23  C   UNL     1       6.848  34.009  64.275  1.00  0.00     0.000 A 
HETATM   24  C   UNL     1       7.817  33.009  64.213  1.00  0.00     0.001 A 
HETATM   25  C   UNL     1       8.080  32.364  63.003  1.00  0.00     0.007 A 
ENDBRANCH  19  20
ENDBRANCH  18  19
ENDBRANCH  15  18
ENDBRANCH  13  14
ENDBRANCH  12  13
ENDBRANCH   2  12
BRANCH   1  26
HETATM   26  C   UNL     1       6.316  27.250  55.714  1.00  0.00     0.043 A 
HETATM   27  C   UNL     1       6.007  26.184  56.567  1.00  0.00     0.032 A 
HETATM   28  C   UNL     1       6.317  24.873  56.197  1.00  0.00     0.026 A 
HETATM   29  C   UNL     1       6.951  24.613  54.980  1.00  0.00     0.040 A 
HETATM   30  C   UNL     1       7.279  25.664  54.109  1.00  0.00    -0.038 A 
HETATM   31 CL   UNL     1       7.329  22.973  54.597  1.00  0.00    -0.084 Cl
HETATM   32  C   UNL     1       7.973  25.421  52.798  1.00  0.00     0.050 C 
HETATM   33  C   UNL     1       6.951  26.978  54.489  1.00  0.00     0.038 A 
ENDBRANCH   1  26
BRANCH   6  34
HETATM   34  N   UNL     1       3.948  28.727  54.933  1.00  0.00    -0.384 N 
HETATM   35  H   UNL     1       3.282  29.284  54.417  1.00  0.00     0.157 HD
HETATM   36  H   UNL     1       3.935  27.724  54.796  1.00  0.00     0.157 HD
ENDBRANCH   6  34
TORSDOF 8
ENDMDL
MODEL 4
REMARK VINA RESULT:      -8.9      3.716      7.188
REMARK  8 active torsions:
REMARK  status: ('A' for Active; 'I' for Inactive)
REMARK    1  A    between atoms: C_7  and  N_8 
REMARK    2  A    between atoms: C_9  and  S_10 
REMARK    3  A    between atoms: S_10  and  C_11 
REMARK    4  A    between atoms: C_11  and  C_12 
REMARK       I    between atoms: C_12  and  N_13 
REMARK    5  A    between atoms: N_13  and  C_14 
REMARK    6  A    between atoms: C_14  and  C_15 
REMARK    7  A    between atoms: C_15  and  C_16 
REMARK    8  A    between atoms: C_26  and  N_27 
ROOT
HETATM    1  N   UNL     1       6.727  25.560  54.928  1.00  0.00    -0.276 N 
HETATM    2  C   UNL     1       5.598  26.109  54.261  1.00  0.00     0.177 A 
HETATM    3  N   UNL     1       5.031  27.259  54.533  1.00  0.00    -0.204 NA
HETATM    4  C   UNL     1       5.619  27.939  55.539  1.00  0.00     0.162 A 
HETATM    5  C   UNL     1       6.703  27.595  56.299  1.00  0.00     0.081 A 
HETATM    6  C   UNL     1       7.308  26.326  56.028  1.00  0.00     0.124 A 
HETATM    7  N   UNL     1       5.231  29.163  55.997  1.00  0.00    -0.260 N 
HETATM    8  H   UNL     1       4.456  29.732  55.672  1.00  0.00     0.191 HD
HETATM    9  N   UNL     1       6.016  29.626  56.995  1.00  0.00    -0.177 NA
HETATM   10  C   UNL     1       6.932  28.661  57.181  1.00  0.00     0.068 A 
HETATM   11  C   UNL     1       7.984  28.847  58.209  1.00  0.00     0.073 C 
ENDROOT
BRANCH   2  12
HETATM   12  S   UNL     1       4.864  25.248  52.885  1.00  0.00    -0.082 SA
BRANCH  12  13
HETATM   13  C   UNL     1       5.835  25.977  51.528  1.00  0.00     0.185 C 
BRANCH  13  14
HETATM   14  C   UNL     1       5.106  27.105  50.824  1.00  0.00     0.227 C 
HETATM   15  N   UNL     1       5.653  27.512  49.625  1.00  0.00    -0.360 N 
HETATM   16  H   UNL     1       6.507  27.061  49.321  1.00  0.00     0.162 HD
HETATM   17  O   UNL     1       4.153  27.673  51.354  1.00  0.00    -0.273 OA
BRANCH  15  18
HETATM   18  C   UNL     1       5.270  28.767  49.000  1.00  0.00     0.127 C 
BRANCH  18  19
HETATM   19  C   UNL     1       4.948  28.600  47.516  1.00  0.00     0.058 C 
BRANCH  19  20
HETATM   20  C   UNL     1       3.514  28.178  47.309  1.00  0.00    -0.057 A 
HETATM   21  C   UNL     1       3.176  26.820  47.243  1.00  0.00     0.007 A 
HETATM   22  C   UNL     1       1.857  26.429  47.010  1.00  0.00     0.001 A 
HETATM   23  C   UNL     1       0.865  27.391  46.837  1.00  0.00     0.000 A 
HETATM   24  C   UNL     1       1.189  28.745  46.899  1.00  0.00     0.001 A 
HETATM   25  C   UNL     1       2.508  29.138  47.132  1.00  0.00     0.007 A 
ENDBRANCH  19  20
ENDBRANCH  18  19
ENDBRANCH  15  18
ENDBRANCH  13  14
ENDBRANCH  12  13
ENDBRANCH   2  12
BRANCH   1  26
HETATM   26  C   UNL     1       7.305  24.316  54.540  1.00  0.00     0.043 A 
HETATM   27  C   UNL     1       7.912  24.156  53.290  1.00  0.00     0.032 A 
HETATM   28  C   UNL     1       8.397  22.906  52.896  1.00  0.00     0.026 A 
HETATM   29  C   UNL     1       8.268  21.801  53.739  1.00  0.00     0.040 A 
HETATM   30  C   UNL     1       7.657  21.931  54.995  1.00  0.00    -0.038 A 
HETATM   31 CL   UNL     1       8.865  20.281  53.179  1.00  0.00    -0.084 Cl
HETATM   32  C   UNL     1       7.489  20.758  55.922  1.00  0.00     0.050 C 
HETATM   33  C   UNL     1       7.183  23.196  55.384  1.00  0.00     0.038 A 
ENDBRANCH   1  26
BRANCH   6  34
HETATM   34  N   UNL     1       8.305  25.878  56.767  1.00  0.00    -0.384 N 
HETATM   35  H   UNL     1       9.111  25.427  56.358  1.00  0.00     0.157 HD
HETATM   36  H   UNL     1       8.297  26.016  57.770  1.00  0.00     0.157 HD
ENDBRANCH   6  34
TORSDOF 8
ENDMDL
MODEL 5
REMARK VINA RESULT:      -8.9      4.083      8.165
REMARK  8 active torsions:
REMARK  status: ('A' for Active; 'I' for Inactive)
REMARK    1  A    between atoms: C_7  and  N_8 
REMARK    2  A    between atoms: C_9  and  S_10 
REMARK    3  A    between atoms: S_10  and  C_11 
REMARK    4  A    between atoms: C_11  and  C_12 
REMARK       I    between atoms: C_12  and  N_13 
REMARK    5  A    between atoms: N_13  and  C_14 
REMARK    6  A    between atoms: C_14  and  C_15 
REMARK    7  A    between atoms: C_15  and  C_16 
REMARK    8  A    between atoms: C_26  and  N_27 
ROOT
HETATM    1  N   UNL     1       7.397  25.674  55.499  1.00  0.00    -0.276 N 
HETATM    2  C   UNL     1       7.218  25.693  54.089  1.00  0.00     0.177 A 
HETATM    3  N   UNL     1       7.284  24.654  53.293  1.00  0.00    -0.204 NA
HETATM    4  C   UNL     1       7.539  23.491  53.927  1.00  0.00     0.162 A 
HETATM    5  C   UNL     1       7.735  23.255  55.260  1.00  0.00     0.081 A 
HETATM    6  C   UNL     1       7.696  24.391  56.131  1.00  0.00     0.124 A 
HETATM    7  N   UNL     1       7.636  22.270  53.327  1.00  0.00    -0.260 N 
HETATM    8  H   UNL     1       7.547  22.053  52.340  1.00  0.00     0.191 HD
HETATM    9  N   UNL     1       7.868  21.268  54.204  1.00  0.00    -0.177 NA
HETATM   10  C   UNL     1       7.924  21.873  55.402  1.00  0.00     0.068 A 
HETATM   11  C   UNL     1       8.153  21.056  56.618  1.00  0.00     0.073 C 
ENDROOT
BRANCH   2  12
HETATM   12  S   UNL     1       6.809  27.216  53.258  1.00  0.00    -0.082 SA
BRANCH  12  13
HETATM   13  C   UNL     1       5.141  26.791  52.667  1.00  0.00     0.185 C 
BRANCH  13  14
HETATM   14  C   UNL     1       4.904  27.206  51.227  1.00  0.00     0.227 C 
HETATM   15  N   UNL     1       4.499  26.200  50.376  1.00  0.00    -0.360 N 
HETATM   16  H   UNL     1       4.423  25.264  50.756  1.00  0.00     0.162 HD
HETATM   17  O   UNL     1       5.160  28.346  50.845  1.00  0.00    -0.273 OA
BRANCH  15  18
HETATM   18  C   UNL     1       4.541  26.361  48.932  1.00  0.00     0.127 C 
BRANCH  18  19
HETATM   19  C   UNL     1       3.249  25.900  48.260  1.00  0.00     0.058 C 
BRANCH  19  20
HETATM   20  C   UNL     1       2.481  27.066  47.688  1.00  0.00    -0.057 A 
HETATM   21  C   UNL     1       1.136  26.919  47.323  1.00  0.00     0.007 A 
HETATM   22  C   UNL     1       0.436  27.985  46.755  1.00  0.00     0.001 A 
HETATM   23  C   UNL     1       1.074  29.205  46.544  1.00  0.00     0.000 A 
HETATM   24  C   UNL     1       2.412  29.362  46.901  1.00  0.00     0.001 A 
HETATM   25  C   UNL     1       3.114  28.297  47.470  1.00  0.00     0.007 A 
ENDBRANCH  19  20
ENDBRANCH  18  19
ENDBRANCH  15  18
ENDBRANCH  13  14
ENDBRANCH  12  13
ENDBRANCH   2  12
BRANCH   1  26
HETATM   26  C   UNL     1       7.268  26.850  56.295  1.00  0.00     0.043 A 
HETATM   27  C   UNL     1       6.014  27.316  56.705  1.00  0.00     0.032 A 
HETATM   28  C   UNL     1       5.905  28.516  57.413  1.00  0.00     0.026 A 
HETATM   29  C   UNL     1       7.043  29.270  57.705  1.00  0.00     0.040 A 
HETATM   30  C   UNL     1       8.312  28.830  57.300  1.00  0.00    -0.038 A 
HETATM   31 CL   UNL     1       6.833  30.756  58.559  1.00  0.00    -0.084 Cl
HETATM   32  C   UNL     1       9.557  29.624  57.586  1.00  0.00     0.050 C 
HETATM   33  C   UNL     1       8.409  27.615  56.598  1.00  0.00     0.038 A 
ENDBRANCH   1  26
BRANCH   6  34
HETATM   34  N   UNL     1       7.958  24.269  57.418  1.00  0.00    -0.384 N 
HETATM   35  H   UNL     1       8.302  25.042  57.968  1.00  0.00     0.157 HD
HETATM   36  H   UNL     1       7.778  23.392  57.893  1.00  0.00     0.157 HD
ENDBRANCH   6  34
TORSDOF 8
ENDMDL
MODEL 6
REMARK VINA RESULT:      -8.8      4.041      8.394
REMARK  8 active torsions:
REMARK  status: ('A' for Active; 'I' for Inactive)
REMARK    1  A    between atoms: C_7  and  N_8 
REMARK    2  A    between atoms: C_9  and  S_10 
REMARK    3  A    between atoms: S_10  and  C_11 
REMARK    4  A    between atoms: C_11  and  C_12 
REMARK       I    between atoms: C_12  and  N_13 
REMARK    5  A    between atoms: N_13  and  C_14 
REMARK    6  A    between atoms: C_14  and  C_15 
REMARK    7  A    between atoms: C_15  and  C_16 
REMARK    8  A    between atoms: C_26  and  N_27 
ROOT
HETATM    1  N   UNL     1       5.967  26.946  54.686  1.00  0.00    -0.276 N 
HETATM    2  C   UNL     1       6.566  28.042  55.365  1.00  0.00     0.177 A 
HETATM    3  N   UNL     1       6.222  29.300  55.243  1.00  0.00    -0.204 NA
HETATM    4  C   UNL     1       5.197  29.511  54.391  1.00  0.00     0.162 A 
HETATM    5  C   UNL     1       4.487  28.607  53.651  1.00  0.00     0.081 A 
HETATM    6  C   UNL     1       4.879  27.233  53.754  1.00  0.00     0.124 A 
HETATM    7  N   UNL     1       4.642  30.724  54.108  1.00  0.00    -0.260 N 
HETATM    8  H   UNL     1       4.911  31.632  54.473  1.00  0.00     0.191 HD
HETATM    9  N   UNL     1       3.609  30.642  53.241  1.00  0.00    -0.177 NA
HETATM   10  C   UNL     1       3.505  29.332  52.960  1.00  0.00     0.068 A 
HETATM   11  C   UNL     1       2.443  28.870  52.035  1.00  0.00     0.073 C 
ENDROOT
BRANCH   2  12
HETATM   12  S   UNL     1       7.870  27.760  56.547  1.00  0.00    -0.082 SA
BRANCH  12  13
HETATM   13  C   UNL     1       7.172  28.647  57.975  1.00  0.00     0.185 C 
BRANCH  13  14
HETATM   14  C   UNL     1       8.117  29.693  58.535  1.00  0.00     0.227 C 
HETATM   15  N   UNL     1       7.646  30.401  59.621  1.00  0.00    -0.360 N 
HETATM   16  H   UNL     1       6.706  30.202  59.941  1.00  0.00     0.162 HD
HETATM   17  O   UNL     1       9.185  29.946  57.981  1.00  0.00    -0.273 OA
BRANCH  15  18
HETATM   18  C   UNL     1       8.283  31.630  60.062  1.00  0.00     0.127 C 
BRANCH  18  19
HETATM   19  C   UNL     1       8.684  31.578  61.535  1.00  0.00     0.058 C 
BRANCH  19  20
HETATM   20  C   UNL     1       7.881  32.555  62.359  1.00  0.00    -0.057 A 
HETATM   21  C   UNL     1       8.016  32.587  63.753  1.00  0.00     0.007 A 
HETATM   22  C   UNL     1       7.243  33.461  64.519  1.00  0.00     0.001 A 
HETATM   23  C   UNL     1       6.328  34.309  63.899  1.00  0.00     0.000 A 
HETATM   24  C   UNL     1       6.184  34.285  62.514  1.00  0.00     0.001 A 
HETATM   25  C   UNL     1       6.956  33.411  61.745  1.00  0.00     0.007 A 
ENDBRANCH  19  20
ENDBRANCH  18  19
ENDBRANCH  15  18
ENDBRANCH  13  14
ENDBRANCH  12  13
ENDBRANCH   2  12
BRANCH   1  26
HETATM   26  C   UNL     1       6.381  25.599  54.908  1.00  0.00     0.043 A 
HETATM   27  C   UNL     1       6.265  25.003  56.169  1.00  0.00     0.032 A 
HETATM   28  C   UNL     1       6.754  23.712  56.385  1.00  0.00     0.026 A 
HETATM   29  C   UNL     1       7.376  23.009  55.351  1.00  0.00     0.040 A 
HETATM   30  C   UNL     1       7.511  23.586  54.079  1.00  0.00    -0.038 A 
HETATM   31 CL   UNL     1       7.981  21.430  55.695  1.00  0.00    -0.084 Cl
HETATM   32  C   UNL     1       8.187  22.863  52.947  1.00  0.00     0.050 C 
HETATM   33  C   UNL     1       7.005  24.881  53.872  1.00  0.00     0.038 A 
ENDBRANCH   1  26
BRANCH   6  34
HETATM   34  N   UNL     1       4.305  26.305  53.013  1.00  0.00    -0.384 N 
HETATM   35  H   UNL     1       4.788  25.861  52.246  1.00  0.00     0.157 HD
HETATM   36  H   UNL     1       3.367  25.990  53.229  1.00  0.00     0.157 HD
ENDBRANCH   6  34
TORSDOF 8
ENDMDL
MODEL 7
REMARK VINA RESULT:      -8.7      3.207      5.698
REMARK  8 active torsions:
REMARK  status: ('A' for Active; 'I' for Inactive)
REMARK    1  A    between atoms: C_7  and  N_8 
REMARK    2  A    between atoms: C_9  and  S_10 
REMARK    3  A    between atoms: S_10  and  C_11 
REMARK    4  A    between atoms: C_11  and  C_12 
REMARK       I    between atoms: C_12  and  N_13 
REMARK    5  A    between atoms: N_13  and  C_14 
REMARK    6  A    between atoms: C_14  and  C_15 
REMARK    7  A    between atoms: C_15  and  C_16 
REMARK    8  A    between atoms: C_26  and  N_27 
ROOT
HETATM    1  N   UNL     1       5.928  27.839  52.482  1.00  0.00    -0.276 N 
HETATM    2  C   UNL     1       5.875  26.475  52.084  1.00  0.00     0.177 A 
HETATM    3  N   UNL     1       5.427  26.028  50.937  1.00  0.00    -0.204 NA
HETATM    4  C   UNL     1       4.999  26.994  50.098  1.00  0.00     0.162 A 
HETATM    5  C   UNL     1       4.969  28.349  50.281  1.00  0.00     0.081 A 
HETATM    6  C   UNL     1       5.427  28.842  51.545  1.00  0.00     0.124 A 
HETATM    7  N   UNL     1       4.509  26.788  48.843  1.00  0.00    -0.260 N 
HETATM    8  H   UNL     1       4.381  25.904  48.361  1.00  0.00     0.191 HD
HETATM    9  N   UNL     1       4.182  27.937  48.210  1.00  0.00    -0.177 NA
HETATM   10  C   UNL     1       4.470  28.905  49.095  1.00  0.00     0.068 A 
HETATM   11  C   UNL     1       4.247  30.322  48.719  1.00  0.00     0.073 C 
ENDROOT
BRANCH   2  12
HETATM   12  S   UNL     1       6.507  25.204  53.160  1.00  0.00    -0.082 SA
BRANCH  12  13
HETATM   13  C   UNL     1       5.204  25.216  54.431  1.00  0.00     0.185 C 
BRANCH  13  14
HETATM   14  C   UNL     1       5.759  25.191  55.842  1.00  0.00     0.227 C 
HETATM   15  N   UNL     1       7.133  25.248  55.945  1.00  0.00    -0.360 N 
HETATM   16  H   UNL     1       7.668  25.265  55.085  1.00  0.00     0.162 HD
HETATM   17  O   UNL     1       5.020  25.031  56.812  1.00  0.00    -0.273 OA
BRANCH  15  18
HETATM   18  C   UNL     1       7.818  24.915  57.182  1.00  0.00     0.127 C 
BRANCH  18  19
HETATM   19  C   UNL     1       9.043  24.034  56.946  1.00  0.00     0.058 C 
BRANCH  19  20
HETATM   20  C   UNL     1       8.689  22.803  56.148  1.00  0.00    -0.057 A 
HETATM   21  C   UNL     1       8.174  21.667  56.787  1.00  0.00     0.007 A 
HETATM   22  C   UNL     1       7.885  20.514  56.056  1.00  0.00     0.001 A 
HETATM   23  C   UNL     1       8.111  20.484  54.682  1.00  0.00     0.000 A 
HETATM   24  C   UNL     1       8.625  21.607  54.036  1.00  0.00     0.001 A 
HETATM   25  C   UNL     1       8.914  22.762  54.765  1.00  0.00     0.007 A 
ENDBRANCH  19  20
ENDBRANCH  18  19
ENDBRANCH  15  18
ENDBRANCH  13  14
ENDBRANCH  12  13
ENDBRANCH   2  12
BRANCH   1  26
HETATM   26  C   UNL     1       6.469  28.242  53.738  1.00  0.00     0.043 A 
HETATM   27  C   UNL     1       7.849  28.237  53.970  1.00  0.00     0.032 A 
HETATM   28  C   UNL     1       8.353  28.554  55.234  1.00  0.00     0.026 A 
HETATM   29  C   UNL     1       7.485  28.865  56.283  1.00  0.00     0.040 A 
HETATM   30  C   UNL     1       6.097  28.871  56.080  1.00  0.00    -0.038 A 
HETATM   31 CL   UNL     1       8.174  29.221  57.825  1.00  0.00    -0.084 Cl
HETATM   32  C   UNL     1       5.133  29.188  57.191  1.00  0.00     0.050 C 
HETATM   33  C   UNL     1       5.603  28.561  54.800  1.00  0.00     0.038 A 
ENDBRANCH   1  26
BRANCH   6  34
HETATM   34  N   UNL     1       5.354  30.127  51.839  1.00  0.00    -0.384 N 
HETATM   35  H   UNL     1       4.469  30.607  51.914  1.00  0.00     0.157 HD
HETATM   36  H   UNL     1       6.197  30.652  52.036  1.00  0.00     0.157 HD
ENDBRANCH   6  34
TORSDOF 8
ENDMDL
MODEL 8
REMARK VINA RESULT:      -8.6      3.747      8.090
REMARK  8 active torsions:
REMARK  status: ('A' for Active; 'I' for Inactive)
REMARK    1  A    between atoms: C_7  and  N_8 
REMARK    2  A    between atoms: C_9  and  S_10 
REMARK    3  A    between atoms: S_10  and  C_11 
REMARK    4  A    between atoms: C_11  and  C_12 
REMARK       I    between atoms: C_12  and  N_13 
REMARK    5  A    between atoms: N_13  and  C_14 
REMARK    6  A    between atoms: C_14  and  C_15 
REMARK    7  A    between atoms: C_15  and  C_16 
REMARK    8  A    between atoms: C_26  and  N_27 
ROOT
HETATM    1  N   UNL     1       6.506  27.055  55.729  1.00  0.00    -0.276 N 
HETATM    2  C   UNL     1       7.293  27.522  56.818  1.00  0.00     0.177 A 
HETATM    3  N   UNL     1       8.067  26.785  57.576  1.00  0.00    -0.204 NA
HETATM    4  C   UNL     1       8.084  25.479  57.241  1.00  0.00     0.162 A 
HETATM    5  C   UNL     1       7.414  24.832  56.239  1.00  0.00     0.081 A 
HETATM    6  C   UNL     1       6.542  25.626  55.427  1.00  0.00     0.124 A 
HETATM    7  N   UNL     1       8.823  24.515  57.861  1.00  0.00    -0.260 N 
HETATM    8  H   UNL     1       9.447  24.622  58.654  1.00  0.00     0.191 HD
HETATM    9  N   UNL     1       8.673  23.294  57.300  1.00  0.00    -0.177 NA
HETATM   10  C   UNL     1       7.807  23.487  56.293  1.00  0.00     0.068 A 
HETATM   11  C   UNL     1       7.421  22.340  55.437  1.00  0.00     0.073 C 
ENDROOT
BRANCH   2  12
HETATM   12  S   UNL     1       7.329  29.258  57.216  1.00  0.00    -0.082 SA
BRANCH  12  13
HETATM   13  C   UNL     1       9.129  29.493  57.352  1.00  0.00     0.185 C 
BRANCH  13  14
HETATM   14  C   UNL     1       9.503  30.668  58.234  1.00  0.00     0.227 C 
HETATM   15  N   UNL     1       8.647  30.922  59.286  1.00  0.00    -0.360 N 
HETATM   16  H   UNL     1       7.824  30.338  59.372  1.00  0.00     0.162 HD
HETATM   17  O   UNL     1      10.455  31.394  57.954  1.00  0.00    -0.273 OA
BRANCH  15  18
HETATM   18  C   UNL     1       8.688  32.178  60.014  1.00  0.00     0.127 C 
BRANCH  18  19
HETATM   19  C   UNL     1       9.008  31.979  61.494  1.00  0.00     0.058 C 
BRANCH  19  20
HETATM   20  C   UNL     1       7.870  32.443  62.370  1.00  0.00    -0.057 A 
HETATM   21  C   UNL     1       8.100  32.786  63.709  1.00  0.00     0.007 A 
HETATM   22  C   UNL     1       7.041  33.175  64.532  1.00  0.00     0.001 A 
HETATM   23  C   UNL     1       5.745  33.221  64.025  1.00  0.00     0.000 A 
HETATM   24  C   UNL     1       5.504  32.881  62.695  1.00  0.00     0.001 A 
HETATM   25  C   UNL     1       6.562  32.492  61.871  1.00  0.00     0.007 A 
ENDBRANCH  19  20
ENDBRANCH  18  19
ENDBRANCH  15  18
ENDBRANCH  13  14
ENDBRANCH  12  13
ENDBRANCH   2  12
BRANCH   1  26
HETATM   26  C   UNL     1       5.719  27.935  54.930  1.00  0.00     0.043 A 
HETATM   27  C   UNL     1       4.531  28.491  55.416  1.00  0.00     0.032 A 
HETATM   28  C   UNL     1       3.732  29.282  54.587  1.00  0.00     0.026 A 
HETATM   29  C   UNL     1       4.103  29.515  53.262  1.00  0.00     0.040 A 
HETATM   30  C   UNL     1       5.285  28.964  52.746  1.00  0.00    -0.038 A 
HETATM   31 CL   UNL     1       3.056  30.480  52.285  1.00  0.00    -0.084 Cl
HETATM   32  C   UNL     1       5.708  29.184  51.319  1.00  0.00     0.050 C 
HETATM   33  C   UNL     1       6.086  28.179  53.594  1.00  0.00     0.038 A 
ENDBRANCH   1  26
BRANCH   6  34
HETATM   34  N   UNL     1       5.793  25.071  54.492  1.00  0.00    -0.384 N 
HETATM   35  H   UNL     1       5.351  24.173  54.627  1.00  0.00     0.157 HD
HETATM   36  H   UNL     1       5.614  25.562  53.625  1.00  0.00     0.157 HD
ENDBRANCH   6  34
TORSDOF 8
ENDMDL
MODEL 9
REMARK VINA RESULT:      -8.6      3.399      7.579
REMARK  8 active torsions:
REMARK  status: ('A' for Active; 'I' for Inactive)
REMARK    1  A    between atoms: C_7  and  N_8 
REMARK    2  A    between atoms: C_9  and  S_10 
REMARK    3  A    between atoms: S_10  and  C_11 
REMARK    4  A    between atoms: C_11  and  C_12 
REMARK       I    between atoms: C_12  and  N_13 
REMARK    5  A    between atoms: N_13  and  C_14 
REMARK    6  A    between atoms: C_14  and  C_15 
REMARK    7  A    between atoms: C_15  and  C_16 
REMARK    8  A    between atoms: C_26  and  N_27 
ROOT
HETATM    1  N   UNL     1       7.410  25.378  55.490  1.00  0.00    -0.276 N 
HETATM    2  C   UNL     1       7.219  25.354  54.081  1.00  0.00     0.177 A 
HETATM    3  N   UNL     1       7.288  24.293  53.315  1.00  0.00    -0.204 NA
HETATM    4  C   UNL     1       7.560  23.151  53.980  1.00  0.00     0.162 A 
HETATM    5  C   UNL     1       7.771  22.957  55.318  1.00  0.00     0.081 A 
HETATM    6  C   UNL     1       7.728  24.117  56.155  1.00  0.00     0.124 A 
HETATM    7  N   UNL     1       7.664  21.915  53.415  1.00  0.00    -0.260 N 
HETATM    8  H   UNL     1       7.569  21.668  52.436  1.00  0.00     0.191 HD
HETATM    9  N   UNL     1       7.914  20.941  54.319  1.00  0.00    -0.177 NA
HETATM   10  C   UNL     1       7.975  21.581  55.498  1.00  0.00     0.068 A 
HETATM   11  C   UNL     1       8.223  20.802  56.735  1.00  0.00     0.073 C 
ENDROOT
BRANCH   2  12
HETATM   12  S   UNL     1       6.787  26.848  53.210  1.00  0.00    -0.082 SA
BRANCH  12  13
HETATM   13  C   UNL     1       4.974  26.693  53.237  1.00  0.00     0.185 C 
BRANCH  13  14
HETATM   14  C   UNL     1       4.267  28.013  53.001  1.00  0.00     0.227 C 
HETATM   15  N   UNL     1       3.254  27.989  52.065  1.00  0.00    -0.360 N 
HETATM   16  H   UNL     1       3.080  27.115  51.584  1.00  0.00     0.162 HD
HETATM   17  O   UNL     1       4.653  29.046  53.544  1.00  0.00    -0.273 OA
BRANCH  15  18
HETATM   18  C   UNL     1       2.708  29.213  51.502  1.00  0.00     0.127 C 
BRANCH  18  19
HETATM   19  C   UNL     1       2.155  29.004  50.093  1.00  0.00     0.058 C 
BRANCH  19  20
HETATM   20  C   UNL     1       3.173  28.346  49.195  1.00  0.00    -0.057 A 
HETATM   21  C   UNL     1       4.387  28.986  48.909  1.00  0.00     0.007 A 
HETATM   22  C   UNL     1       5.311  28.397  48.045  1.00  0.00     0.001 A 
HETATM   23  C   UNL     1       5.030  27.166  47.456  1.00  0.00     0.000 A 
HETATM   24  C   UNL     1       3.825  26.522  47.732  1.00  0.00     0.001 A 
HETATM   25  C   UNL     1       2.899  27.109  48.596  1.00  0.00     0.007 A 
ENDBRANCH  19  20
ENDBRANCH  18  19
ENDBRANCH  15  18
ENDBRANCH  13  14
ENDBRANCH  12  13
ENDBRANCH   2  12
BRANCH   1  26
HETATM   26  C   UNL     1       7.277  26.575  56.252  1.00  0.00     0.043 A 
HETATM   27  C   UNL     1       6.023  27.032  56.675  1.00  0.00     0.032 A 
HETATM   28  C   UNL     1       5.906  28.251  57.348  1.00  0.00     0.026 A 
HETATM   29  C   UNL     1       7.037  29.033  57.593  1.00  0.00     0.040 A 
HETATM   30  C   UNL     1       8.305  28.603  57.174  1.00  0.00    -0.038 A 
HETATM   31 CL   UNL     1       6.818  30.540  58.405  1.00  0.00    -0.084 Cl
HETATM   32  C   UNL     1       9.541  29.427  57.409  1.00  0.00     0.050 C 
HETATM   33  C   UNL     1       8.409  27.369  56.507  1.00  0.00     0.038 A 
ENDBRANCH   1  26
BRANCH   6  34
HETATM   34  N   UNL     1       8.003  24.035  57.444  1.00  0.00    -0.384 N 
HETATM   35  H   UNL     1       7.479  24.553  58.134  1.00  0.00     0.157 HD
HETATM   36  H   UNL     1       8.730  23.410  57.769  1.00  0.00     0.157 HD
ENDBRANCH   6  34
TORSDOF 8
ENDMDL
MODEL 10
REMARK VINA RESULT:      -8.6      3.081      6.510
REMARK  8 active torsions:
REMARK  status: ('A' for Active; 'I' for Inactive)
REMARK    1  A    between atoms: C_7  and  N_8 
REMARK    2  A    between atoms: C_9  and  S_10 
REMARK    3  A    between atoms: S_10  and  C_11 
REMARK    4  A    between atoms: C_11  and  C_12 
REMARK       I    between atoms: C_12  and  N_13 
REMARK    5  A    between atoms: N_13  and  C_14 
REMARK    6  A    between atoms: C_14  and  C_15 
REMARK    7  A    between atoms: C_15  and  C_16 
REMARK    8  A    between atoms: C_26  and  N_27 
ROOT
HETATM    1  N   UNL     1       6.712  25.550  55.119  1.00  0.00    -0.276 N 
HETATM    2  C   UNL     1       5.523  26.056  54.525  1.00  0.00     0.177 A 
HETATM    3  N   UNL     1       4.932  27.183  54.834  1.00  0.00    -0.204 NA
HETATM    4  C   UNL     1       5.557  27.886  55.802  1.00  0.00     0.162 A 
HETATM    5  C   UNL     1       6.699  27.585  56.490  1.00  0.00     0.081 A 
HETATM    6  C   UNL     1       7.333  26.339  56.180  1.00  0.00     0.124 A 
HETATM    7  N   UNL     1       5.153  29.096  56.284  1.00  0.00    -0.260 N 
HETATM    8  H   UNL     1       4.338  29.635  56.010  1.00  0.00     0.191 HD
HETATM    9  N   UNL     1       5.982  29.589  57.231  1.00  0.00    -0.177 NA
HETATM   10  C   UNL     1       6.943  28.660  57.357  1.00  0.00     0.068 A 
HETATM   11  C   UNL     1       8.050  28.887  58.317  1.00  0.00     0.073 C 
ENDROOT
BRANCH   2  12
HETATM   12  S   UNL     1       4.737  25.166  53.197  1.00  0.00    -0.082 SA
BRANCH  12  13
HETATM   13  C   UNL     1       5.428  26.077  51.781  1.00  0.00     0.185 C 
BRANCH  13  14
HETATM   14  C   UNL     1       4.997  27.530  51.749  1.00  0.00     0.227 C 
HETATM   15  N   UNL     1       3.636  27.749  51.702  1.00  0.00    -0.360 N 
HETATM   16  H   UNL     1       3.032  26.938  51.656  1.00  0.00     0.162 HD
HETATM   17  O   UNL     1       5.825  28.436  51.671  1.00  0.00    -0.273 OA
BRANCH  15  18
HETATM   18  C   UNL     1       3.086  29.046  51.349  1.00  0.00     0.127 C 
BRANCH  18  19
HETATM   19  C   UNL     1       2.488  29.058  49.943  1.00  0.00     0.058 C 
BRANCH  19  20
HETATM   20  C   UNL     1       3.353  28.293  48.972  1.00  0.00    -0.057 A 
HETATM   21  C   UNL     1       3.028  26.977  48.616  1.00  0.00     0.007 A 
HETATM   22  C   UNL     1       3.850  26.254  47.750  1.00  0.00     0.001 A 
HETATM   23  C   UNL     1       5.006  26.838  47.236  1.00  0.00     0.000 A 
HETATM   24  C   UNL     1       5.340  28.145  47.585  1.00  0.00     0.001 A 
HETATM   25  C   UNL     1       4.519  28.870  48.450  1.00  0.00     0.007 A 
ENDBRANCH  19  20
ENDBRANCH  18  19
ENDBRANCH  15  18
ENDBRANCH  13  14
ENDBRANCH  12  13
ENDBRANCH   2  12
BRANCH   1  26
HETATM   26  C   UNL     1       7.311  24.328  54.693  1.00  0.00     0.043 A 
HETATM   27  C   UNL     1       7.924  24.217  53.440  1.00  0.00     0.032 A 
HETATM   28  C   UNL     1       8.429  22.988  53.008  1.00  0.00     0.026 A 
HETATM   29  C   UNL     1       8.316  21.855  53.816  1.00  0.00     0.040 A 
HETATM   30  C   UNL     1       7.700  21.936  55.074  1.00  0.00    -0.038 A 
HETATM   31 CL   UNL     1       8.938  20.363  53.210  1.00  0.00    -0.084 Cl
HETATM   32  C   UNL     1       7.549  20.732  55.963  1.00  0.00     0.050 C 
HETATM   33  C   UNL     1       7.205  23.181  55.501  1.00  0.00     0.038 A 
ENDBRANCH   1  26
BRANCH   6  34
HETATM   34  N   UNL     1       8.391  25.929  56.854  1.00  0.00    -0.384 N 
HETATM   35  H   UNL     1       8.428  25.018  57.286  1.00  0.00     0.157 HD
HETATM   36  H   UNL     1       9.213  26.518  56.917  1.00  0.00     0.157 HD
ENDBRANCH   6  34
TORSDOF 8
ENDMDL
