MODEL 1
REMARK VINA RESULT:      -8.3      0.000      0.000
REMARK  8 active torsions:
REMARK  status: ('A' for Active; 'I' for Inactive)
REMARK    1  A    between atoms: C_2  and  O_3 
REMARK    2  A    between atoms: O_3  and  C_4 
REMARK    3  A    between atoms: C_4  and  C_5 
REMARK    4  A    between atoms: C_5  and  C_6 
REMARK    5  A    between atoms: C_6  and  N_7 
REMARK    6  A    between atoms: C_12  and  C_13 
REMARK    7  A    between atoms: C_23  and  C_24 
REMARK    8  A    between atoms: C_25  and  O_26 
ROOT
HETATM    1  N   UNL     1       6.073  26.555  56.789  1.00  0.00    -0.334 N 
HETATM    2  C   UNL     1       7.271  26.794  57.477  1.00  0.00     0.273 A 
HETATM    3  O   UNL     1       7.553  27.697  58.240  1.00  0.00    -0.266 OA
HETATM    4  C   UNL     1       8.095  25.712  57.084  1.00  0.00     0.129 A 
HETATM    5  C   UNL     1       7.474  24.863  56.218  1.00  0.00     0.034 A 
HETATM    6  C   UNL     1       6.099  25.330  55.937  1.00  0.00     0.159 A 
HETATM    7  N   UNL     1       9.336  25.249  57.296  1.00  0.00    -0.272 N 
HETATM    8  H   UNL     1      10.077  25.637  57.872  1.00  0.00     0.189 HD
HETATM    9  N   UNL     1       9.555  24.092  56.621  1.00  0.00    -0.173 NA
HETATM   10  C   UNL     1       8.401  23.846  55.954  1.00  0.00     0.101 A 
ENDROOT
BRANCH  10  11
HETATM   11  C   UNL     1       8.240  22.667  55.111  1.00  0.00     0.028 A 
HETATM   12  C   UNL     1       8.203  21.369  55.640  1.00  0.00     0.078 A 
HETATM   13  C   UNL     1       7.962  20.267  54.822  1.00  0.00     0.037 A 
HETATM   14  C   UNL     1       7.794  20.447  53.449  1.00  0.00     0.003 A 
HETATM   15  C   UNL     1       7.865  21.727  52.900  1.00  0.00     0.001 A 
HETATM   16  C   UNL     1       8.085  22.831  53.727  1.00  0.00     0.017 A 
BRANCH  12  17
HETATM   17  O   UNL     1       8.440  21.106  56.963  1.00  0.00    -0.360 OA
HETATM   18  H   UNL     1       8.601  21.968  57.388  1.00  0.00     0.217 HD
ENDBRANCH  12  17
ENDBRANCH  10  11
BRANCH   6  19
HETATM   19  C   UNL     1       5.991  25.591  54.454  1.00  0.00    -0.031 A 
HETATM   20  C   UNL     1       4.956  24.975  53.728  1.00  0.00     0.011 A 
HETATM   21  C   UNL     1       4.810  25.199  52.356  1.00  0.00     0.024 A 
HETATM   22  C   UNL     1       5.702  26.038  51.694  1.00  0.00     0.034 A 
HETATM   23 CL   UNL     1       5.519  26.318  50.006  1.00  0.00    -0.084 Cl
HETATM   24  C   UNL     1       6.739  26.652  52.390  1.00  0.00     0.024 A 
HETATM   25  C   UNL     1       6.883  26.429  53.762  1.00  0.00     0.011 A 
ENDBRANCH   6  19
BRANCH   1  26
HETATM   26  C   UNL     1       4.897  27.401  56.916  1.00  0.00     0.129 C 
BRANCH  26  27
HETATM   27  C   UNL     1       4.998  28.718  56.142  1.00  0.00     0.046 C 
BRANCH  27  28
HETATM   28  C   UNL     1       4.167  28.723  54.864  1.00  0.00     0.169 C 
BRANCH  28  29
HETATM   29  O   UNL     1       4.923  29.340  53.826  1.00  0.00    -0.387 OA
BRANCH  29  30
HETATM   30  C   UNL     1       4.150  29.683  52.673  1.00  0.00     0.113 C 
HETATM   31  C   UNL     1       3.070  28.640  52.403  1.00  0.00     0.039 C 
HETATM   32  C   UNL     1       5.116  29.766  51.497  1.00  0.00     0.039 C 
ENDBRANCH  29  30
ENDBRANCH  28  29
ENDBRANCH  27  28
ENDBRANCH  26  27
ENDBRANCH   1  26
TORSDOF 8
ENDMDL
MODEL 2
REMARK VINA RESULT:      -8.1      1.543      2.503
REMARK  8 active torsions:
REMARK  status: ('A' for Active; 'I' for Inactive)
REMARK    1  A    between atoms: C_2  and  O_3 
REMARK    2  A    between atoms: O_3  and  C_4 
REMARK    3  A    between atoms: C_4  and  C_5 
REMARK    4  A    between atoms: C_5  and  C_6 
REMARK    5  A    between atoms: C_6  and  N_7 
REMARK    6  A    between atoms: C_12  and  C_13 
REMARK    7  A    between atoms: C_23  and  C_24 
REMARK    8  A    between atoms: C_25  and  O_26 
ROOT
HETATM    1  N   UNL     1       6.033  26.585  56.795  1.00  0.00    -0.334 N 
HETATM    2  C   UNL     1       7.234  26.834  57.474  1.00  0.00     0.273 A 
HETATM    3  O   UNL     1       7.513  27.740  58.236  1.00  0.00    -0.266 OA
HETATM    4  C   UNL     1       8.064  25.760  57.075  1.00  0.00     0.129 A 
HETATM    5  C   UNL     1       7.445  24.906  56.213  1.00  0.00     0.034 A 
HETATM    6  C   UNL     1       6.064  25.361  55.942  1.00  0.00     0.159 A 
HETATM    7  N   UNL     1       9.311  25.308  57.278  1.00  0.00    -0.272 N 
HETATM    8  H   UNL     1      10.052  25.702  57.849  1.00  0.00     0.189 HD
HETATM    9  N   UNL     1       9.535  24.153  56.601  1.00  0.00    -0.173 NA
HETATM   10  C   UNL     1       8.380  23.898  55.942  1.00  0.00     0.101 A 
ENDROOT
BRANCH  10  11
HETATM   11  C   UNL     1       8.223  22.718  55.099  1.00  0.00     0.028 A 
HETATM   12  C   UNL     1       8.150  21.423  55.631  1.00  0.00     0.078 A 
HETATM   13  C   UNL     1       7.915  20.321  54.811  1.00  0.00     0.037 A 
HETATM   14  C   UNL     1       7.788  20.498  53.434  1.00  0.00     0.003 A 
HETATM   15  C   UNL     1       7.894  21.774  52.882  1.00  0.00     0.001 A 
HETATM   16  C   UNL     1       8.109  22.879  53.710  1.00  0.00     0.017 A 
BRANCH  12  17
HETATM   17  O   UNL     1       8.347  21.162  56.962  1.00  0.00    -0.360 OA
HETATM   18  H   UNL     1       9.308  21.056  57.080  1.00  0.00     0.217 HD
ENDBRANCH  12  17
ENDBRANCH  10  11
BRANCH   6  19
HETATM   19  C   UNL     1       5.943  25.622  54.460  1.00  0.00    -0.031 A 
HETATM   20  C   UNL     1       5.023  24.869  53.708  1.00  0.00     0.011 A 
HETATM   21  C   UNL     1       4.869  25.086  52.336  1.00  0.00     0.024 A 
HETATM   22  C   UNL     1       5.637  26.056  51.699  1.00  0.00     0.034 A 
HETATM   23 CL   UNL     1       5.444  26.327  50.011  1.00  0.00    -0.084 Cl
HETATM   24  C   UNL     1       6.560  26.808  52.420  1.00  0.00     0.024 A 
HETATM   25  C   UNL     1       6.713  26.592  53.793  1.00  0.00     0.011 A 
ENDBRANCH   6  19
BRANCH   1  26
HETATM   26  C   UNL     1       4.851  27.421  56.930  1.00  0.00     0.129 C 
BRANCH  26  27
HETATM   27  C   UNL     1       4.969  28.777  56.229  1.00  0.00     0.046 C 
BRANCH  27  28
HETATM   28  C   UNL     1       4.806  29.956  57.182  1.00  0.00     0.169 C 
BRANCH  28  29
HETATM   29  O   UNL     1       6.036  30.672  57.243  1.00  0.00    -0.387 OA
BRANCH  29  30
HETATM   30  C   UNL     1       6.376  31.129  58.554  1.00  0.00     0.113 C 
HETATM   31  C   UNL     1       5.763  32.497  58.837  1.00  0.00     0.039 C 
HETATM   32  C   UNL     1       7.896  31.203  58.621  1.00  0.00     0.039 C 
ENDBRANCH  29  30
ENDBRANCH  28  29
ENDBRANCH  27  28
ENDBRANCH  26  27
ENDBRANCH   1  26
TORSDOF 8
ENDMDL
MODEL 3
REMARK VINA RESULT:      -8.0      2.846      5.889
REMARK  8 active torsions:
REMARK  status: ('A' for Active; 'I' for Inactive)
REMARK    1  A    between atoms: C_2  and  O_3 
REMARK    2  A    between atoms: O_3  and  C_4 
REMARK    3  A    between atoms: C_4  and  C_5 
REMARK    4  A    between atoms: C_5  and  C_6 
REMARK    5  A    between atoms: C_6  and  N_7 
REMARK    6  A    between atoms: C_12  and  C_13 
REMARK    7  A    between atoms: C_23  and  C_24 
REMARK    8  A    between atoms: C_25  and  O_26 
ROOT
HETATM    1  N   UNL     1       7.023  27.827  55.822  1.00  0.00    -0.334 N 
HETATM    2  C   UNL     1       5.779  28.234  56.327  1.00  0.00     0.273 A 
HETATM    3  O   UNL     1       5.470  28.523  57.466  1.00  0.00    -0.266 OA
HETATM    4  C   UNL     1       4.949  28.247  55.181  1.00  0.00     0.129 A 
HETATM    5  C   UNL     1       5.608  27.875  54.047  1.00  0.00     0.034 A 
HETATM    6  C   UNL     1       7.020  27.561  54.353  1.00  0.00     0.159 A 
HETATM    7  N   UNL     1       3.676  28.510  54.850  1.00  0.00    -0.272 N 
HETATM    8  H   UNL     1       2.904  28.798  55.444  1.00  0.00     0.189 HD
HETATM    9  N   UNL     1       3.469  28.358  53.517  1.00  0.00    -0.173 NA
HETATM   10  C   UNL     1       4.665  27.968  53.014  1.00  0.00     0.101 A 
ENDROOT
BRANCH  10  11
HETATM   11  C   UNL     1       4.850  27.709  51.591  1.00  0.00     0.028 A 
HETATM   12  C   UNL     1       4.702  26.429  51.039  1.00  0.00     0.078 A 
HETATM   13  C   UNL     1       4.799  26.224  49.664  1.00  0.00     0.037 A 
HETATM   14  C   UNL     1       5.087  27.299  48.822  1.00  0.00     0.003 A 
HETATM   15  C   UNL     1       5.274  28.573  49.358  1.00  0.00     0.001 A 
HETATM   16  C   UNL     1       5.154  28.777  50.735  1.00  0.00     0.017 A 
BRANCH  12  17
HETATM   17  O   UNL     1       4.499  25.313  51.808  1.00  0.00    -0.360 OA
HETATM   18  H   UNL     1       3.960  24.705  51.270  1.00  0.00     0.217 HD
ENDBRANCH  12  17
ENDBRANCH  10  11
BRANCH   6  19
HETATM   19  C   UNL     1       7.269  26.122  53.972  1.00  0.00    -0.031 A 
HETATM   20  C   UNL     1       6.892  25.105  54.868  1.00  0.00     0.011 A 
HETATM   21  C   UNL     1       7.092  23.759  54.550  1.00  0.00     0.024 A 
HETATM   22  C   UNL     1       7.676  23.415  53.335  1.00  0.00     0.034 A 
HETATM   23 CL   UNL     1       7.917  21.757  52.941  1.00  0.00    -0.084 Cl
HETATM   24  C   UNL     1       8.064  24.403  52.435  1.00  0.00     0.024 A 
HETATM   25  C   UNL     1       7.862  25.750  52.753  1.00  0.00     0.011 A 
ENDBRANCH   6  19
BRANCH   1  26
HETATM   26  C   UNL     1       8.217  27.706  56.642  1.00  0.00     0.129 C 
BRANCH  26  27
HETATM   27  C   UNL     1       9.200  28.868  56.476  1.00  0.00     0.046 C 
BRANCH  27  28
HETATM   28  C   UNL     1       9.525  29.565  57.793  1.00  0.00     0.169 C 
BRANCH  28  29
HETATM   29  O   UNL     1       8.429  29.396  58.686  1.00  0.00    -0.387 OA
BRANCH  29  30
HETATM   30  C   UNL     1       8.123  30.563  59.454  1.00  0.00     0.113 C 
HETATM   31  C   UNL     1       6.996  31.366  58.811  1.00  0.00     0.039 C 
HETATM   32  C   UNL     1       9.396  31.397  59.524  1.00  0.00     0.039 C 
ENDBRANCH  29  30
ENDBRANCH  28  29
ENDBRANCH  27  28
ENDBRANCH  26  27
ENDBRANCH   1  26
TORSDOF 8
ENDMDL
MODEL 4
REMARK VINA RESULT:      -7.9      2.976      7.660
REMARK  8 active torsions:
REMARK  status: ('A' for Active; 'I' for Inactive)
REMARK    1  A    between atoms: C_2  and  O_3 
REMARK    2  A    between atoms: O_3  and  C_4 
REMARK    3  A    between atoms: C_4  and  C_5 
REMARK    4  A    between atoms: C_5  and  C_6 
REMARK    5  A    between atoms: C_6  and  N_7 
REMARK    6  A    between atoms: C_12  and  C_13 
REMARK    7  A    between atoms: C_23  and  C_24 
REMARK    8  A    between atoms: C_25  and  O_26 
ROOT
HETATM    1  N   UNL     1       6.175  25.384  55.297  1.00  0.00    -0.334 N 
HETATM    2  C   UNL     1       5.718  25.167  53.988  1.00  0.00     0.273 A 
HETATM    3  O   UNL     1       5.851  24.188  53.280  1.00  0.00    -0.266 OA
HETATM    4  C   UNL     1       5.038  26.368  53.676  1.00  0.00     0.129 A 
HETATM    5  C   UNL     1       5.065  27.271  54.696  1.00  0.00     0.034 A 
HETATM    6  C   UNL     1       5.811  26.723  55.848  1.00  0.00     0.159 A 
HETATM    7  N   UNL     1       4.360  26.917  52.657  1.00  0.00    -0.272 N 
HETATM    8  H   UNL     1       4.160  26.535  51.738  1.00  0.00     0.189 HD
HETATM    9  N   UNL     1       3.902  28.154  52.977  1.00  0.00    -0.173 NA
HETATM   10  C   UNL     1       4.333  28.377  54.241  1.00  0.00     0.101 A 
ENDROOT
BRANCH  10  11
HETATM   11  C   UNL     1       4.028  29.615  54.948  1.00  0.00     0.028 A 
HETATM   12  C   UNL     1       4.081  30.868  54.320  1.00  0.00     0.078 A 
HETATM   13  C   UNL     1       3.701  32.026  54.994  1.00  0.00     0.037 A 
HETATM   14  C   UNL     1       3.298  31.951  56.327  1.00  0.00     0.003 A 
HETATM   15  C   UNL     1       3.274  30.719  56.980  1.00  0.00     0.001 A 
HETATM   16  C   UNL     1       3.635  29.557  56.293  1.00  0.00     0.017 A 
BRANCH  12  17
HETATM   17  O   UNL     1       4.544  31.031  53.040  1.00  0.00    -0.360 OA
HETATM   18  H   UNL     1       5.016  31.883  53.028  1.00  0.00     0.217 HD
ENDBRANCH  12  17
ENDBRANCH  10  11
BRANCH   6  19
HETATM   19  C   UNL     1       6.984  27.633  56.119  1.00  0.00    -0.031 A 
HETATM   20  C   UNL     1       7.317  27.939  57.450  1.00  0.00     0.011 A 
HETATM   21  C   UNL     1       8.403  28.767  57.747  1.00  0.00     0.024 A 
HETATM   22  C   UNL     1       9.166  29.303  56.714  1.00  0.00     0.034 A 
HETATM   23 CL   UNL     1      10.506  30.318  57.079  1.00  0.00    -0.084 Cl
HETATM   24  C   UNL     1       8.852  29.022  55.388  1.00  0.00     0.024 A 
HETATM   25  C   UNL     1       7.766  28.192  55.092  1.00  0.00     0.011 A 
ENDBRANCH   6  19
BRANCH   1  26
HETATM   26  C   UNL     1       6.907  24.389  56.062  1.00  0.00     0.129 C 
BRANCH  26  27
HETATM   27  C   UNL     1       8.399  24.324  55.722  1.00  0.00     0.046 C 
BRANCH  27  28
HETATM   28  C   UNL     1       8.907  22.897  55.545  1.00  0.00     0.169 C 
BRANCH  28  29
HETATM   29  O   UNL     1       8.644  22.478  54.209  1.00  0.00    -0.387 OA
BRANCH  29  30
HETATM   30  C   UNL     1       7.823  21.310  54.120  1.00  0.00     0.113 C 
HETATM   31  C   UNL     1       7.895  20.487  55.403  1.00  0.00     0.039 C 
HETATM   32  C   UNL     1       8.333  20.496  52.937  1.00  0.00     0.039 C 
ENDBRANCH  29  30
ENDBRANCH  28  29
ENDBRANCH  27  28
ENDBRANCH  26  27
ENDBRANCH   1  26
TORSDOF 8
ENDMDL
MODEL 5
REMARK VINA RESULT:      -7.5      5.008      7.354
REMARK  8 active torsions:
REMARK  status: ('A' for Active; 'I' for Inactive)
REMARK    1  A    between atoms: C_2  and  O_3 
REMARK    2  A    between atoms: O_3  and  C_4 
REMARK    3  A    between atoms: C_4  and  C_5 
REMARK    4  A    between atoms: C_5  and  C_6 
REMARK    5  A    between atoms: C_6  and  N_7 
REMARK    6  A    between atoms: C_12  and  C_13 
REMARK    7  A    between atoms: C_23  and  C_24 
REMARK    8  A    between atoms: C_25  and  O_26 
ROOT
HETATM    1  N   UNL     1       8.179  31.142  59.191  1.00  0.00    -0.334 N 
HETATM    2  C   UNL     1       9.421  31.459  58.624  1.00  0.00     0.273 A 
HETATM    3  O   UNL     1      10.212  32.327  58.941  1.00  0.00    -0.266 OA
HETATM    4  C   UNL     1       9.559  30.509  57.585  1.00  0.00     0.129 A 
HETATM    5  C   UNL     1       8.493  29.665  57.496  1.00  0.00     0.034 A 
HETATM    6  C   UNL     1       7.488  29.996  58.529  1.00  0.00     0.159 A 
HETATM    7  N   UNL     1      10.432  30.172  56.623  1.00  0.00    -0.272 N 
HETATM    8  H   UNL     1      11.325  30.596  56.389  1.00  0.00     0.189 HD
HETATM    9  N   UNL     1       9.996  29.102  55.911  1.00  0.00    -0.173 NA
HETATM   10  C   UNL     1       8.796  28.781  56.451  1.00  0.00     0.101 A 
ENDROOT
BRANCH  10  11
HETATM   11  C   UNL     1       8.007  27.660  55.954  1.00  0.00     0.028 A 
HETATM   12  C   UNL     1       7.569  27.586  54.624  1.00  0.00     0.078 A 
HETATM   13  C   UNL     1       6.891  26.463  54.153  1.00  0.00     0.037 A 
HETATM   14  C   UNL     1       6.607  25.410  55.022  1.00  0.00     0.003 A 
HETATM   15  C   UNL     1       7.003  25.482  56.357  1.00  0.00     0.001 A 
HETATM   16  C   UNL     1       7.701  26.600  56.820  1.00  0.00     0.017 A 
BRANCH  12  17
HETATM   17  O   UNL     1       7.738  28.613  53.734  1.00  0.00    -0.360 OA
HETATM   18  H   UNL     1       8.035  29.381  54.256  1.00  0.00     0.217 HD
ENDBRANCH  12  17
ENDBRANCH  10  11
BRANCH   6  19
HETATM   19  C   UNL     1       6.201  30.356  57.827  1.00  0.00    -0.031 A 
HETATM   20  C   UNL     1       5.928  31.708  57.555  1.00  0.00     0.011 A 
HETATM   21  C   UNL     1       4.755  32.085  56.895  1.00  0.00     0.024 A 
HETATM   22  C   UNL     1       3.839  31.113  56.505  1.00  0.00     0.034 A 
HETATM   23 CL   UNL     1       2.397  31.577  55.688  1.00  0.00    -0.084 Cl
HETATM   24  C   UNL     1       4.083  29.769  56.769  1.00  0.00     0.024 A 
HETATM   25  C   UNL     1       5.258  29.392  57.428  1.00  0.00     0.011 A 
ENDBRANCH   6  19
BRANCH   1  26
HETATM   26  C   UNL     1       7.623  31.839  60.339  1.00  0.00     0.129 C 
BRANCH  26  27
HETATM   27  C   UNL     1       8.036  31.238  61.685  1.00  0.00     0.046 C 
BRANCH  27  28
HETATM   28  C   UNL     1       8.100  32.271  62.805  1.00  0.00     0.169 C 
BRANCH  28  29
HETATM   29  O   UNL     1       7.161  33.306  62.530  1.00  0.00    -0.387 OA
BRANCH  29  30
HETATM   30  C   UNL     1       6.470  33.783  63.687  1.00  0.00     0.113 C 
HETATM   31  C   UNL     1       7.324  33.629  64.942  1.00  0.00     0.039 C 
HETATM   32  C   UNL     1       5.190  32.966  63.811  1.00  0.00     0.039 C 
ENDBRANCH  29  30
ENDBRANCH  28  29
ENDBRANCH  27  28
ENDBRANCH  26  27
ENDBRANCH   1  26
TORSDOF 8
ENDMDL
MODEL 6
REMARK VINA RESULT:      -7.3      1.697      2.519
REMARK  8 active torsions:
REMARK  status: ('A' for Active; 'I' for Inactive)
REMARK    1  A    between atoms: C_2  and  O_3 
REMARK    2  A    between atoms: O_3  and  C_4 
REMARK    3  A    between atoms: C_4  and  C_5 
REMARK    4  A    between atoms: C_5  and  C_6 
REMARK    5  A    between atoms: C_6  and  N_7 
REMARK    6  A    between atoms: C_12  and  C_13 
REMARK    7  A    between atoms: C_23  and  C_24 
REMARK    8  A    between atoms: C_25  and  O_26 
ROOT
HETATM    1  N   UNL     1       5.963  26.634  56.819  1.00  0.00    -0.334 N 
HETATM    2  C   UNL     1       7.190  26.887  57.448  1.00  0.00     0.273 A 
HETATM    3  O   UNL     1       7.501  27.799  58.189  1.00  0.00    -0.266 OA
HETATM    4  C   UNL     1       8.001  25.806  57.029  1.00  0.00     0.129 A 
HETATM    5  C   UNL     1       7.346  24.944  56.201  1.00  0.00     0.034 A 
HETATM    6  C   UNL     1       5.958  25.400  55.979  1.00  0.00     0.159 A 
HETATM    7  N   UNL     1       9.254  25.351  57.189  1.00  0.00    -0.272 N 
HETATM    8  H   UNL     1      10.018  25.750  57.725  1.00  0.00     0.189 HD
HETATM    9  N   UNL     1       9.448  24.189  56.516  1.00  0.00    -0.173 NA
HETATM   10  C   UNL     1       8.267  23.930  55.905  1.00  0.00     0.101 A 
ENDROOT
BRANCH  10  11
HETATM   11  C   UNL     1       8.075  22.741  55.082  1.00  0.00     0.028 A 
HETATM   12  C   UNL     1       8.168  22.777  53.683  1.00  0.00     0.078 A 
HETATM   13  C   UNL     1       8.066  21.612  52.926  1.00  0.00     0.037 A 
HETATM   14  C   UNL     1       7.827  20.393  53.561  1.00  0.00     0.003 A 
HETATM   15  C   UNL     1       7.695  20.343  54.948  1.00  0.00     0.001 A 
HETATM   16  C   UNL     1       7.821  21.511  55.705  1.00  0.00     0.017 A 
BRANCH  12  17
HETATM   17  O   UNL     1       8.320  23.946  52.985  1.00  0.00    -0.360 OA
HETATM   18  H   UNL     1       7.887  23.807  52.123  1.00  0.00     0.217 HD
ENDBRANCH  12  17
ENDBRANCH  10  11
BRANCH   6  19
HETATM   19  C   UNL     1       5.780  25.645  54.500  1.00  0.00    -0.031 A 
HETATM   20  C   UNL     1       6.440  26.735  53.905  1.00  0.00     0.011 A 
HETATM   21  C   UNL     1       6.314  26.991  52.536  1.00  0.00     0.024 A 
HETATM   22  C   UNL     1       5.522  26.162  51.749  1.00  0.00     0.034 A 
HETATM   23 CL   UNL     1       5.371  26.473  50.063  1.00  0.00    -0.084 Cl
HETATM   24  C   UNL     1       4.852  25.081  52.315  1.00  0.00     0.024 A 
HETATM   25  C   UNL     1       4.980  24.825  53.684  1.00  0.00     0.011 A 
ENDBRANCH   6  19
BRANCH   1  26
HETATM   26  C   UNL     1       4.789  27.474  56.991  1.00  0.00     0.129 C 
BRANCH  26  27
HETATM   27  C   UNL     1       4.856  28.794  56.217  1.00  0.00     0.046 C 
BRANCH  27  28
HETATM   28  C   UNL     1       4.646  30.016  57.104  1.00  0.00     0.169 C 
BRANCH  28  29
HETATM   29  O   UNL     1       4.902  31.190  56.340  1.00  0.00    -0.387 OA
BRANCH  29  30
HETATM   30  C   UNL     1       4.155  32.333  56.765  1.00  0.00     0.113 C 
HETATM   31  C   UNL     1       3.832  32.257  58.254  1.00  0.00     0.039 C 
HETATM   32  C   UNL     1       2.872  32.357  55.943  1.00  0.00     0.039 C 
ENDBRANCH  29  30
ENDBRANCH  28  29
ENDBRANCH  27  28
ENDBRANCH  26  27
ENDBRANCH   1  26
TORSDOF 8
ENDMDL
MODEL 7
REMARK VINA RESULT:      -7.2      8.514     12.209
REMARK  8 active torsions:
REMARK  status: ('A' for Active; 'I' for Inactive)
REMARK    1  A    between atoms: C_2  and  O_3 
REMARK    2  A    between atoms: O_3  and  C_4 
REMARK    3  A    between atoms: C_4  and  C_5 
REMARK    4  A    between atoms: C_5  and  C_6 
REMARK    5  A    between atoms: C_6  and  N_7 
REMARK    6  A    between atoms: C_12  and  C_13 
REMARK    7  A    between atoms: C_23  and  C_24 
REMARK    8  A    between atoms: C_25  and  O_26 
ROOT
HETATM    1  N   UNL     1       3.293  32.633  60.671  1.00  0.00    -0.334 N 
HETATM    2  C   UNL     1       2.721  33.880  60.379  1.00  0.00     0.273 A 
HETATM    3  O   UNL     1       2.080  34.222  59.404  1.00  0.00    -0.266 OA
HETATM    4  C   UNL     1       3.051  34.665  61.509  1.00  0.00     0.129 A 
HETATM    5  C   UNL     1       3.775  33.977  62.436  1.00  0.00     0.034 A 
HETATM    6  C   UNL     1       4.008  32.590  61.981  1.00  0.00     0.159 A 
HETATM    7  N   UNL     1       2.877  35.914  61.966  1.00  0.00    -0.272 N 
HETATM    8  H   UNL     1       2.400  36.697  61.530  1.00  0.00     0.189 HD
HETATM    9  N   UNL     1       3.437  36.075  63.192  1.00  0.00    -0.173 NA
HETATM   10  C   UNL     1       3.992  34.876  63.490  1.00  0.00     0.101 A 
ENDROOT
BRANCH  10  11
HETATM   11  C   UNL     1       4.690  34.646  64.749  1.00  0.00     0.028 A 
HETATM   12  C   UNL     1       4.041  34.728  65.990  1.00  0.00     0.078 A 
HETATM   13  C   UNL     1       4.710  34.420  67.173  1.00  0.00     0.037 A 
HETATM   14  C   UNL     1       6.057  34.061  67.133  1.00  0.00     0.003 A 
HETATM   15  C   UNL     1       6.729  34.010  65.912  1.00  0.00     0.001 A 
HETATM   16  C   UNL     1       6.048  34.298  64.726  1.00  0.00     0.017 A 
BRANCH  12  17
HETATM   17  O   UNL     1       2.744  35.152  66.116  1.00  0.00    -0.360 OA
HETATM   18  H   UNL     1       2.584  35.763  65.374  1.00  0.00     0.217 HD
ENDBRANCH  12  17
ENDBRANCH  10  11
BRANCH   6  19
HETATM   19  C   UNL     1       5.499  32.378  61.879  1.00  0.00    -0.031 A 
HETATM   20  C   UNL     1       6.226  33.104  60.918  1.00  0.00     0.011 A 
HETATM   21  C   UNL     1       7.610  32.949  60.797  1.00  0.00     0.024 A 
HETATM   22  C   UNL     1       8.282  32.062  61.633  1.00  0.00     0.034 A 
HETATM   23 CL   UNL     1       9.986  31.876  61.489  1.00  0.00    -0.084 Cl
HETATM   24  C   UNL     1       7.583  31.327  62.587  1.00  0.00     0.024 A 
HETATM   25  C   UNL     1       6.199  31.484  62.708  1.00  0.00     0.011 A 
ENDBRANCH   6  19
BRANCH   1  26
HETATM   26  C   UNL     1       3.176  31.477  59.799  1.00  0.00     0.129 C 
BRANCH  26  27
HETATM   27  C   UNL     1       3.804  31.680  58.417  1.00  0.00     0.046 C 
BRANCH  27  28
HETATM   28  C   UNL     1       4.687  30.514  57.987  1.00  0.00     0.169 C 
BRANCH  28  29
HETATM   29  O   UNL     1       6.045  30.945  57.972  1.00  0.00    -0.387 OA
BRANCH  29  30
HETATM   30  C   UNL     1       6.974  29.921  57.606  1.00  0.00     0.113 C 
HETATM   31  C   UNL     1       6.268  28.584  57.403  1.00  0.00     0.039 C 
HETATM   32  C   UNL     1       7.992  29.820  58.735  1.00  0.00     0.039 C 
ENDBRANCH  29  30
ENDBRANCH  28  29
ENDBRANCH  27  28
ENDBRANCH  26  27
ENDBRANCH   1  26
TORSDOF 8
ENDMDL
MODEL 8
REMARK VINA RESULT:      -7.1      2.791      6.341
REMARK  8 active torsions:
REMARK  status: ('A' for Active; 'I' for Inactive)
REMARK    1  A    between atoms: C_2  and  O_3 
REMARK    2  A    between atoms: O_3  and  C_4 
REMARK    3  A    between atoms: C_4  and  C_5 
REMARK    4  A    between atoms: C_5  and  C_6 
REMARK    5  A    between atoms: C_6  and  N_7 
REMARK    6  A    between atoms: C_12  and  C_13 
REMARK    7  A    between atoms: C_23  and  C_24 
REMARK    8  A    between atoms: C_25  and  O_26 
ROOT
HETATM    1  N   UNL     1       6.093  28.756  54.630  1.00  0.00    -0.334 N 
HETATM    2  C   UNL     1       4.798  29.246  54.857  1.00  0.00     0.273 A 
HETATM    3  O   UNL     1       4.321  29.720  55.869  1.00  0.00    -0.266 OA
HETATM    4  C   UNL     1       4.159  29.072  53.606  1.00  0.00     0.129 A 
HETATM    5  C   UNL     1       4.977  28.516  52.668  1.00  0.00     0.034 A 
HETATM    6  C   UNL     1       6.313  28.251  53.243  1.00  0.00     0.159 A 
HETATM    7  N   UNL     1       2.963  29.282  53.037  1.00  0.00    -0.272 N 
HETATM    8  H   UNL     1       2.116  29.667  53.444  1.00  0.00     0.189 HD
HETATM    9  N   UNL     1       2.964  28.912  51.731  1.00  0.00    -0.173 NA
HETATM   10  C   UNL     1       4.212  28.440  51.496  1.00  0.00     0.101 A 
ENDROOT
BRANCH  10  11
HETATM   11  C   UNL     1       4.611  27.949  50.182  1.00  0.00     0.028 A 
HETATM   12  C   UNL     1       4.584  26.586  49.854  1.00  0.00     0.078 A 
HETATM   13  C   UNL     1       4.887  26.151  48.565  1.00  0.00     0.037 A 
HETATM   14  C   UNL     1       5.263  27.078  47.593  1.00  0.00     0.003 A 
HETATM   15  C   UNL     1       5.331  28.434  47.911  1.00  0.00     0.001 A 
HETATM   16  C   UNL     1       5.005  28.867  49.199  1.00  0.00     0.017 A 
BRANCH  12  17
HETATM   17  O   UNL     1       4.304  25.611  50.776  1.00  0.00    -0.360 OA
HETATM   18  H   UNL     1       5.142  25.140  50.937  1.00  0.00     0.217 HD
ENDBRANCH  12  17
ENDBRANCH  10  11
BRANCH   6  19
HETATM   19  C   UNL     1       6.575  26.768  53.146  1.00  0.00    -0.031 A 
HETATM   20  C   UNL     1       7.734  26.322  52.487  1.00  0.00     0.011 A 
HETATM   21  C   UNL     1       8.023  24.958  52.385  1.00  0.00     0.024 A 
HETATM   22  C   UNL     1       7.152  24.024  52.938  1.00  0.00     0.034 A 
HETATM   23 CL   UNL     1       7.510  22.345  52.818  1.00  0.00    -0.084 Cl
HETATM   24  C   UNL     1       5.994  24.440  53.589  1.00  0.00     0.024 A 
HETATM   25  C   UNL     1       5.707  25.805  53.692  1.00  0.00     0.011 A 
ENDBRANCH   6  19
BRANCH   1  26
HETATM   26  C   UNL     1       7.138  28.767  55.640  1.00  0.00     0.129 C 
BRANCH  26  27
HETATM   27  C   UNL     1       6.760  28.031  56.928  1.00  0.00     0.046 C 
BRANCH  27  28
HETATM   28  C   UNL     1       7.880  27.143  57.457  1.00  0.00     0.169 C 
BRANCH  28  29
HETATM   29  O   UNL     1       8.161  26.132  56.494  1.00  0.00    -0.387 OA
BRANCH  29  30
HETATM   30  C   UNL     1       8.030  24.800  56.997  1.00  0.00     0.113 C 
HETATM   31  C   UNL     1       8.873  23.820  56.187  1.00  0.00     0.039 C 
HETATM   32  C   UNL     1       6.554  24.433  56.908  1.00  0.00     0.039 C 
ENDBRANCH  29  30
ENDBRANCH  28  29
ENDBRANCH  27  28
ENDBRANCH  26  27
ENDBRANCH   1  26
TORSDOF 8
ENDMDL
MODEL 9
REMARK VINA RESULT:      -6.8      3.724      6.934
REMARK  8 active torsions:
REMARK  status: ('A' for Active; 'I' for Inactive)
REMARK    1  A    between atoms: C_2  and  O_3 
REMARK    2  A    between atoms: O_3  and  C_4 
REMARK    3  A    between atoms: C_4  and  C_5 
REMARK    4  A    between atoms: C_5  and  C_6 
REMARK    5  A    between atoms: C_6  and  N_7 
REMARK    6  A    between atoms: C_12  and  C_13 
REMARK    7  A    between atoms: C_23  and  C_24 
REMARK    8  A    between atoms: C_25  and  O_26 
ROOT
HETATM    1  N   UNL     1       5.149  28.305  55.154  1.00  0.00    -0.334 N 
HETATM    2  C   UNL     1       5.408  27.008  55.619  1.00  0.00     0.273 A 
HETATM    3  O   UNL     1       4.882  25.958  55.302  1.00  0.00    -0.266 OA
HETATM    4  C   UNL     1       6.455  27.197  56.552  1.00  0.00     0.129 A 
HETATM    5  C   UNL     1       6.825  28.503  56.672  1.00  0.00     0.034 A 
HETATM    6  C   UNL     1       6.009  29.353  55.779  1.00  0.00     0.159 A 
HETATM    7  N   UNL     1       7.217  26.475  57.387  1.00  0.00    -0.272 N 
HETATM    8  H   UNL     1       7.204  25.475  57.567  1.00  0.00     0.189 HD
HETATM    9  N   UNL     1       8.113  27.256  58.042  1.00  0.00    -0.173 NA
HETATM   10  C   UNL     1       7.876  28.515  57.599  1.00  0.00     0.101 A 
ENDROOT
BRANCH  10  11
HETATM   11  C   UNL     1       8.657  29.652  58.073  1.00  0.00     0.028 A 
HETATM   12  C   UNL     1       9.932  29.946  57.569  1.00  0.00     0.078 A 
HETATM   13  C   UNL     1      10.620  31.088  57.976  1.00  0.00     0.037 A 
HETATM   14  C   UNL     1      10.053  31.934  58.928  1.00  0.00     0.003 A 
HETATM   15  C   UNL     1       8.802  31.638  59.468  1.00  0.00     0.001 A 
HETATM   16  C   UNL     1       8.107  30.505  59.041  1.00  0.00     0.017 A 
BRANCH  12  17
HETATM   17  O   UNL     1      10.586  29.120  56.693  1.00  0.00    -0.360 OA
HETATM   18  H   UNL     1      10.020  29.056  55.903  1.00  0.00     0.217 HD
ENDBRANCH  12  17
ENDBRANCH  10  11
BRANCH   6  19
HETATM   19  C   UNL     1       5.267  30.350  56.636  1.00  0.00    -0.031 A 
HETATM   20  C   UNL     1       5.530  31.721  56.468  1.00  0.00     0.011 A 
HETATM   21  C   UNL     1       4.856  32.680  57.231  1.00  0.00     0.024 A 
HETATM   22  C   UNL     1       3.915  32.276  58.174  1.00  0.00     0.034 A 
HETATM   23 CL   UNL     1       3.082  33.456  59.109  1.00  0.00    -0.084 Cl
HETATM   24  C   UNL     1       3.644  30.924  58.363  1.00  0.00     0.024 A 
HETATM   25  C   UNL     1       4.317  29.966  57.599  1.00  0.00     0.011 A 
ENDBRANCH   6  19
BRANCH   1  26
HETATM   26  C   UNL     1       4.159  28.605  54.134  1.00  0.00     0.129 C 
BRANCH  26  27
HETATM   27  C   UNL     1       4.753  28.813  52.738  1.00  0.00     0.046 C 
BRANCH  27  28
HETATM   28  C   UNL     1       4.779  27.536  51.905  1.00  0.00     0.169 C 
BRANCH  28  29
HETATM   29  O   UNL     1       6.106  27.018  51.899  1.00  0.00    -0.387 OA
BRANCH  29  30
HETATM   30  C   UNL     1       6.182  25.628  51.570  1.00  0.00     0.113 C 
HETATM   31  C   UNL     1       5.006  24.856  52.161  1.00  0.00     0.039 C 
HETATM   32  C   UNL     1       7.498  25.108  52.136  1.00  0.00     0.039 C 
ENDBRANCH  29  30
ENDBRANCH  28  29
ENDBRANCH  27  28
ENDBRANCH  26  27
ENDBRANCH   1  26
TORSDOF 8
ENDMDL
MODEL 10
REMARK VINA RESULT:      -6.7      9.767     12.550
REMARK  8 active torsions:
REMARK  status: ('A' for Active; 'I' for Inactive)
REMARK    1  A    between atoms: C_2  and  O_3 
REMARK    2  A    between atoms: O_3  and  C_4 
REMARK    3  A    between atoms: C_4  and  C_5 
REMARK    4  A    between atoms: C_5  and  C_6 
REMARK    5  A    between atoms: C_6  and  N_7 
REMARK    6  A    between atoms: C_12  and  C_13 
REMARK    7  A    between atoms: C_23  and  C_24 
REMARK    8  A    between atoms: C_25  and  O_26 
ROOT
HETATM    1  N   UNL     1       3.367  35.683  60.549  1.00  0.00    -0.334 N 
HETATM    2  C   UNL     1       2.700  34.788  59.700  1.00  0.00     0.273 A 
HETATM    3  O   UNL     1       1.648  34.929  59.108  1.00  0.00    -0.266 OA
HETATM    4  C   UNL     1       3.557  33.662  59.673  1.00  0.00     0.129 A 
HETATM    5  C   UNL     1       4.669  33.826  60.443  1.00  0.00     0.034 A 
HETATM    6  C   UNL     1       4.653  35.154  61.093  1.00  0.00     0.159 A 
HETATM    7  N   UNL     1       3.618  32.443  59.117  1.00  0.00    -0.272 N 
HETATM    8  H   UNL     1       2.954  31.984  58.500  1.00  0.00     0.189 HD
HETATM    9  N   UNL     1       4.758  31.795  59.467  1.00  0.00    -0.173 NA
HETATM   10  C   UNL     1       5.415  32.650  60.286  1.00  0.00     0.101 A 
ENDROOT
BRANCH  10  11
HETATM   11  C   UNL     1       6.708  32.311  60.869  1.00  0.00     0.028 A 
HETATM   12  C   UNL     1       7.867  32.176  60.091  1.00  0.00     0.078 A 
HETATM   13  C   UNL     1       9.106  31.936  60.683  1.00  0.00     0.037 A 
HETATM   14  C   UNL     1       9.195  31.788  62.067  1.00  0.00     0.003 A 
HETATM   15  C   UNL     1       8.047  31.882  62.854  1.00  0.00     0.001 A 
HETATM   16  C   UNL     1       6.811  32.145  62.258  1.00  0.00     0.017 A 
BRANCH  12  17
HETATM   17  O   UNL     1       7.845  32.227  58.722  1.00  0.00    -0.360 OA
HETATM   18  H   UNL     1       8.283  33.061  58.473  1.00  0.00     0.217 HD
ENDBRANCH  12  17
ENDBRANCH  10  11
BRANCH   6  19
HETATM   19  C   UNL     1       4.666  34.941  62.587  1.00  0.00    -0.031 A 
HETATM   20  C   UNL     1       3.501  34.470  63.218  1.00  0.00     0.011 A 
HETATM   21  C   UNL     1       3.472  34.246  64.598  1.00  0.00     0.024 A 
HETATM   22  C   UNL     1       4.608  34.495  65.362  1.00  0.00     0.034 A 
HETATM   23 CL   UNL     1       4.574  34.214  67.060  1.00  0.00    -0.084 Cl
HETATM   24  C   UNL     1       5.771  34.969  64.762  1.00  0.00     0.024 A 
HETATM   25  C   UNL     1       5.799  35.191  63.381  1.00  0.00     0.011 A 
ENDBRANCH   6  19
BRANCH   1  26
HETATM   26  C   UNL     1       2.874  37.016  60.851  1.00  0.00     0.129 C 
BRANCH  26  27
HETATM   27  C   UNL     1       3.389  38.096  59.895  1.00  0.00     0.046 C 
BRANCH  27  28
HETATM   28  C   UNL     1       4.717  38.698  60.338  1.00  0.00     0.169 C 
BRANCH  28  29
HETATM   29  O   UNL     1       4.624  39.059  61.713  1.00  0.00    -0.387 OA
BRANCH  29  30
HETATM   30  C   UNL     1       5.881  39.381  62.314  1.00  0.00     0.113 C 
HETATM   31  C   UNL     1       7.040  38.785  61.521  1.00  0.00     0.039 C 
HETATM   32  C   UNL     1       5.857  38.815  63.728  1.00  0.00     0.039 C 
ENDBRANCH  29  30
ENDBRANCH  28  29
ENDBRANCH  27  28
ENDBRANCH  26  27
ENDBRANCH   1  26
TORSDOF 8
ENDMDL
