MODEL 1
REMARK VINA RESULT:     -10.0      0.000      0.000
REMARK  8 active torsions:
REMARK  status: ('A' for Active; 'I' for Inactive)
REMARK    1  A    between atoms: C_5  and  C_6 
REMARK    2  A    between atoms: C_6  and  N_7 
REMARK       I    between atoms: N_7  and  C_8 
REMARK    3  A    between atoms: N_7  and  C_20 
REMARK    4  A    between atoms: C_8  and  C_9 
REMARK    5  A    between atoms: C_9  and  N_10 
REMARK    6  A    between atoms: C_20  and  C_21 
REMARK       I    between atoms: C_21  and  N_22 
REMARK    7  A    between atoms: N_22  and  C_23 
REMARK    8  A    between atoms: C_26  and  O_27 
ROOT
HETATM    1  N   UNL     1       7.388  25.780  56.107  1.00  0.00    -0.338 N 
HETATM    2  C   UNL     1       7.991  26.885  56.717  1.00  0.00     0.239 C 
HETATM    3  O   UNL     1       8.697  26.748  57.724  1.00  0.00    -0.271 OA
ENDROOT
BRANCH   1   4
HETATM    4  C   UNL     1       7.810  24.473  56.623  1.00  0.00     0.165 C 
BRANCH   4   5
HETATM    5  C   UNL     1       7.899  23.398  55.561  1.00  0.00    -0.040 A 
HETATM    6  C   UNL     1       8.171  23.737  54.230  1.00  0.00     0.009 A 
HETATM    7  C   UNL     1       8.299  22.744  53.257  1.00  0.00     0.007 A 
HETATM    8  C   UNL     1       8.150  21.394  53.595  1.00  0.00    -0.062 A 
HETATM    9  C   UNL     1       8.307  20.336  52.543  1.00  0.00     0.048 C 
HETATM   10  C   UNL     1       7.847  21.054  54.917  1.00  0.00     0.007 A 
HETATM   11  C   UNL     1       7.715  22.047  55.890  1.00  0.00     0.009 A 
ENDBRANCH   4   5
ENDBRANCH   1   4
BRANCH   1  12
HETATM   12  C   UNL     1       6.003  25.861  55.601  1.00  0.00     0.229 C 
BRANCH  12  13
HETATM   13  C   UNL     1       4.920  26.035  56.662  1.00  0.00     0.240 C 
HETATM   14  N   UNL     1       4.216  27.202  56.764  1.00  0.00    -0.326 N 
HETATM   15  H   UNL     1       3.435  27.091  57.401  1.00  0.00     0.169 HD
HETATM   16  O   UNL     1       4.607  25.109  57.421  1.00  0.00    -0.271 OA
BRANCH  14  17
HETATM   17  C   UNL     1       4.321  28.459  56.138  1.00  0.00     0.034 A 
HETATM   18  C   UNL     1       4.682  29.534  56.962  1.00  0.00     0.032 A 
HETATM   19  C   UNL     1       4.808  30.829  56.444  1.00  0.00     0.039 A 
HETATM   20  C   UNL     1       4.585  31.076  55.092  1.00  0.00     0.068 A 
HETATM   21  C   UNL     1       4.269  30.008  54.258  1.00  0.00     0.039 A 
HETATM   22  C   UNL     1       4.139  28.711  54.779  1.00  0.00     0.032 A 
BRANCH  20  23
HETATM   23  O   UNL     1       4.725  32.379  54.704  1.00  0.00    -0.356 OA
HETATM   24  C   UNL     1       3.575  33.207  54.846  1.00  0.00     0.210 C 
ENDBRANCH  20  23
ENDBRANCH  14  17
ENDBRANCH  12  13
ENDBRANCH   1  12
BRANCH   2  25
HETATM   25  C   UNL     1       7.973  28.224  56.012  1.00  0.00     0.250 C 
BRANCH  25  26
HETATM   26  N   UNL     1       8.904  29.225  56.477  1.00  0.00    -0.263 N 
HETATM   27  N   UNL     1       9.963  29.609  55.739  1.00  0.00     0.006 NA
HETATM   28  N   UNL     1      10.615  30.539  56.426  1.00  0.00    -0.158 NA
HETATM   29  C   UNL     1       9.920  30.783  57.581  1.00  0.00     0.102 A 
HETATM   30  C   UNL     1       8.805  29.957  57.635  1.00  0.00     0.079 A 
HETATM   31  C   UNL     1      10.160  31.689  58.624  1.00  0.00     0.035 A 
HETATM   32  C   UNL     1       7.884  29.986  58.689  1.00  0.00     0.033 A 
HETATM   33  C   UNL     1       8.130  30.903  59.716  1.00  0.00     0.002 A 
HETATM   34  C   UNL     1       9.248  31.740  59.688  1.00  0.00     0.002 A 
ENDBRANCH  25  26
ENDBRANCH   2  25
TORSDOF 8
ENDMDL
MODEL 2
REMARK VINA RESULT:      -9.8      2.818      3.622
REMARK  8 active torsions:
REMARK  status: ('A' for Active; 'I' for Inactive)
REMARK    1  A    between atoms: C_5  and  C_6 
REMARK    2  A    between atoms: C_6  and  N_7 
REMARK       I    between atoms: N_7  and  C_8 
REMARK    3  A    between atoms: N_7  and  C_20 
REMARK    4  A    between atoms: C_8  and  C_9 
REMARK    5  A    between atoms: C_9  and  N_10 
REMARK    6  A    between atoms: C_20  and  C_21 
REMARK       I    between atoms: C_21  and  N_22 
REMARK    7  A    between atoms: N_22  and  C_23 
REMARK    8  A    between atoms: C_26  and  O_27 
ROOT
HETATM    1  N   UNL     1       7.135  27.457  55.688  1.00  0.00    -0.338 N 
HETATM    2  C   UNL     1       8.151  27.928  56.526  1.00  0.00     0.239 C 
HETATM    3  O   UNL     1       8.402  27.365  57.599  1.00  0.00    -0.271 OA
ENDROOT
BRANCH   1   4
HETATM    4  C   UNL     1       6.547  26.170  56.079  1.00  0.00     0.165 C 
BRANCH   4   5
HETATM    5  C   UNL     1       7.070  24.994  55.283  1.00  0.00    -0.040 A 
HETATM    6  C   UNL     1       7.055  23.705  55.831  1.00  0.00     0.009 A 
HETATM    7  C   UNL     1       7.493  22.611  55.082  1.00  0.00     0.007 A 
HETATM    8  C   UNL     1       7.961  22.787  53.774  1.00  0.00    -0.062 A 
HETATM    9  C   UNL     1       8.412  21.601  52.975  1.00  0.00     0.048 C 
HETATM   10  C   UNL     1       8.006  24.076  53.236  1.00  0.00     0.007 A 
HETATM   11  C   UNL     1       7.571  25.171  53.986  1.00  0.00     0.009 A 
ENDBRANCH   4   5
ENDBRANCH   1   4
BRANCH   1  12
HETATM   12  C   UNL     1       6.231  28.399  54.996  1.00  0.00     0.229 C 
BRANCH  12  13
HETATM   13  C   UNL     1       4.739  28.126  55.162  1.00  0.00     0.240 C 
HETATM   14  N   UNL     1       4.009  27.571  54.147  1.00  0.00    -0.326 N 
HETATM   15  H   UNL     1       3.087  27.307  54.477  1.00  0.00     0.169 HD
HETATM   16  O   UNL     1       4.159  28.342  56.233  1.00  0.00    -0.271 OA
BRANCH  14  17
HETATM   17  C   UNL     1       4.295  27.250  52.806  1.00  0.00     0.034 A 
HETATM   18  C   UNL     1       4.016  28.244  51.858  1.00  0.00     0.032 A 
HETATM   19  C   UNL     1       4.255  28.028  50.496  1.00  0.00     0.039 A 
HETATM   20  C   UNL     1       4.785  26.819  50.053  1.00  0.00     0.068 A 
HETATM   21  C   UNL     1       5.104  25.843  50.990  1.00  0.00     0.039 A 
HETATM   22  C   UNL     1       4.861  26.059  52.356  1.00  0.00     0.032 A 
BRANCH  20  23
HETATM   23  O   UNL     1       4.962  26.718  48.701  1.00  0.00    -0.356 OA
HETATM   24  C   UNL     1       3.868  26.193  47.957  1.00  0.00     0.210 C 
ENDBRANCH  20  23
ENDBRANCH  14  17
ENDBRANCH  12  13
ENDBRANCH   1  12
BRANCH   2  25
HETATM   25  C   UNL     1       9.104  28.986  56.014  1.00  0.00     0.250 C 
BRANCH  25  26
HETATM   26  N   UNL     1       9.651  29.904  56.986  1.00  0.00    -0.263 N 
HETATM   27  N   UNL     1      10.953  30.249  56.984  1.00  0.00     0.006 NA
HETATM   28  N   UNL     1      11.143  31.104  57.981  1.00  0.00    -0.158 NA
HETATM   29  C   UNL     1       9.933  31.344  58.576  1.00  0.00     0.102 A 
HETATM   30  C   UNL     1       8.950  30.591  57.946  1.00  0.00     0.079 A 
HETATM   31  C   UNL     1       9.582  32.187  59.639  1.00  0.00     0.035 A 
HETATM   32  C   UNL     1       7.601  30.635  58.317  1.00  0.00     0.033 A 
HETATM   33  C   UNL     1       7.264  31.490  59.372  1.00  0.00     0.002 A 
HETATM   34  C   UNL     1       8.235  32.252  60.025  1.00  0.00     0.002 A 
ENDBRANCH  25  26
ENDBRANCH   2  25
TORSDOF 8
ENDMDL
MODEL 3
REMARK VINA RESULT:      -9.5      1.860      2.415
REMARK  8 active torsions:
REMARK  status: ('A' for Active; 'I' for Inactive)
REMARK    1  A    between atoms: C_5  and  C_6 
REMARK    2  A    between atoms: C_6  and  N_7 
REMARK       I    between atoms: N_7  and  C_8 
REMARK    3  A    between atoms: N_7  and  C_20 
REMARK    4  A    between atoms: C_8  and  C_9 
REMARK    5  A    between atoms: C_9  and  N_10 
REMARK    6  A    between atoms: C_20  and  C_21 
REMARK       I    between atoms: C_21  and  N_22 
REMARK    7  A    between atoms: N_22  and  C_23 
REMARK    8  A    between atoms: C_26  and  O_27 
ROOT
HETATM    1  N   UNL     1       6.535  26.881  56.761  1.00  0.00    -0.338 N 
HETATM    2  C   UNL     1       7.852  27.331  56.912  1.00  0.00     0.239 C 
HETATM    3  O   UNL     1       8.706  26.622  57.459  1.00  0.00    -0.271 OA
ENDROOT
BRANCH   1   4
HETATM    4  C   UNL     1       6.311  25.474  57.111  1.00  0.00     0.165 C 
BRANCH   4   5
HETATM    5  C   UNL     1       6.743  24.502  56.035  1.00  0.00    -0.040 A 
HETATM    6  C   UNL     1       6.348  24.694  54.705  1.00  0.00     0.009 A 
HETATM    7  C   UNL     1       6.783  23.825  53.703  1.00  0.00     0.007 A 
HETATM    8  C   UNL     1       7.615  22.743  54.013  1.00  0.00    -0.062 A 
HETATM    9  C   UNL     1       8.090  21.827  52.924  1.00  0.00     0.048 C 
HETATM   10  C   UNL     1       7.986  22.530  55.344  1.00  0.00     0.007 A 
HETATM   11  C   UNL     1       7.549  23.398  56.347  1.00  0.00     0.009 A 
ENDBRANCH   4   5
ENDBRANCH   1   4
BRANCH   1  12
HETATM   12  C   UNL     1       5.396  27.795  56.985  1.00  0.00     0.229 C 
BRANCH  12  13
HETATM   13  C   UNL     1       4.769  28.389  55.727  1.00  0.00     0.240 C 
HETATM   14  N   UNL     1       4.409  29.707  55.676  1.00  0.00    -0.326 N 
HETATM   15  H   UNL     1       4.167  29.972  54.727  1.00  0.00     0.169 HD
HETATM   16  O   UNL     1       4.622  27.715  54.700  1.00  0.00    -0.271 OA
BRANCH  14  17
HETATM   17  C   UNL     1       4.369  30.742  56.629  1.00  0.00     0.034 A 
HETATM   18  C   UNL     1       5.021  31.932  56.281  1.00  0.00     0.032 A 
HETATM   19  C   UNL     1       5.049  33.023  57.159  1.00  0.00     0.039 A 
HETATM   20  C   UNL     1       4.419  32.950  58.399  1.00  0.00     0.068 A 
HETATM   21  C   UNL     1       3.733  31.789  58.736  1.00  0.00     0.039 A 
HETATM   22  C   UNL     1       3.709  30.695  57.856  1.00  0.00     0.032 A 
BRANCH  20  23
HETATM   23  O   UNL     1       4.525  34.071  59.175  1.00  0.00    -0.356 OA
HETATM   24  C   UNL     1       4.692  33.858  60.572  1.00  0.00     0.210 C 
ENDBRANCH  20  23
ENDBRANCH  14  17
ENDBRANCH  12  13
ENDBRANCH   1  12
BRANCH   2  25
HETATM   25  C   UNL     1       8.292  28.591  56.199  1.00  0.00     0.250 C 
BRANCH  25  26
HETATM   26  N   UNL     1       9.127  29.508  56.939  1.00  0.00    -0.263 N 
HETATM   27  N   UNL     1      10.416  29.718  56.611  1.00  0.00     0.006 NA
HETATM   28  N   UNL     1      10.907  30.610  57.462  1.00  0.00    -0.158 NA
HETATM   29  C   UNL     1       9.895  31.008  58.295  1.00  0.00     0.102 A 
HETATM   30  C   UNL     1       8.732  30.322  57.973  1.00  0.00     0.079 A 
HETATM   31  C   UNL     1       9.876  31.948  59.335  1.00  0.00     0.035 A 
HETATM   32  C   UNL     1       7.516  30.525  58.636  1.00  0.00     0.033 A 
HETATM   33  C   UNL     1       7.511  31.475  59.664  1.00  0.00     0.002 A 
HETATM   34  C   UNL     1       8.669  32.174  60.011  1.00  0.00     0.002 A 
ENDBRANCH  25  26
ENDBRANCH   2  25
TORSDOF 8
ENDMDL
MODEL 4
REMARK VINA RESULT:      -9.5      2.502      7.021
REMARK  8 active torsions:
REMARK  status: ('A' for Active; 'I' for Inactive)
REMARK    1  A    between atoms: C_5  and  C_6 
REMARK    2  A    between atoms: C_6  and  N_7 
REMARK       I    between atoms: N_7  and  C_8 
REMARK    3  A    between atoms: N_7  and  C_20 
REMARK    4  A    between atoms: C_8  and  C_9 
REMARK    5  A    between atoms: C_9  and  N_10 
REMARK    6  A    between atoms: C_20  and  C_21 
REMARK       I    between atoms: C_21  and  N_22 
REMARK    7  A    between atoms: N_22  and  C_23 
REMARK    8  A    between atoms: C_26  and  O_27 
ROOT
HETATM    1  N   UNL     1       6.858  27.321  57.121  1.00  0.00    -0.338 N 
HETATM    2  C   UNL     1       6.886  25.923  57.180  1.00  0.00     0.239 C 
HETATM    3  O   UNL     1       5.851  25.260  57.037  1.00  0.00    -0.271 OA
ENDROOT
BRANCH   1   4
HETATM    4  C   UNL     1       5.581  27.903  56.692  1.00  0.00     0.165 C 
BRANCH   4   5
HETATM    5  C   UNL     1       5.427  27.995  55.189  1.00  0.00    -0.040 A 
HETATM    6  C   UNL     1       6.541  27.846  54.352  1.00  0.00     0.009 A 
HETATM    7  C   UNL     1       6.395  27.885  52.964  1.00  0.00     0.007 A 
HETATM    8  C   UNL     1       5.135  28.080  52.387  1.00  0.00    -0.062 A 
HETATM    9  C   UNL     1       4.989  28.102  50.894  1.00  0.00     0.048 C 
HETATM   10  C   UNL     1       4.026  28.261  53.220  1.00  0.00     0.007 A 
HETATM   11  C   UNL     1       4.172  28.226  54.609  1.00  0.00     0.009 A 
ENDBRANCH   4   5
ENDBRANCH   1   4
BRANCH   1  12
HETATM   12  C   UNL     1       7.657  28.132  58.063  1.00  0.00     0.229 C 
BRANCH  12  13
HETATM   13  C   UNL     1       8.618  29.130  57.424  1.00  0.00     0.240 C 
HETATM   14  N   UNL     1       8.999  30.263  58.089  1.00  0.00    -0.326 N 
HETATM   15  H   UNL     1       9.758  30.723  57.599  1.00  0.00     0.169 HD
HETATM   16  O   UNL     1       9.126  28.918  56.317  1.00  0.00    -0.271 OA
BRANCH  14  17
HETATM   17  C   UNL     1       8.603  30.859  59.302  1.00  0.00     0.034 A 
HETATM   18  C   UNL     1       7.453  31.659  59.253  1.00  0.00     0.032 A 
HETATM   19  C   UNL     1       6.975  32.304  60.400  1.00  0.00     0.039 A 
HETATM   20  C   UNL     1       7.630  32.158  61.620  1.00  0.00     0.068 A 
HETATM   21  C   UNL     1       8.747  31.332  61.687  1.00  0.00     0.039 A 
HETATM   22  C   UNL     1       9.228  30.688  60.536  1.00  0.00     0.032 A 
BRANCH  20  23
HETATM   23  O   UNL     1       7.080  32.845  62.665  1.00  0.00    -0.356 OA
HETATM   24  C   UNL     1       7.842  32.886  63.867  1.00  0.00     0.210 C 
ENDBRANCH  20  23
ENDBRANCH  14  17
ENDBRANCH  12  13
ENDBRANCH   1  12
BRANCH   2  25
HETATM   25  C   UNL     1       8.220  25.208  57.186  1.00  0.00     0.250 C 
BRANCH  25  26
HETATM   26  N   UNL     1       8.263  23.890  56.597  1.00  0.00    -0.263 N 
HETATM   27  N   UNL     1       8.374  22.778  57.348  1.00  0.00     0.006 NA
HETATM   28  N   UNL     1       8.377  21.737  56.526  1.00  0.00    -0.158 NA
HETATM   29  C   UNL     1       8.204  22.200  55.248  1.00  0.00     0.102 A 
HETATM   30  C   UNL     1       8.116  23.586  55.265  1.00  0.00     0.079 A 
HETATM   31  C   UNL     1       8.101  21.516  54.028  1.00  0.00     0.035 A 
HETATM   32  C   UNL     1       7.918  24.352  54.111  1.00  0.00     0.033 A 
HETATM   33  C   UNL     1       7.805  23.655  52.903  1.00  0.00     0.002 A 
HETATM   34  C   UNL     1       7.896  22.262  52.859  1.00  0.00     0.002 A 
ENDBRANCH  25  26
ENDBRANCH   2  25
TORSDOF 8
ENDMDL
MODEL 5
REMARK VINA RESULT:      -9.4      2.375      6.137
REMARK  8 active torsions:
REMARK  status: ('A' for Active; 'I' for Inactive)
REMARK    1  A    between atoms: C_5  and  C_6 
REMARK    2  A    between atoms: C_6  and  N_7 
REMARK       I    between atoms: N_7  and  C_8 
REMARK    3  A    between atoms: N_7  and  C_20 
REMARK    4  A    between atoms: C_8  and  C_9 
REMARK    5  A    between atoms: C_9  and  N_10 
REMARK    6  A    between atoms: C_20  and  C_21 
REMARK       I    between atoms: C_21  and  N_22 
REMARK    7  A    between atoms: N_22  and  C_23 
REMARK    8  A    between atoms: C_26  and  O_27 
ROOT
HETATM    1  N   UNL     1       6.618  26.641  55.600  1.00  0.00    -0.338 N 
HETATM    2  C   UNL     1       6.729  25.477  56.369  1.00  0.00     0.239 C 
HETATM    3  O   UNL     1       5.722  24.848  56.718  1.00  0.00    -0.271 OA
ENDROOT
BRANCH   1   4
HETATM    4  C   UNL     1       5.273  26.929  55.092  1.00  0.00     0.165 C 
BRANCH   4   5
HETATM    5  C   UNL     1       5.154  26.827  53.587  1.00  0.00    -0.040 A 
HETATM    6  C   UNL     1       5.224  25.579  52.954  1.00  0.00     0.009 A 
HETATM    7  C   UNL     1       5.069  25.476  51.569  1.00  0.00     0.007 A 
HETATM    8  C   UNL     1       4.848  26.620  50.792  1.00  0.00    -0.062 A 
HETATM    9  C   UNL     1       4.666  26.493  49.309  1.00  0.00     0.048 C 
HETATM   10  C   UNL     1       4.809  27.869  51.418  1.00  0.00     0.007 A 
HETATM   11  C   UNL     1       4.967  27.973  52.802  1.00  0.00     0.009 A 
ENDBRANCH   4   5
ENDBRANCH   1   4
BRANCH   1  12
HETATM   12  C   UNL     1       7.471  27.814  55.880  1.00  0.00     0.229 C 
BRANCH  12  13
HETATM   13  C   UNL     1       7.445  28.321  57.319  1.00  0.00     0.240 C 
HETATM   14  N   UNL     1       6.466  29.176  57.745  1.00  0.00    -0.326 N 
HETATM   15  H   UNL     1       6.500  29.280  58.754  1.00  0.00     0.169 HD
HETATM   16  O   UNL     1       8.268  27.931  58.156  1.00  0.00    -0.271 OA
BRANCH  14  17
HETATM   17  C   UNL     1       5.426  29.865  57.093  1.00  0.00     0.034 A 
HETATM   18  C   UNL     1       4.221  29.981  57.799  1.00  0.00     0.032 A 
HETATM   19  C   UNL     1       3.119  30.640  57.242  1.00  0.00     0.039 A 
HETATM   20  C   UNL     1       3.199  31.205  55.971  1.00  0.00     0.068 A 
HETATM   21  C   UNL     1       4.404  31.132  55.280  1.00  0.00     0.039 A 
HETATM   22  C   UNL     1       5.507  30.468  55.839  1.00  0.00     0.032 A 
BRANCH  20  23
HETATM   23  O   UNL     1       2.057  31.810  55.527  1.00  0.00    -0.356 OA
HETATM   24  C   UNL     1       2.204  32.713  54.436  1.00  0.00     0.210 C 
ENDBRANCH  20  23
ENDBRANCH  14  17
ENDBRANCH  12  13
ENDBRANCH   1  12
BRANCH   2  25
HETATM   25  C   UNL     1       8.092  24.854  56.581  1.00  0.00     0.250 C 
BRANCH  25  26
HETATM   26  N   UNL     1       8.208  23.432  56.356  1.00  0.00    -0.263 N 
HETATM   27  N   UNL     1       8.354  22.562  57.373  1.00  0.00     0.006 NA
HETATM   28  N   UNL     1       8.423  21.343  56.851  1.00  0.00    -0.158 NA
HETATM   29  C   UNL     1       8.256  21.449  55.495  1.00  0.00     0.102 A 
HETATM   30  C   UNL     1       8.104  22.785  55.149  1.00  0.00     0.079 A 
HETATM   31  C   UNL     1       8.211  20.467  54.495  1.00  0.00     0.035 A 
HETATM   32  C   UNL     1       7.896  23.214  53.833  1.00  0.00     0.033 A 
HETATM   33  C   UNL     1       7.841  22.222  52.848  1.00  0.00     0.002 A 
HETATM   34  C   UNL     1       7.997  20.872  53.170  1.00  0.00     0.002 A 
ENDBRANCH  25  26
ENDBRANCH   2  25
TORSDOF 8
ENDMDL
MODEL 6
REMARK VINA RESULT:      -9.3      2.633      3.499
REMARK  8 active torsions:
REMARK  status: ('A' for Active; 'I' for Inactive)
REMARK    1  A    between atoms: C_5  and  C_6 
REMARK    2  A    between atoms: C_6  and  N_7 
REMARK       I    between atoms: N_7  and  C_8 
REMARK    3  A    between atoms: N_7  and  C_20 
REMARK    4  A    between atoms: C_8  and  C_9 
REMARK    5  A    between atoms: C_9  and  N_10 
REMARK    6  A    between atoms: C_20  and  C_21 
REMARK       I    between atoms: C_21  and  N_22 
REMARK    7  A    between atoms: N_22  and  C_23 
REMARK    8  A    between atoms: C_26  and  O_27 
ROOT
HETATM    1  N   UNL     1       7.724  25.652  56.321  1.00  0.00    -0.338 N 
HETATM    2  C   UNL     1       7.932  26.611  57.318  1.00  0.00     0.239 C 
HETATM    3  O   UNL     1       7.915  26.297  58.515  1.00  0.00    -0.271 OA
ENDROOT
BRANCH   1   4
HETATM    4  C   UNL     1       7.685  24.262  56.788  1.00  0.00     0.165 C 
BRANCH   4   5
HETATM    5  C   UNL     1       7.902  23.244  55.690  1.00  0.00    -0.040 A 
HETATM    6  C   UNL     1       7.763  21.875  55.955  1.00  0.00     0.009 A 
HETATM    7  C   UNL     1       7.917  20.936  54.934  1.00  0.00     0.007 A 
HETATM    8  C   UNL     1       8.220  21.346  53.630  1.00  0.00    -0.062 A 
HETATM    9  C   UNL     1       8.365  20.327  52.539  1.00  0.00     0.048 C 
HETATM   10  C   UNL     1       8.390  22.709  53.369  1.00  0.00     0.007 A 
HETATM   11  C   UNL     1       8.239  23.649  54.391  1.00  0.00     0.009 A 
ENDBRANCH   4   5
ENDBRANCH   1   4
BRANCH   1  12
HETATM   12  C   UNL     1       6.896  25.963  55.138  1.00  0.00     0.229 C 
BRANCH  12  13
HETATM   13  C   UNL     1       5.422  26.244  55.418  1.00  0.00     0.240 C 
HETATM   14  N   UNL     1       4.579  26.641  54.418  1.00  0.00    -0.326 N 
HETATM   15  H   UNL     1       3.616  26.622  54.737  1.00  0.00     0.169 HD
HETATM   16  O   UNL     1       4.934  26.064  56.541  1.00  0.00    -0.271 OA
BRANCH  14  17
HETATM   17  C   UNL     1       4.771  26.999  53.069  1.00  0.00     0.034 A 
HETATM   18  C   UNL     1       4.908  25.941  52.161  1.00  0.00     0.032 A 
HETATM   19  C   UNL     1       5.110  26.183  50.797  1.00  0.00     0.039 A 
HETATM   20  C   UNL     1       5.171  27.486  50.311  1.00  0.00     0.068 A 
HETATM   21  C   UNL     1       4.993  28.542  51.198  1.00  0.00     0.039 A 
HETATM   22  C   UNL     1       4.794  28.298  52.566  1.00  0.00     0.032 A 
BRANCH  20  23
HETATM   23  O   UNL     1       5.385  27.599  48.965  1.00  0.00    -0.356 OA
HETATM   24  C   UNL     1       4.684  26.680  48.135  1.00  0.00     0.210 C 
ENDBRANCH  20  23
ENDBRANCH  14  17
ENDBRANCH  12  13
ENDBRANCH   1  12
BRANCH   2  25
HETATM   25  C   UNL     1       8.411  27.994  56.931  1.00  0.00     0.250 C 
BRANCH  25  26
HETATM   26  N   UNL     1       7.680  29.118  57.467  1.00  0.00    -0.263 N 
HETATM   27  N   UNL     1       6.358  29.270  57.259  1.00  0.00     0.006 NA
HETATM   28  N   UNL     1       5.980  30.381  57.878  1.00  0.00    -0.158 NA
HETATM   29  C   UNL     1       7.067  30.897  58.533  1.00  0.00     0.102 A 
HETATM   30  C   UNL     1       8.176  30.096  58.294  1.00  0.00     0.079 A 
HETATM   31  C   UNL     1       7.195  32.027  59.354  1.00  0.00     0.035 A 
HETATM   32  C   UNL     1       9.437  30.354  58.844  1.00  0.00     0.033 A 
HETATM   33  C   UNL     1       9.546  31.478  59.669  1.00  0.00     0.002 A 
HETATM   34  C   UNL     1       8.447  32.303  59.921  1.00  0.00     0.002 A 
ENDBRANCH  25  26
ENDBRANCH   2  25
TORSDOF 8
ENDMDL
MODEL 7
REMARK VINA RESULT:      -9.2      2.101      7.295
REMARK  8 active torsions:
REMARK  status: ('A' for Active; 'I' for Inactive)
REMARK    1  A    between atoms: C_5  and  C_6 
REMARK    2  A    between atoms: C_6  and  N_7 
REMARK       I    between atoms: N_7  and  C_8 
REMARK    3  A    between atoms: N_7  and  C_20 
REMARK    4  A    between atoms: C_8  and  C_9 
REMARK    5  A    between atoms: C_9  and  N_10 
REMARK    6  A    between atoms: C_20  and  C_21 
REMARK       I    between atoms: C_21  and  N_22 
REMARK    7  A    between atoms: N_22  and  C_23 
REMARK    8  A    between atoms: C_26  and  O_27 
ROOT
HETATM    1  N   UNL     1       6.430  27.032  56.906  1.00  0.00    -0.338 N 
HETATM    2  C   UNL     1       6.519  25.638  56.833  1.00  0.00     0.239 C 
HETATM    3  O   UNL     1       5.510  24.930  56.945  1.00  0.00    -0.271 OA
ENDROOT
BRANCH   1   4
HETATM    4  C   UNL     1       5.065  27.572  56.925  1.00  0.00     0.165 C 
BRANCH   4   5
HETATM    5  C   UNL     1       4.664  28.262  55.640  1.00  0.00    -0.040 A 
HETATM    6  C   UNL     1       4.756  27.588  54.415  1.00  0.00     0.009 A 
HETATM    7  C   UNL     1       4.343  28.206  53.233  1.00  0.00     0.007 A 
HETATM    8  C   UNL     1       3.837  29.511  53.252  1.00  0.00    -0.062 A 
HETATM    9  C   UNL     1       3.381  30.156  51.977  1.00  0.00     0.048 C 
HETATM   10  C   UNL     1       3.773  30.197  54.469  1.00  0.00     0.007 A 
HETATM   11  C   UNL     1       4.189  29.581  55.651  1.00  0.00     0.009 A 
ENDBRANCH   4   5
ENDBRANCH   1   4
BRANCH   1  12
HETATM   12  C   UNL     1       7.448  27.816  57.636  1.00  0.00     0.229 C 
BRANCH  12  13
HETATM   13  C   UNL     1       8.135  28.916  56.833  1.00  0.00     0.240 C 
HETATM   14  N   UNL     1       8.474  30.105  57.417  1.00  0.00    -0.326 N 
HETATM   15  H   UNL     1       9.064  30.650  56.797  1.00  0.00     0.169 HD
HETATM   16  O   UNL     1       8.460  28.746  55.652  1.00  0.00    -0.271 OA
BRANCH  14  17
HETATM   17  C   UNL     1       8.227  30.673  58.682  1.00  0.00     0.034 A 
HETATM   18  C   UNL     1       7.055  31.432  58.802  1.00  0.00     0.032 A 
HETATM   19  C   UNL     1       6.716  32.047  60.013  1.00  0.00     0.039 A 
HETATM   20  C   UNL     1       7.535  31.911  61.131  1.00  0.00     0.068 A 
HETATM   21  C   UNL     1       8.678  31.125  61.033  1.00  0.00     0.039 A 
HETATM   22  C   UNL     1       9.019  30.511  59.817  1.00  0.00     0.032 A 
BRANCH  20  23
HETATM   23  O   UNL     1       7.109  32.567  62.252  1.00  0.00    -0.356 OA
HETATM   24  C   UNL     1       7.966  32.501  63.386  1.00  0.00     0.210 C 
ENDBRANCH  20  23
ENDBRANCH  14  17
ENDBRANCH  12  13
ENDBRANCH   1  12
BRANCH   2  25
HETATM   25  C   UNL     1       7.816  25.000  56.383  1.00  0.00     0.250 C 
BRANCH  25  26
HETATM   26  N   UNL     1       7.813  24.339  55.099  1.00  0.00    -0.263 N 
HETATM   27  N   UNL     1       7.857  25.029  53.944  1.00  0.00     0.006 NA
HETATM   28  N   UNL     1       7.850  24.149  52.950  1.00  0.00    -0.158 NA
HETATM   29  C   UNL     1       7.863  22.891  53.492  1.00  0.00     0.102 A 
HETATM   30  C   UNL     1       7.850  22.983  54.878  1.00  0.00     0.079 A 
HETATM   31  C   UNL     1       7.896  21.628  52.884  1.00  0.00     0.035 A 
HETATM   32  C   UNL     1       7.878  21.864  55.717  1.00  0.00     0.033 A 
HETATM   33  C   UNL     1       7.923  20.611  55.096  1.00  0.00     0.002 A 
HETATM   34  C   UNL     1       7.931  20.492  53.705  1.00  0.00     0.002 A 
ENDBRANCH  25  26
ENDBRANCH   2  25
TORSDOF 8
ENDMDL
MODEL 8
REMARK VINA RESULT:      -9.2      3.517      5.506
REMARK  8 active torsions:
REMARK  status: ('A' for Active; 'I' for Inactive)
REMARK    1  A    between atoms: C_5  and  C_6 
REMARK    2  A    between atoms: C_6  and  N_7 
REMARK       I    between atoms: N_7  and  C_8 
REMARK    3  A    between atoms: N_7  and  C_20 
REMARK    4  A    between atoms: C_8  and  C_9 
REMARK    5  A    between atoms: C_9  and  N_10 
REMARK    6  A    between atoms: C_20  and  C_21 
REMARK       I    between atoms: C_21  and  N_22 
REMARK    7  A    between atoms: N_22  and  C_23 
REMARK    8  A    between atoms: C_26  and  O_27 
ROOT
HETATM    1  N   UNL     1       6.306  26.484  54.075  1.00  0.00    -0.338 N 
HETATM    2  C   UNL     1       6.287  27.765  53.514  1.00  0.00     0.239 C 
HETATM    3  O   UNL     1       7.303  28.472  53.511  1.00  0.00    -0.271 OA
ENDROOT
BRANCH   1   4
HETATM    4  C   UNL     1       7.631  25.990  54.465  1.00  0.00     0.165 C 
BRANCH   4   5
HETATM    5  C   UNL     1       7.842  24.519  54.181  1.00  0.00    -0.040 A 
HETATM    6  C   UNL     1       7.578  23.998  52.909  1.00  0.00     0.009 A 
HETATM    7  C   UNL     1       7.815  22.650  52.631  1.00  0.00     0.007 A 
HETATM    8  C   UNL     1       8.314  21.797  53.623  1.00  0.00    -0.062 A 
HETATM    9  C   UNL     1       8.581  20.355  53.306  1.00  0.00     0.048 C 
HETATM   10  C   UNL     1       8.549  22.307  54.903  1.00  0.00     0.007 A 
HETATM   11  C   UNL     1       8.309  23.655  55.182  1.00  0.00     0.009 A 
ENDBRANCH   4   5
ENDBRANCH   1   4
BRANCH   1  12
HETATM   12  C   UNL     1       5.169  25.999  54.885  1.00  0.00     0.229 C 
BRANCH  12  13
HETATM   13  C   UNL     1       5.360  26.064  56.397  1.00  0.00     0.240 C 
HETATM   14  N   UNL     1       5.217  27.243  57.074  1.00  0.00    -0.326 N 
HETATM   15  H   UNL     1       5.212  27.079  58.075  1.00  0.00     0.169 HD
HETATM   16  O   UNL     1       5.590  25.046  57.062  1.00  0.00    -0.271 OA
BRANCH  14  17
HETATM   17  C   UNL     1       5.021  28.578  56.672  1.00  0.00     0.034 A 
HETATM   18  C   UNL     1       6.113  29.441  56.834  1.00  0.00     0.032 A 
HETATM   19  C   UNL     1       6.025  30.791  56.473  1.00  0.00     0.039 A 
HETATM   20  C   UNL     1       4.848  31.305  55.935  1.00  0.00     0.068 A 
HETATM   21  C   UNL     1       3.774  30.447  55.730  1.00  0.00     0.039 A 
HETATM   22  C   UNL     1       3.862  29.094  56.096  1.00  0.00     0.032 A 
BRANCH  20  23
HETATM   23  O   UNL     1       4.877  32.638  55.633  1.00  0.00    -0.356 OA
HETATM   24  C   UNL     1       4.495  32.994  54.309  1.00  0.00     0.210 C 
ENDBRANCH  20  23
ENDBRANCH  14  17
ENDBRANCH  12  13
ENDBRANCH   1  12
BRANCH   2  25
HETATM   25  C   UNL     1       5.089  28.201  52.699  1.00  0.00     0.250 C 
BRANCH  25  26
HETATM   26  N   UNL     1       5.336  28.631  51.342  1.00  0.00    -0.263 N 
HETATM   27  N   UNL     1       5.921  29.812  51.066  1.00  0.00     0.006 NA
HETATM   28  N   UNL     1       6.017  29.913  49.746  1.00  0.00    -0.158 NA
HETATM   29  C   UNL     1       5.543  28.753  49.193  1.00  0.00     0.102 A 
HETATM   30  C   UNL     1       5.107  27.903  50.200  1.00  0.00     0.079 A 
HETATM   31  C   UNL     1       5.457  28.341  47.855  1.00  0.00     0.035 A 
HETATM   32  C   UNL     1       4.584  26.629  49.951  1.00  0.00     0.033 A 
HETATM   33  C   UNL     1       4.516  26.227  48.612  1.00  0.00     0.002 A 
HETATM   34  C   UNL     1       4.942  27.066  47.580  1.00  0.00     0.002 A 
ENDBRANCH  25  26
ENDBRANCH   2  25
TORSDOF 8
ENDMDL
MODEL 9
REMARK VINA RESULT:      -9.1      2.965      7.468
REMARK  8 active torsions:
REMARK  status: ('A' for Active; 'I' for Inactive)
REMARK    1  A    between atoms: C_5  and  C_6 
REMARK    2  A    between atoms: C_6  and  N_7 
REMARK       I    between atoms: N_7  and  C_8 
REMARK    3  A    between atoms: N_7  and  C_20 
REMARK    4  A    between atoms: C_8  and  C_9 
REMARK    5  A    between atoms: C_9  and  N_10 
REMARK    6  A    between atoms: C_20  and  C_21 
REMARK       I    between atoms: C_21  and  N_22 
REMARK    7  A    between atoms: N_22  and  C_23 
REMARK    8  A    between atoms: C_26  and  O_27 
ROOT
HETATM    1  N   UNL     1       7.334  27.960  56.180  1.00  0.00    -0.338 N 
HETATM    2  C   UNL     1       7.918  26.834  56.771  1.00  0.00     0.239 C 
HETATM    3  O   UNL     1       9.053  26.889  57.259  1.00  0.00    -0.271 OA
ENDROOT
BRANCH   1   4
HETATM    4  C   UNL     1       8.073  29.215  56.362  1.00  0.00     0.165 C 
BRANCH   4   5
HETATM    5  C   UNL     1       7.603  30.033  57.545  1.00  0.00    -0.040 A 
HETATM    6  C   UNL     1       8.365  30.083  58.719  1.00  0.00     0.009 A 
HETATM    7  C   UNL     1       7.958  30.874  59.796  1.00  0.00     0.007 A 
HETATM    8  C   UNL     1       6.779  31.624  59.721  1.00  0.00    -0.062 A 
HETATM    9  C   UNL     1       6.363  32.483  60.878  1.00  0.00     0.048 C 
HETATM   10  C   UNL     1       6.000  31.552  58.562  1.00  0.00     0.007 A 
HETATM   11  C   UNL     1       6.405  30.759  57.486  1.00  0.00     0.009 A 
ENDBRANCH   4   5
ENDBRANCH   1   4
BRANCH   1  12
HETATM   12  C   UNL     1       6.558  27.839  54.929  1.00  0.00     0.229 C 
BRANCH  12  13
HETATM   13  C   UNL     1       5.041  27.814  55.092  1.00  0.00     0.240 C 
HETATM   14  N   UNL     1       4.224  27.536  54.031  1.00  0.00    -0.326 N 
HETATM   15  H   UNL     1       3.270  27.398  54.345  1.00  0.00     0.169 HD
HETATM   16  O   UNL     1       4.508  27.985  56.195  1.00  0.00    -0.271 OA
BRANCH  14  17
HETATM   17  C   UNL     1       4.449  27.351  52.653  1.00  0.00     0.034 A 
HETATM   18  C   UNL     1       4.184  28.453  51.829  1.00  0.00     0.032 A 
HETATM   19  C   UNL     1       4.367  28.376  50.443  1.00  0.00     0.039 A 
HETATM   20  C   UNL     1       4.824  27.201  49.852  1.00  0.00     0.068 A 
HETATM   21  C   UNL     1       5.130  26.116  50.667  1.00  0.00     0.039 A 
HETATM   22  C   UNL     1       4.943  26.193  52.056  1.00  0.00     0.032 A 
BRANCH  20  23
HETATM   23  O   UNL     1       4.951  27.240  48.492  1.00  0.00    -0.356 OA
HETATM   24  C   UNL     1       3.795  27.637  47.761  1.00  0.00     0.210 C 
ENDBRANCH  20  23
ENDBRANCH  14  17
ENDBRANCH  12  13
ENDBRANCH   1  12
BRANCH   2  25
HETATM   25  C   UNL     1       7.070  25.605  57.022  1.00  0.00     0.250 C 
BRANCH  25  26
HETATM   26  N   UNL     1       7.607  24.336  56.590  1.00  0.00    -0.263 N 
HETATM   27  N   UNL     1       8.139  23.456  57.460  1.00  0.00     0.006 NA
HETATM   28  N   UNL     1       8.533  22.395  56.767  1.00  0.00    -0.158 NA
HETATM   29  C   UNL     1       8.187  22.588  55.455  1.00  0.00     0.102 A 
HETATM   30  C   UNL     1       7.578  23.828  55.314  1.00  0.00     0.079 A 
HETATM   31  C   UNL     1       8.344  21.764  54.332  1.00  0.00     0.035 A 
HETATM   32  C   UNL     1       7.095  24.307  54.091  1.00  0.00     0.033 A 
HETATM   33  C   UNL     1       7.248  23.468  52.982  1.00  0.00     0.002 A 
HETATM   34  C   UNL     1       7.862  22.219  53.096  1.00  0.00     0.002 A 
ENDBRANCH  25  26
ENDBRANCH   2  25
TORSDOF 8
ENDMDL
MODEL 10
REMARK VINA RESULT:      -9.0      2.729      5.205
REMARK  8 active torsions:
REMARK  status: ('A' for Active; 'I' for Inactive)
REMARK    1  A    between atoms: C_5  and  C_6 
REMARK    2  A    between atoms: C_6  and  N_7 
REMARK       I    between atoms: N_7  and  C_8 
REMARK    3  A    between atoms: N_7  and  C_20 
REMARK    4  A    between atoms: C_8  and  C_9 
REMARK    5  A    between atoms: C_9  and  N_10 
REMARK    6  A    between atoms: C_20  and  C_21 
REMARK       I    between atoms: C_21  and  N_22 
REMARK    7  A    between atoms: N_22  and  C_23 
REMARK    8  A    between atoms: C_26  and  O_27 
ROOT
HETATM    1  N   UNL     1       6.617  26.657  53.657  1.00  0.00    -0.338 N 
HETATM    2  C   UNL     1       5.766  26.971  52.591  1.00  0.00     0.239 C 
HETATM    3  O   UNL     1       6.133  26.817  51.419  1.00  0.00    -0.271 OA
ENDROOT
BRANCH   1   4
HETATM    4  C   UNL     1       7.858  25.970  53.286  1.00  0.00     0.165 C 
BRANCH   4   5
HETATM    5  C   UNL     1       7.886  24.508  53.677  1.00  0.00    -0.040 A 
HETATM    6  C   UNL     1       7.730  23.511  52.705  1.00  0.00     0.009 A 
HETATM    7  C   UNL     1       7.801  22.161  53.056  1.00  0.00     0.007 A 
HETATM    8  C   UNL     1       8.022  21.783  54.385  1.00  0.00    -0.062 A 
HETATM    9  C   UNL     1       8.114  20.330  54.745  1.00  0.00     0.048 C 
HETATM   10  C   UNL     1       8.147  22.775  55.363  1.00  0.00     0.007 A 
HETATM   11  C   UNL     1       8.073  24.126  55.013  1.00  0.00     0.009 A 
ENDBRANCH   4   5
ENDBRANCH   1   4
BRANCH   1  12
HETATM   12  C   UNL     1       6.690  27.533  54.845  1.00  0.00     0.229 C 
BRANCH  12  13
HETATM   13  C   UNL     1       5.951  27.031  56.083  1.00  0.00     0.240 C 
HETATM   14  N   UNL     1       5.933  27.766  57.236  1.00  0.00    -0.326 N 
HETATM   15  H   UNL     1       5.269  27.374  57.895  1.00  0.00     0.169 HD
HETATM   16  O   UNL     1       5.301  25.979  56.062  1.00  0.00    -0.271 OA
BRANCH  14  17
HETATM   17  C   UNL     1       6.582  28.945  57.649  1.00  0.00     0.034 A 
HETATM   18  C   UNL     1       7.921  28.812  58.038  1.00  0.00     0.032 A 
HETATM   19  C   UNL     1       8.659  29.919  58.473  1.00  0.00     0.039 A 
HETATM   20  C   UNL     1       8.078  31.183  58.521  1.00  0.00     0.068 A 
HETATM   21  C   UNL     1       6.762  31.333  58.096  1.00  0.00     0.039 A 
HETATM   22  C   UNL     1       6.022  30.221  57.664  1.00  0.00     0.032 A 
BRANCH  20  23
HETATM   23  O   UNL     1       8.891  32.184  58.974  1.00  0.00    -0.356 OA
HETATM   24  C   UNL     1       9.502  31.976  60.243  1.00  0.00     0.210 C 
ENDBRANCH  20  23
ENDBRANCH  14  17
ENDBRANCH  12  13
ENDBRANCH   1  12
BRANCH   2  25
HETATM   25  C   UNL     1       4.310  27.278  52.869  1.00  0.00     0.250 C 
BRANCH  25  26
HETATM   26  N   UNL     1       3.819  28.570  52.452  1.00  0.00    -0.263 N 
HETATM   27  N   UNL     1       3.390  28.797  51.196  1.00  0.00     0.006 NA
HETATM   28  N   UNL     1       2.999  30.063  51.128  1.00  0.00    -0.158 NA
HETATM   29  C   UNL     1       3.127  30.618  52.374  1.00  0.00     0.102 A 
HETATM   30  C   UNL     1       3.644  29.674  53.252  1.00  0.00     0.079 A 
HETATM   31  C   UNL     1       2.820  31.903  52.845  1.00  0.00     0.035 A 
HETATM   32  C   UNL     1       3.873  29.936  54.607  1.00  0.00     0.033 A 
HETATM   33  C   UNL     1       3.551  31.218  55.064  1.00  0.00     0.002 A 
HETATM   34  C   UNL     1       3.035  32.188  54.200  1.00  0.00     0.002 A 
ENDBRANCH  25  26
ENDBRANCH   2  25
TORSDOF 8
ENDMDL
