MODEL 1
REMARK VINA RESULT:      -9.5      0.000      0.000
REMARK  8 active torsions:
REMARK  status: ('A' for Active; 'I' for Inactive)
REMARK    1  A    between atoms: C_8  and  C_9 
REMARK       I    between atoms: C_9  and  N_10 
REMARK    2  A    between atoms: N_10  and  N_11 
REMARK    3  A    between atoms: N_11  and  C_12 
REMARK    4  A    between atoms: C_12  and  N_13 
REMARK    5  A    between atoms: N_13  and  C_14 
REMARK    6  A    between atoms: C_15  and  O_16 
REMARK    7  A    between atoms: C_19  and  O_20 
REMARK    8  A    between atoms: C_26  and  C_27 
ROOT
HETATM    1  C   UNL     1       7.585  27.125  57.154  1.00  0.00     0.275 C 
HETATM    2  N   UNL     1       8.641  28.004  57.269  1.00  0.00    -0.263 N 
HETATM    3  O   UNL     1       6.430  27.421  57.452  1.00  0.00    -0.266 OA
HETATM    4  H   UNL     1       9.596  27.662  57.205  1.00  0.00     0.190 HD
ENDROOT
BRANCH   2   5
HETATM    5  N   UNL     1       8.430  29.283  57.824  1.00  0.00    -0.273 N 
HETATM    6  H   UNL     1       7.527  29.685  57.559  1.00  0.00     0.189 HD
BRANCH   5   7
HETATM    7  C   UNL     1       9.476  30.159  57.835  1.00  0.00     0.191 C 
HETATM    8  S   UNL     1      10.908  29.749  57.084  1.00  0.00    -0.039 SA
BRANCH   7   9
HETATM    9  N   UNL     1       9.389  31.328  58.526  1.00  0.00    -0.330 N 
HETATM   10  H   UNL     1       9.654  32.154  57.996  1.00  0.00     0.168 HD
BRANCH   9  11
HETATM   11  C   UNL     1       8.763  31.638  59.758  1.00  0.00     0.068 A 
HETATM   12  C   UNL     1       7.409  32.034  59.714  1.00  0.00     0.097 A 
HETATM   13  C   UNL     1       6.726  32.328  60.902  1.00  0.00     0.075 A 
HETATM   14  C   UNL     1       7.375  32.216  62.133  1.00  0.00     0.070 A 
HETATM   15  C   UNL     1       8.709  31.807  62.170  1.00  0.00     0.039 A 
HETATM   16  C   UNL     1       9.398  31.507  60.994  1.00  0.00     0.035 A 
BRANCH  12  17
HETATM   17  O   UNL     1       6.862  32.110  58.454  1.00  0.00    -0.354 OA
HETATM   18  C   UNL     1       5.547  31.596  58.278  1.00  0.00     0.210 C 
ENDBRANCH  12  17
BRANCH  14  19
HETATM   19  O   UNL     1       6.828  32.470  63.360  1.00  0.00    -0.356 OA
HETATM   20  C   UNL     1       7.630  33.177  64.298  1.00  0.00     0.210 C 
ENDBRANCH  14  19
ENDBRANCH   9  11
ENDBRANCH   7   9
ENDBRANCH   5   7
ENDBRANCH   2   5
BRANCH   1  21
HETATM   21  C   UNL     1       7.963  25.809  56.683  1.00  0.00     0.098 A 
HETATM   22  C   UNL     1       7.672  25.194  55.480  1.00  0.00     0.138 A 
HETATM   23  N   UNL     1       6.940  25.564  54.398  1.00  0.00    -0.370 N 
HETATM   24  N   UNL     1       8.277  23.959  55.534  1.00  0.00    -0.240 N 
HETATM   25  C   UNL     1       6.929  24.760  53.180  1.00  0.00     0.081 C 
HETATM   26  H   UNL     1       6.215  26.281  54.457  1.00  0.00     0.161 HD
HETATM   27  C   UNL     1       8.038  25.235  52.245  1.00  0.00     0.032 C 
HETATM   28  C   UNL     1       7.033  23.275  53.534  1.00  0.00     0.061 C 
HETATM   29  C   UNL     1       8.222  22.975  54.467  1.00  0.00     0.221 C 
HETATM   30  N   UNL     1       8.986  23.757  56.654  1.00  0.00    -0.181 NA
HETATM   31  C   UNL     1       8.754  24.861  57.371  1.00  0.00     0.160 A 
BRANCH  29  32
HETATM   32  C   UNL     1       8.105  21.559  54.991  1.00  0.00     0.409 C 
HETATM   33  F   UNL     1       7.227  21.453  56.014  1.00  0.00    -0.169 F 
HETATM   34  F   UNL     1       7.635  20.751  53.999  1.00  0.00    -0.169 F 
HETATM   35  F   UNL     1       9.281  21.023  55.377  1.00  0.00    -0.169 F 
ENDBRANCH  29  32
ENDBRANCH   1  21
TORSDOF 8
ENDMDL
MODEL 2
REMARK VINA RESULT:      -9.4      4.497      9.464
REMARK  8 active torsions:
REMARK  status: ('A' for Active; 'I' for Inactive)
REMARK    1  A    between atoms: C_8  and  C_9 
REMARK       I    between atoms: C_9  and  N_10 
REMARK    2  A    between atoms: N_10  and  N_11 
REMARK    3  A    between atoms: N_11  and  C_12 
REMARK    4  A    between atoms: C_12  and  N_13 
REMARK    5  A    between atoms: N_13  and  C_14 
REMARK    6  A    between atoms: C_15  and  O_16 
REMARK    7  A    between atoms: C_19  and  O_20 
REMARK    8  A    between atoms: C_26  and  C_27 
ROOT
HETATM    1  C   UNL     1       6.295  30.072  56.150  1.00  0.00     0.275 C 
HETATM    2  N   UNL     1       6.786  29.104  55.299  1.00  0.00    -0.263 N 
HETATM    3  O   UNL     1       5.377  30.830  55.845  1.00  0.00    -0.266 OA
HETATM    4  H   UNL     1       7.665  28.640  55.511  1.00  0.00     0.190 HD
ENDROOT
BRANCH   2   5
HETATM    5  N   UNL     1       6.284  29.006  53.985  1.00  0.00    -0.273 N 
HETATM    6  H   UNL     1       5.352  29.418  53.886  1.00  0.00     0.189 HD
BRANCH   5   7
HETATM    7  C   UNL     1       6.479  27.838  53.308  1.00  0.00     0.191 C 
HETATM    8  S   UNL     1       5.389  27.368  52.136  1.00  0.00    -0.039 SA
BRANCH   7   9
HETATM    9  N   UNL     1       7.509  27.013  53.639  1.00  0.00    -0.330 N 
HETATM   10  H   UNL     1       8.316  27.484  54.041  1.00  0.00     0.168 HD
BRANCH   9  11
HETATM   11  C   UNL     1       7.571  25.604  53.764  1.00  0.00     0.068 A 
HETATM   12  C   UNL     1       7.211  25.047  55.010  1.00  0.00     0.097 A 
HETATM   13  C   UNL     1       7.226  23.657  55.188  1.00  0.00     0.075 A 
HETATM   14  C   UNL     1       7.581  22.817  54.131  1.00  0.00     0.070 A 
HETATM   15  C   UNL     1       7.917  23.373  52.896  1.00  0.00     0.039 A 
HETATM   16  C   UNL     1       7.901  24.756  52.706  1.00  0.00     0.035 A 
BRANCH  12  17
HETATM   17  O   UNL     1       6.877  25.961  55.984  1.00  0.00    -0.354 OA
HETATM   18  C   UNL     1       5.604  25.821  56.603  1.00  0.00     0.210 C 
ENDBRANCH  12  17
BRANCH  14  19
HETATM   19  O   UNL     1       7.635  21.452  54.169  1.00  0.00    -0.356 OA
HETATM   20  C   UNL     1       8.274  20.794  53.082  1.00  0.00     0.210 C 
ENDBRANCH  14  19
ENDBRANCH   9  11
ENDBRANCH   7   9
ENDBRANCH   5   7
ENDBRANCH   2   5
BRANCH   1  21
HETATM   21  C   UNL     1       6.980  30.140  57.423  1.00  0.00     0.098 A 
HETATM   22  C   UNL     1       6.802  31.031  58.465  1.00  0.00     0.138 A 
HETATM   23  N   UNL     1       6.003  32.115  58.638  1.00  0.00    -0.370 N 
HETATM   24  N   UNL     1       7.694  30.649  59.441  1.00  0.00    -0.240 N 
HETATM   25  C   UNL     1       5.914  32.793  59.927  1.00  0.00     0.081 C 
HETATM   26  H   UNL     1       5.607  32.624  57.846  1.00  0.00     0.161 HD
HETATM   27  C   UNL     1       4.786  32.177  60.751  1.00  0.00     0.032 C 
HETATM   28  C   UNL     1       7.271  32.749  60.634  1.00  0.00     0.061 C 
HETATM   29  C   UNL     1       7.844  31.322  60.720  1.00  0.00     0.221 C 
HETATM   30  N   UNL     1       8.388  29.544  59.132  1.00  0.00    -0.181 NA
HETATM   31  C   UNL     1       7.989  29.265  57.888  1.00  0.00     0.160 A 
BRANCH  29  32
HETATM   32  C   UNL     1       9.287  31.386  61.175  1.00  0.00     0.409 C 
HETATM   33  F   UNL     1      10.114  31.864  60.217  1.00  0.00    -0.169 F 
HETATM   34  F   UNL     1       9.388  32.244  62.229  1.00  0.00    -0.169 F 
HETATM   35  F   UNL     1       9.772  30.206  61.612  1.00  0.00    -0.169 F 
ENDBRANCH  29  32
ENDBRANCH   1  21
TORSDOF 8
ENDMDL
MODEL 3
REMARK VINA RESULT:      -9.3      2.154      2.979
REMARK  8 active torsions:
REMARK  status: ('A' for Active; 'I' for Inactive)
REMARK    1  A    between atoms: C_8  and  C_9 
REMARK       I    between atoms: C_9  and  N_10 
REMARK    2  A    between atoms: N_10  and  N_11 
REMARK    3  A    between atoms: N_11  and  C_12 
REMARK    4  A    between atoms: C_12  and  N_13 
REMARK    5  A    between atoms: N_13  and  C_14 
REMARK    6  A    between atoms: C_15  and  O_16 
REMARK    7  A    between atoms: C_19  and  O_20 
REMARK    8  A    between atoms: C_26  and  C_27 
ROOT
HETATM    1  C   UNL     1       7.064  25.887  57.313  1.00  0.00     0.275 C 
HETATM    2  N   UNL     1       5.805  26.268  56.897  1.00  0.00    -0.263 N 
HETATM    3  O   UNL     1       7.710  26.511  58.152  1.00  0.00    -0.266 OA
HETATM    4  H   UNL     1       5.395  25.846  56.067  1.00  0.00     0.190 HD
ENDROOT
BRANCH   2   5
HETATM    5  N   UNL     1       5.241  27.466  57.380  1.00  0.00    -0.273 N 
HETATM    6  H   UNL     1       4.308  27.333  57.776  1.00  0.00     0.189 HD
BRANCH   5   7
HETATM    7  C   UNL     1       5.401  28.598  56.634  1.00  0.00     0.191 C 
HETATM    8  S   UNL     1       4.147  29.145  55.680  1.00  0.00    -0.039 SA
BRANCH   7   9
HETATM    9  N   UNL     1       6.603  29.235  56.596  1.00  0.00    -0.330 N 
HETATM   10  H   UNL     1       7.027  29.282  55.673  1.00  0.00     0.168 HD
BRANCH   9  11
HETATM   11  C   UNL     1       7.250  30.061  57.546  1.00  0.00     0.068 A 
HETATM   12  C   UNL     1       8.658  29.992  57.612  1.00  0.00     0.097 A 
HETATM   13  C   UNL     1       9.359  30.805  58.513  1.00  0.00     0.075 A 
HETATM   14  C   UNL     1       8.670  31.696  59.339  1.00  0.00     0.070 A 
HETATM   15  C   UNL     1       7.279  31.771  59.256  1.00  0.00     0.039 A 
HETATM   16  C   UNL     1       6.571  30.970  58.359  1.00  0.00     0.035 A 
BRANCH  12  17
HETATM   17  O   UNL     1       9.240  29.085  56.756  1.00  0.00    -0.354 OA
HETATM   18  C   UNL     1      10.146  29.591  55.782  1.00  0.00     0.210 C 
ENDBRANCH  12  17
BRANCH  14  19
HETATM   19  O   UNL     1       9.228  32.541  60.256  1.00  0.00    -0.356 OA
HETATM   20  C   UNL     1       9.660  31.974  61.487  1.00  0.00     0.210 C 
ENDBRANCH  14  19
ENDBRANCH   9  11
ENDBRANCH   7   9
ENDBRANCH   5   7
ENDBRANCH   2   5
BRANCH   1  21
HETATM   21  C   UNL     1       7.571  24.705  56.649  1.00  0.00     0.098 A 
HETATM   22  C   UNL     1       7.434  24.317  55.329  1.00  0.00     0.138 A 
HETATM   23  N   UNL     1       6.782  24.850  54.265  1.00  0.00    -0.370 N 
HETATM   24  N   UNL     1       8.113  23.125  55.216  1.00  0.00    -0.240 N 
HETATM   25  C   UNL     1       6.937  24.293  52.925  1.00  0.00     0.081 C 
HETATM   26  H   UNL     1       6.008  25.506  54.380  1.00  0.00     0.161 HD
HETATM   27  C   UNL     1       8.093  24.991  52.213  1.00  0.00     0.032 C 
HETATM   28  C   UNL     1       7.108  22.774  53.007  1.00  0.00     0.061 C 
HETATM   29  C   UNL     1       8.224  22.361  53.986  1.00  0.00     0.221 C 
HETATM   30  N   UNL     1       8.728  22.748  56.347  1.00  0.00    -0.181 NA
HETATM   31  C   UNL     1       8.358  23.682  57.228  1.00  0.00     0.160 A 
BRANCH  29  32
HETATM   32  C   UNL     1       8.154  20.866  54.225  1.00  0.00     0.409 C 
HETATM   33  F   UNL     1       7.246  20.531  55.169  1.00  0.00    -0.169 F 
HETATM   34  F   UNL     1       7.758  20.247  53.077  1.00  0.00    -0.169 F 
HETATM   35  F   UNL     1       9.339  20.312  54.552  1.00  0.00    -0.169 F 
ENDBRANCH  29  32
ENDBRANCH   1  21
TORSDOF 8
ENDMDL
MODEL 4
REMARK VINA RESULT:      -9.1      4.465      6.506
REMARK  8 active torsions:
REMARK  status: ('A' for Active; 'I' for Inactive)
REMARK    1  A    between atoms: C_8  and  C_9 
REMARK       I    between atoms: C_9  and  N_10 
REMARK    2  A    between atoms: N_10  and  N_11 
REMARK    3  A    between atoms: N_11  and  C_12 
REMARK    4  A    between atoms: C_12  and  N_13 
REMARK    5  A    between atoms: N_13  and  C_14 
REMARK    6  A    between atoms: C_15  and  O_16 
REMARK    7  A    between atoms: C_19  and  O_20 
REMARK    8  A    between atoms: C_26  and  C_27 
ROOT
HETATM    1  C   UNL     1       7.034  25.954  57.316  1.00  0.00     0.275 C 
HETATM    2  N   UNL     1       5.775  26.301  56.874  1.00  0.00    -0.263 N 
HETATM    3  O   UNL     1       7.664  26.617  58.137  1.00  0.00    -0.266 OA
HETATM    4  H   UNL     1       5.379  25.844  56.057  1.00  0.00     0.190 HD
ENDROOT
BRANCH   2   5
HETATM    5  N   UNL     1       5.190  27.509  57.307  1.00  0.00    -0.273 N 
HETATM    6  H   UNL     1       4.650  27.401  58.169  1.00  0.00     0.189 HD
BRANCH   5   7
HETATM    7  C   UNL     1       4.629  28.324  56.367  1.00  0.00     0.191 C 
HETATM    8  S   UNL     1       4.446  29.952  56.684  1.00  0.00    -0.039 SA
BRANCH   7   9
HETATM    9  N   UNL     1       4.139  27.805  55.208  1.00  0.00    -0.330 N 
HETATM   10  H   UNL     1       3.324  27.208  55.323  1.00  0.00     0.168 HD
BRANCH   9  11
HETATM   11  C   UNL     1       4.394  28.141  53.856  1.00  0.00     0.068 A 
HETATM   12  C   UNL     1       5.722  28.011  53.396  1.00  0.00     0.097 A 
HETATM   13  C   UNL     1       6.033  28.302  52.061  1.00  0.00     0.075 A 
HETATM   14  C   UNL     1       5.030  28.707  51.177  1.00  0.00     0.070 A 
HETATM   15  C   UNL     1       3.717  28.815  51.634  1.00  0.00     0.039 A 
HETATM   16  C   UNL     1       3.395  28.523  52.961  1.00  0.00     0.035 A 
BRANCH  12  17
HETATM   17  O   UNL     1       6.633  27.605  54.345  1.00  0.00    -0.354 OA
HETATM   18  C   UNL     1       7.881  28.286  54.387  1.00  0.00     0.210 C 
ENDBRANCH  12  17
BRANCH  14  19
HETATM   19  O   UNL     1       5.197  29.018  49.857  1.00  0.00    -0.356 OA
HETATM   20  C   UNL     1       4.626  28.132  48.902  1.00  0.00     0.210 C 
ENDBRANCH  14  19
ENDBRANCH   9  11
ENDBRANCH   7   9
ENDBRANCH   5   7
ENDBRANCH   2   5
BRANCH   1  21
HETATM   21  C   UNL     1       7.564  24.756  56.702  1.00  0.00     0.098 A 
HETATM   22  C   UNL     1       7.436  24.311  55.399  1.00  0.00     0.138 A 
HETATM   23  N   UNL     1       6.774  24.787  54.313  1.00  0.00    -0.370 N 
HETATM   24  N   UNL     1       8.137  23.129  55.335  1.00  0.00    -0.240 N 
HETATM   25  C   UNL     1       6.940  24.179  52.997  1.00  0.00     0.081 C 
HETATM   26  H   UNL     1       5.987  25.432  54.401  1.00  0.00     0.161 HD
HETATM   27  C   UNL     1       8.083  24.869  52.257  1.00  0.00     0.032 C 
HETATM   28  C   UNL     1       7.140  22.668  53.142  1.00  0.00     0.061 C 
HETATM   29  C   UNL     1       8.263  22.317  54.137  1.00  0.00     0.221 C 
HETATM   30  N   UNL     1       8.759  22.810  56.480  1.00  0.00    -0.181 NA
HETATM   31  C   UNL     1       8.370  23.773  57.321  1.00  0.00     0.160 A 
BRANCH  29  32
HETATM   32  C   UNL     1       8.221  20.832  54.437  1.00  0.00     0.409 C 
HETATM   33  F   UNL     1       7.252  20.506  55.321  1.00  0.00    -0.169 F 
HETATM   34  F   UNL     1       7.939  20.151  53.291  1.00  0.00    -0.169 F 
HETATM   35  F   UNL     1       9.394  20.335  54.881  1.00  0.00    -0.169 F 
ENDBRANCH  29  32
ENDBRANCH   1  21
TORSDOF 8
ENDMDL
MODEL 5
REMARK VINA RESULT:      -8.9      4.803     10.093
REMARK  8 active torsions:
REMARK  status: ('A' for Active; 'I' for Inactive)
REMARK    1  A    between atoms: C_8  and  C_9 
REMARK       I    between atoms: C_9  and  N_10 
REMARK    2  A    between atoms: N_10  and  N_11 
REMARK    3  A    between atoms: N_11  and  C_12 
REMARK    4  A    between atoms: C_12  and  N_13 
REMARK    5  A    between atoms: N_13  and  C_14 
REMARK    6  A    between atoms: C_15  and  O_16 
REMARK    7  A    between atoms: C_19  and  O_20 
REMARK    8  A    between atoms: C_26  and  C_27 
ROOT
HETATM    1  C   UNL     1       7.811  29.229  57.407  1.00  0.00     0.275 C 
HETATM    2  N   UNL     1       7.085  28.889  56.286  1.00  0.00    -0.263 N 
HETATM    3  O   UNL     1       8.808  28.610  57.774  1.00  0.00    -0.266 OA
HETATM    4  H   UNL     1       6.165  29.295  56.133  1.00  0.00     0.190 HD
ENDROOT
BRANCH   2   5
HETATM    5  N   UNL     1       7.431  27.736  55.550  1.00  0.00    -0.273 N 
HETATM    6  H   UNL     1       8.394  27.762  55.205  1.00  0.00     0.189 HD
BRANCH   5   7
HETATM    7  C   UNL     1       6.513  27.232  54.676  1.00  0.00     0.191 C 
HETATM    8  S   UNL     1       5.813  28.235  53.540  1.00  0.00    -0.039 SA
BRANCH   7   9
HETATM    9  N   UNL     1       6.101  25.940  54.777  1.00  0.00    -0.330 N 
HETATM   10  H   UNL     1       5.093  25.821  54.838  1.00  0.00     0.168 HD
BRANCH   9  11
HETATM   11  C   UNL     1       6.791  24.722  54.561  1.00  0.00     0.068 A 
HETATM   12  C   UNL     1       7.353  24.087  55.688  1.00  0.00     0.097 A 
HETATM   13  C   UNL     1       8.025  22.865  55.543  1.00  0.00     0.075 A 
HETATM   14  C   UNL     1       8.127  22.264  54.287  1.00  0.00     0.070 A 
HETATM   15  C   UNL     1       7.553  22.889  53.179  1.00  0.00     0.039 A 
HETATM   16  C   UNL     1       6.878  24.103  53.313  1.00  0.00     0.035 A 
BRANCH  12  17
HETATM   17  O   UNL     1       7.196  24.761  56.878  1.00  0.00    -0.354 OA
HETATM   18  C   UNL     1       8.372  25.071  57.615  1.00  0.00     0.210 C 
ENDBRANCH  12  17
BRANCH  14  19
HETATM   19  O   UNL     1       8.750  21.080  54.008  1.00  0.00    -0.356 OA
HETATM   20  C   UNL     1       8.365  20.406  52.816  1.00  0.00     0.210 C 
ENDBRANCH  14  19
ENDBRANCH   9  11
ENDBRANCH   7   9
ENDBRANCH   5   7
ENDBRANCH   2   5
BRANCH   1  21
HETATM   21  C   UNL     1       7.276  30.359  58.135  1.00  0.00     0.098 A 
HETATM   22  C   UNL     1       7.537  30.770  59.429  1.00  0.00     0.138 A 
HETATM   23  N   UNL     1       8.307  30.266  60.428  1.00  0.00    -0.370 N 
HETATM   24  N   UNL     1       6.780  31.902  59.624  1.00  0.00    -0.240 N 
HETATM   25  C   UNL     1       8.517  31.006  61.668  1.00  0.00     0.081 C 
HETATM   26  H   UNL     1       8.588  29.285  60.450  1.00  0.00     0.161 HD
HETATM   27  C   UNL     1       9.756  31.887  61.534  1.00  0.00     0.032 C 
HETATM   28  C   UNL     1       7.253  31.793  62.027  1.00  0.00     0.061 C 
HETATM   29  C   UNL     1       6.752  32.664  60.860  1.00  0.00     0.221 C 
HETATM   30  N   UNL     1       6.100  32.288  58.534  1.00  0.00    -0.181 NA
HETATM   31  C   UNL     1       6.363  31.324  57.647  1.00  0.00     0.160 A 
BRANCH  29  32
HETATM   32  C   UNL     1       5.369  33.191  61.185  1.00  0.00     0.409 C 
HETATM   33  F   UNL     1       4.415  32.237  61.101  1.00  0.00    -0.169 F 
HETATM   34  F   UNL     1       5.351  33.639  62.472  1.00  0.00    -0.169 F 
HETATM   35  F   UNL     1       4.996  34.241  60.424  1.00  0.00    -0.169 F 
ENDBRANCH  29  32
ENDBRANCH   1  21
TORSDOF 8
ENDMDL
MODEL 6
REMARK VINA RESULT:      -8.8      2.336      3.098
REMARK  8 active torsions:
REMARK  status: ('A' for Active; 'I' for Inactive)
REMARK    1  A    between atoms: C_8  and  C_9 
REMARK       I    between atoms: C_9  and  N_10 
REMARK    2  A    between atoms: N_10  and  N_11 
REMARK    3  A    between atoms: N_11  and  C_12 
REMARK    4  A    between atoms: C_12  and  N_13 
REMARK    5  A    between atoms: N_13  and  C_14 
REMARK    6  A    between atoms: C_15  and  O_16 
REMARK    7  A    between atoms: C_19  and  O_20 
REMARK    8  A    between atoms: C_26  and  C_27 
ROOT
HETATM    1  C   UNL     1       6.271  29.247  57.632  1.00  0.00     0.275 C 
HETATM    2  N   UNL     1       7.200  29.841  58.460  1.00  0.00    -0.263 N 
HETATM    3  O   UNL     1       5.128  29.676  57.488  1.00  0.00    -0.266 OA
HETATM    4  H   UNL     1       8.055  29.346  58.702  1.00  0.00     0.190 HD
ENDROOT
BRANCH   2   5
HETATM    5  N   UNL     1       6.827  30.947  59.250  1.00  0.00    -0.273 N 
HETATM    6  H   UNL     1       6.434  31.714  58.698  1.00  0.00     0.189 HD
BRANCH   5   7
HETATM    7  C   UNL     1       7.663  31.326  60.260  1.00  0.00     0.191 C 
HETATM    8  S   UNL     1       9.144  32.005  59.898  1.00  0.00    -0.039 SA
BRANCH   7   9
HETATM    9  N   UNL     1       7.336  31.077  61.556  1.00  0.00    -0.330 N 
HETATM   10  H   UNL     1       7.559  30.139  61.877  1.00  0.00     0.168 HD
BRANCH   9  11
HETATM   11  C   UNL     1       6.977  31.951  62.612  1.00  0.00     0.068 A 
HETATM   12  C   UNL     1       5.623  32.341  62.698  1.00  0.00     0.097 A 
HETATM   13  C   UNL     1       5.201  33.184  63.735  1.00  0.00     0.075 A 
HETATM   14  C   UNL     1       6.112  33.628  64.696  1.00  0.00     0.070 A 
HETATM   15  C   UNL     1       7.445  33.223  64.615  1.00  0.00     0.039 A 
HETATM   16  C   UNL     1       7.876  32.381  63.589  1.00  0.00     0.035 A 
BRANCH  12  17
HETATM   17  O   UNL     1       4.808  31.848  61.704  1.00  0.00    -0.354 OA
HETATM   18  C   UNL     1       3.541  32.470  61.529  1.00  0.00     0.210 C 
ENDBRANCH  12  17
BRANCH  14  19
HETATM   19  O   UNL     1       5.833  34.446  65.754  1.00  0.00    -0.356 OA
HETATM   20  C   UNL     1       6.532  34.202  66.969  1.00  0.00     0.210 C 
ENDBRANCH  14  19
ENDBRANCH   9  11
ENDBRANCH   7   9
ENDBRANCH   5   7
ENDBRANCH   2   5
BRANCH   1  21
HETATM   21  C   UNL     1       6.750  28.051  56.972  1.00  0.00     0.098 A 
HETATM   22  C   UNL     1       6.304  27.458  55.805  1.00  0.00     0.138 A 
HETATM   23  N   UNL     1       5.297  27.744  54.941  1.00  0.00    -0.370 N 
HETATM   24  N   UNL     1       7.105  26.355  55.615  1.00  0.00    -0.240 N 
HETATM   25  C   UNL     1       5.149  27.019  53.684  1.00  0.00     0.081 C 
HETATM   26  H   UNL     1       4.493  28.310  55.218  1.00  0.00     0.161 HD
HETATM   27  C   UNL     1       5.923  27.740  52.584  1.00  0.00     0.032 C 
HETATM   28  C   UNL     1       5.578  25.561  53.868  1.00  0.00     0.061 C 
HETATM   29  C   UNL     1       6.979  25.437  54.497  1.00  0.00     0.221 C 
HETATM   30  N   UNL     1       8.071  26.228  56.537  1.00  0.00    -0.181 NA
HETATM   31  C   UNL     1       7.824  27.229  57.385  1.00  0.00     0.160 A 
BRANCH  29  32
HETATM   32  C   UNL     1       7.222  23.997  54.900  1.00  0.00     0.409 C 
HETATM   33  F   UNL     1       6.762  23.114  53.985  1.00  0.00    -0.169 F 
HETATM   34  F   UNL     1       8.564  23.779  54.999  1.00  0.00    -0.169 F 
HETATM   35  F   UNL     1       6.707  23.676  56.105  1.00  0.00    -0.169 F 
ENDBRANCH  29  32
ENDBRANCH   1  21
TORSDOF 8
ENDMDL
MODEL 7
REMARK VINA RESULT:      -8.7      2.103      3.084
REMARK  8 active torsions:
REMARK  status: ('A' for Active; 'I' for Inactive)
REMARK    1  A    between atoms: C_8  and  C_9 
REMARK       I    between atoms: C_9  and  N_10 
REMARK    2  A    between atoms: N_10  and  N_11 
REMARK    3  A    between atoms: N_11  and  C_12 
REMARK    4  A    between atoms: C_12  and  N_13 
REMARK    5  A    between atoms: N_13  and  C_14 
REMARK    6  A    between atoms: C_15  and  O_16 
REMARK    7  A    between atoms: C_19  and  O_20 
REMARK    8  A    between atoms: C_26  and  C_27 
ROOT
HETATM    1  C   UNL     1       7.176  27.631  57.357  1.00  0.00     0.275 C 
HETATM    2  N   UNL     1       6.279  28.678  57.332  1.00  0.00    -0.263 N 
HETATM    3  O   UNL     1       8.095  27.554  58.169  1.00  0.00    -0.266 OA
HETATM    4  H   UNL     1       5.666  28.803  56.530  1.00  0.00     0.190 HD
ENDROOT
BRANCH   2   5
HETATM    5  N   UNL     1       6.447  29.764  58.215  1.00  0.00    -0.273 N 
HETATM    6  H   UNL     1       6.423  29.483  59.198  1.00  0.00     0.189 HD
BRANCH   5   7
HETATM    7  C   UNL     1       5.800  30.931  57.928  1.00  0.00     0.191 C 
HETATM    8  S   UNL     1       4.730  30.992  56.649  1.00  0.00    -0.039 SA
BRANCH   7   9
HETATM    9  N   UNL     1       6.083  32.066  58.623  1.00  0.00    -0.330 N 
HETATM   10  H   UNL     1       5.683  32.914  58.230  1.00  0.00     0.168 HD
BRANCH   9  11
HETATM   11  C   UNL     1       6.615  32.255  59.922  1.00  0.00     0.068 A 
HETATM   12  C   UNL     1       8.020  32.257  60.052  1.00  0.00     0.097 A 
HETATM   13  C   UNL     1       8.608  32.466  61.308  1.00  0.00     0.075 A 
HETATM   14  C   UNL     1       7.808  32.689  62.430  1.00  0.00     0.070 A 
HETATM   15  C   UNL     1       6.420  32.704  62.291  1.00  0.00     0.039 A 
HETATM   16  C   UNL     1       5.824  32.501  61.045  1.00  0.00     0.035 A 
BRANCH  12  17
HETATM   17  O   UNL     1       8.716  32.030  58.887  1.00  0.00    -0.354 OA
HETATM   18  C   UNL     1       9.684  30.987  58.895  1.00  0.00     0.210 C 
ENDBRANCH  12  17
BRANCH  14  19
HETATM   19  O   UNL     1       8.250  32.907  63.705  1.00  0.00    -0.356 OA
HETATM   20  C   UNL     1       7.266  33.143  64.705  1.00  0.00     0.210 C 
ENDBRANCH  14  19
ENDBRANCH   9  11
ENDBRANCH   7   9
ENDBRANCH   5   7
ENDBRANCH   2   5
BRANCH   1  21
HETATM   21  C   UNL     1       6.959  26.645  56.320  1.00  0.00     0.098 A 
HETATM   22  C   UNL     1       7.591  25.431  56.121  1.00  0.00     0.138 A 
HETATM   23  N   UNL     1       8.604  24.793  56.761  1.00  0.00    -0.370 N 
HETATM   24  N   UNL     1       7.003  24.881  55.005  1.00  0.00    -0.240 N 
HETATM   25  C   UNL     1       8.974  23.424  56.417  1.00  0.00     0.081 C 
HETATM   26  H   UNL     1       9.277  25.296  57.342  1.00  0.00     0.161 HD
HETATM   27  C   UNL     1       8.183  22.448  57.285  1.00  0.00     0.032 C 
HETATM   28  C   UNL     1       8.779  23.192  54.916  1.00  0.00     0.061 C 
HETATM   29  C   UNL     1       7.372  23.595  54.437  1.00  0.00     0.221 C 
HETATM   30  N   UNL     1       5.999  25.618  54.507  1.00  0.00    -0.181 NA
HETATM   31  C   UNL     1       6.006  26.710  55.277  1.00  0.00     0.160 A 
BRANCH  29  32
HETATM   32  C   UNL     1       7.339  23.601  52.923  1.00  0.00     0.409 C 
HETATM   33  F   UNL     1       6.087  23.719  52.429  1.00  0.00    -0.169 F 
HETATM   34  F   UNL     1       8.035  24.679  52.463  1.00  0.00    -0.169 F 
HETATM   35  F   UNL     1       7.922  22.520  52.363  1.00  0.00    -0.169 F 
ENDBRANCH  29  32
ENDBRANCH   1  21
TORSDOF 8
ENDMDL
MODEL 8
REMARK VINA RESULT:      -8.6      4.321      6.412
REMARK  8 active torsions:
REMARK  status: ('A' for Active; 'I' for Inactive)
REMARK    1  A    between atoms: C_8  and  C_9 
REMARK       I    between atoms: C_9  and  N_10 
REMARK    2  A    between atoms: N_10  and  N_11 
REMARK    3  A    between atoms: N_11  and  C_12 
REMARK    4  A    between atoms: C_12  and  N_13 
REMARK    5  A    between atoms: N_13  and  C_14 
REMARK    6  A    between atoms: C_15  and  O_16 
REMARK    7  A    between atoms: C_19  and  O_20 
REMARK    8  A    between atoms: C_26  and  C_27 
ROOT
HETATM    1  C   UNL     1       6.983  25.928  57.264  1.00  0.00     0.275 C 
HETATM    2  N   UNL     1       5.696  26.228  56.871  1.00  0.00    -0.263 N 
HETATM    3  O   UNL     1       7.625  26.623  58.048  1.00  0.00    -0.266 OA
HETATM    4  H   UNL     1       5.280  25.746  56.078  1.00  0.00     0.190 HD
ENDROOT
BRANCH   2   5
HETATM    5  N   UNL     1       5.090  27.423  57.314  1.00  0.00    -0.273 N 
HETATM    6  H   UNL     1       4.220  27.259  57.826  1.00  0.00     0.189 HD
BRANCH   5   7
HETATM    7  C   UNL     1       5.071  28.487  56.460  1.00  0.00     0.191 C 
HETATM    8  S   UNL     1       6.192  29.711  56.638  1.00  0.00    -0.039 SA
BRANCH   7   9
HETATM    9  N   UNL     1       4.094  28.601  55.520  1.00  0.00    -0.330 N 
HETATM   10  H   UNL     1       3.244  29.054  55.846  1.00  0.00     0.168 HD
BRANCH   9  11
HETATM   11  C   UNL     1       4.130  28.437  54.114  1.00  0.00     0.068 A 
HETATM   12  C   UNL     1       3.641  29.500  53.326  1.00  0.00     0.097 A 
HETATM   13  C   UNL     1       3.674  29.409  51.927  1.00  0.00     0.075 A 
HETATM   14  C   UNL     1       4.205  28.275  51.309  1.00  0.00     0.070 A 
HETATM   15  C   UNL     1       4.704  27.236  52.094  1.00  0.00     0.039 A 
HETATM   16  C   UNL     1       4.679  27.318  53.488  1.00  0.00     0.035 A 
BRANCH  12  17
HETATM   17  O   UNL     1       3.142  30.571  54.032  1.00  0.00    -0.354 OA
HETATM   18  C   UNL     1       3.074  31.824  53.361  1.00  0.00     0.210 C 
ENDBRANCH  12  17
BRANCH  14  19
HETATM   19  O   UNL     1       4.298  28.061  49.962  1.00  0.00    -0.356 OA
HETATM   20  C   UNL     1       4.642  26.749  49.534  1.00  0.00     0.210 C 
ENDBRANCH  14  19
ENDBRANCH   9  11
ENDBRANCH   7   9
ENDBRANCH   5   7
ENDBRANCH   2   5
BRANCH   1  21
HETATM   21  C   UNL     1       7.525  24.739  56.642  1.00  0.00     0.098 A 
HETATM   22  C   UNL     1       7.418  24.310  55.332  1.00  0.00     0.138 A 
HETATM   23  N   UNL     1       6.771  24.798  54.243  1.00  0.00    -0.370 N 
HETATM   24  N   UNL     1       8.124  23.130  55.265  1.00  0.00    -0.240 N 
HETATM   25  C   UNL     1       6.959  24.206  52.923  1.00  0.00     0.081 C 
HETATM   26  H   UNL     1       5.982  25.440  54.327  1.00  0.00     0.161 HD
HETATM   27  C   UNL     1       8.111  24.908  52.208  1.00  0.00     0.032 C 
HETATM   28  C   UNL     1       7.161  22.694  53.052  1.00  0.00     0.061 C 
HETATM   29  C   UNL     1       8.270  22.333  54.059  1.00  0.00     0.221 C 
HETATM   30  N   UNL     1       8.729  22.799  56.415  1.00  0.00    -0.181 NA
HETATM   31  C   UNL     1       8.325  23.750  57.262  1.00  0.00     0.160 A 
BRANCH  29  32
HETATM   32  C   UNL     1       8.228  20.845  54.340  1.00  0.00     0.409 C 
HETATM   33  F   UNL     1       7.247  20.506  55.207  1.00  0.00    -0.169 F 
HETATM   34  F   UNL     1       7.961  20.178  53.182  1.00  0.00    -0.169 F 
HETATM   35  F   UNL     1       9.395  20.345  54.793  1.00  0.00    -0.169 F 
ENDBRANCH  29  32
ENDBRANCH   1  21
TORSDOF 8
ENDMDL
MODEL 9
REMARK VINA RESULT:      -8.6      6.388     10.476
REMARK  8 active torsions:
REMARK  status: ('A' for Active; 'I' for Inactive)
REMARK    1  A    between atoms: C_8  and  C_9 
REMARK       I    between atoms: C_9  and  N_10 
REMARK    2  A    between atoms: N_10  and  N_11 
REMARK    3  A    between atoms: N_11  and  C_12 
REMARK    4  A    between atoms: C_12  and  N_13 
REMARK    5  A    between atoms: N_13  and  C_14 
REMARK    6  A    between atoms: C_15  and  O_16 
REMARK    7  A    between atoms: C_19  and  O_20 
REMARK    8  A    between atoms: C_26  and  C_27 
ROOT
HETATM    1  C   UNL     1       5.575  25.622  51.812  1.00  0.00     0.275 C 
HETATM    2  N   UNL     1       5.920  26.557  50.859  1.00  0.00    -0.263 N 
HETATM    3  O   UNL     1       4.662  24.812  51.659  1.00  0.00    -0.266 OA
HETATM    4  H   UNL     1       6.537  27.327  51.104  1.00  0.00     0.190 HD
ENDROOT
BRANCH   2   5
HETATM    5  N   UNL     1       5.159  26.665  49.677  1.00  0.00    -0.273 N 
HETATM    6  H   UNL     1       5.327  25.894  49.026  1.00  0.00     0.189 HD
BRANCH   5   7
HETATM    7  C   UNL     1       5.037  27.896  49.102  1.00  0.00     0.191 C 
HETATM    8  S   UNL     1       5.463  29.259  49.965  1.00  0.00    -0.039 SA
BRANCH   7   9
HETATM    9  N   UNL     1       4.492  28.028  47.863  1.00  0.00    -0.330 N 
HETATM   10  H   UNL     1       5.152  27.922  47.097  1.00  0.00     0.168 HD
BRANCH   9  11
HETATM   11  C   UNL     1       3.142  28.033  47.434  1.00  0.00     0.068 A 
HETATM   12  C   UNL     1       2.570  26.792  47.081  1.00  0.00     0.097 A 
HETATM   13  C   UNL     1       1.230  26.728  46.674  1.00  0.00     0.075 A 
HETATM   14  C   UNL     1       0.452  27.887  46.631  1.00  0.00     0.070 A 
HETATM   15  C   UNL     1       1.019  29.107  46.999  1.00  0.00     0.039 A 
HETATM   16  C   UNL     1       2.351  29.182  47.410  1.00  0.00     0.035 A 
BRANCH  12  17
HETATM   17  O   UNL     1       3.420  25.712  47.159  1.00  0.00    -0.354 OA
HETATM   18  C   UNL     1       2.976  24.582  47.900  1.00  0.00     0.210 C 
ENDBRANCH  12  17
BRANCH  14  19
HETATM   19  O   UNL     1      -0.860  27.963  46.256  1.00  0.00    -0.356 OA
HETATM   20  C   UNL     1      -1.391  29.258  46.005  1.00  0.00     0.210 C 
ENDBRANCH  14  19
ENDBRANCH   9  11
ENDBRANCH   7   9
ENDBRANCH   5   7
ENDBRANCH   2   5
BRANCH   1  21
HETATM   21  C   UNL     1       6.360  25.699  53.025  1.00  0.00     0.098 A 
HETATM   22  C   UNL     1       6.891  24.678  53.791  1.00  0.00     0.138 A 
HETATM   23  N   UNL     1       6.831  23.324  53.706  1.00  0.00    -0.370 N 
HETATM   24  N   UNL     1       7.558  25.292  54.826  1.00  0.00    -0.240 N 
HETATM   25  C   UNL     1       7.629  22.475  54.585  1.00  0.00     0.081 C 
HETATM   26  H   UNL     1       6.089  22.847  53.193  1.00  0.00     0.161 HD
HETATM   27  C   UNL     1       8.974  22.179  53.926  1.00  0.00     0.032 C 
HETATM   28  C   UNL     1       7.763  23.129  55.963  1.00  0.00     0.061 C 
HETATM   29  C   UNL     1       8.267  24.582  55.877  1.00  0.00     0.221 C 
HETATM   30  N   UNL     1       7.550  26.631  54.751  1.00  0.00    -0.181 NA
HETATM   31  C   UNL     1       6.782  26.877  53.685  1.00  0.00     0.160 A 
BRANCH  29  32
HETATM   32  C   UNL     1       8.114  25.247  57.229  1.00  0.00     0.409 C 
HETATM   33  F   UNL     1       6.822  25.350  57.617  1.00  0.00    -0.169 F 
HETATM   34  F   UNL     1       8.737  24.489  58.175  1.00  0.00    -0.169 F 
HETATM   35  F   UNL     1       8.683  26.468  57.302  1.00  0.00    -0.169 F 
ENDBRANCH  29  32
ENDBRANCH   1  21
TORSDOF 8
ENDMDL
MODEL 10
REMARK VINA RESULT:      -8.6      1.652      2.442
REMARK  8 active torsions:
REMARK  status: ('A' for Active; 'I' for Inactive)
REMARK    1  A    between atoms: C_8  and  C_9 
REMARK       I    between atoms: C_9  and  N_10 
REMARK    2  A    between atoms: N_10  and  N_11 
REMARK    3  A    between atoms: N_11  and  C_12 
REMARK    4  A    between atoms: C_12  and  N_13 
REMARK    5  A    between atoms: N_13  and  C_14 
REMARK    6  A    between atoms: C_15  and  O_16 
REMARK    7  A    between atoms: C_19  and  O_20 
REMARK    8  A    between atoms: C_26  and  C_27 
ROOT
HETATM    1  C   UNL     1       6.510  28.141  57.302  1.00  0.00     0.275 C 
HETATM    2  N   UNL     1       7.461  28.962  57.871  1.00  0.00    -0.263 N 
HETATM    3  O   UNL     1       5.306  28.384  57.339  1.00  0.00    -0.266 OA
HETATM    4  H   UNL     1       8.414  28.627  57.994  1.00  0.00     0.190 HD
ENDROOT
BRANCH   2   5
HETATM    5  N   UNL     1       7.058  30.098  58.603  1.00  0.00    -0.273 N 
HETATM    6  H   UNL     1       6.145  30.454  58.310  1.00  0.00     0.189 HD
BRANCH   5   7
HETATM    7  C   UNL     1       7.995  31.053  58.874  1.00  0.00     0.191 C 
HETATM    8  S   UNL     1       9.558  30.860  58.323  1.00  0.00    -0.039 SA
BRANCH   7   9
HETATM    9  N   UNL     1       7.686  32.118  59.661  1.00  0.00    -0.330 N 
HETATM   10  H   UNL     1       7.865  33.024  59.236  1.00  0.00     0.168 HD
BRANCH   9  11
HETATM   11  C   UNL     1       6.930  32.206  60.855  1.00  0.00     0.068 A 
HETATM   12  C   UNL     1       7.614  31.995  62.072  1.00  0.00     0.097 A 
HETATM   13  C   UNL     1       6.927  32.096  63.289  1.00  0.00     0.075 A 
HETATM   14  C   UNL     1       5.568  32.419  63.305  1.00  0.00     0.070 A 
HETATM   15  C   UNL     1       4.903  32.645  62.100  1.00  0.00     0.039 A 
HETATM   16  C   UNL     1       5.578  32.552  60.882  1.00  0.00     0.035 A 
BRANCH  12  17
HETATM   17  O   UNL     1       8.949  31.684  61.946  1.00  0.00    -0.354 OA
HETATM   18  C   UNL     1       9.333  30.338  62.197  1.00  0.00     0.210 C 
ENDBRANCH  12  17
BRANCH  14  19
HETATM   19  O   UNL     1       4.784  32.550  64.417  1.00  0.00    -0.356 OA
HETATM   20  C   UNL     1       4.843  33.788  65.114  1.00  0.00     0.210 C 
ENDBRANCH  14  19
ENDBRANCH   9  11
ENDBRANCH   7   9
ENDBRANCH   5   7
ENDBRANCH   2   5
BRANCH   1  21
HETATM   21  C   UNL     1       7.053  26.949  56.687  1.00  0.00     0.098 A 
HETATM   22  C   UNL     1       6.676  26.320  55.515  1.00  0.00     0.138 A 
HETATM   23  N   UNL     1       5.698  26.558  54.604  1.00  0.00    -0.370 N 
HETATM   24  N   UNL     1       7.518  25.239  55.381  1.00  0.00    -0.240 N 
HETATM   25  C   UNL     1       5.625  25.804  53.357  1.00  0.00     0.081 C 
HETATM   26  H   UNL     1       4.866  27.103  54.836  1.00  0.00     0.161 HD
HETATM   27  C   UNL     1       6.423  26.528  52.276  1.00  0.00     0.032 C 
HETATM   28  C   UNL     1       6.092  24.364  53.589  1.00  0.00     0.061 C 
HETATM   29  C   UNL     1       7.468  24.297  54.277  1.00  0.00     0.221 C 
HETATM   30  N   UNL     1       8.448  25.160  56.345  1.00  0.00    -0.181 NA
HETATM   31  C   UNL     1       8.134  26.169  57.162  1.00  0.00     0.160 A 
BRANCH  29  32
HETATM   32  C   UNL     1       7.738  22.873  54.719  1.00  0.00     0.409 C 
HETATM   33  F   UNL     1       9.038  22.660  55.026  1.00  0.00    -0.169 F 
HETATM   34  F   UNL     1       7.031  22.614  55.855  1.00  0.00    -0.169 F 
HETATM   35  F   UNL     1       7.350  21.943  53.823  1.00  0.00    -0.169 F 
ENDBRANCH  29  32
ENDBRANCH   1  21
TORSDOF 8
ENDMDL
