MODEL 1
REMARK VINA RESULT:      -9.1      0.000      0.000
REMARK  4 active torsions:
REMARK  status: ('A' for Active; 'I' for Inactive)
REMARK    1  A    between atoms: N_2  and  C_3 
REMARK    2  A    between atoms: C_5  and  C_6 
REMARK    3  A    between atoms: C_6  and  C_7 
REMARK    4  A    between atoms: C_14  and  O_15 
ROOT
HETATM    1  C   UNL     1       7.792  23.558  54.395  1.00  0.00     0.113 A 
HETATM    2  N   UNL     1       7.765  24.773  54.977  1.00  0.00    -0.223 NA
HETATM    3  C   UNL     1       7.939  24.854  56.322  1.00  0.00     0.106 A 
HETATM    4  N   UNL     1       8.120  23.781  57.110  1.00  0.00    -0.347 N 
HETATM    5  H   UNL     1       8.195  23.900  58.122  1.00  0.00     0.167 HD
HETATM    6  C   UNL     1       8.160  22.582  56.536  1.00  0.00     0.020 A 
HETATM    7  C   UNL     1       8.004  22.439  55.168  1.00  0.00     0.005 A 
HETATM    8  C   UNL     1       8.071  20.996  54.783  1.00  0.00     0.044 C 
HETATM    9  C   UNL     1       8.712  20.377  56.039  1.00  0.00     0.011 C 
HETATM   10  C   UNL     1       8.321  21.268  57.229  1.00  0.00     0.058 C 
ENDROOT
BRANCH   3  11
HETATM   11  C   UNL     1       7.878  26.207  56.968  1.00  0.00     0.085 C 
BRANCH  11  12
HETATM   12  C   UNL     1       7.335  27.314  56.033  1.00  0.00     0.021 C 
HETATM   13  C   UNL     1       6.342  28.260  56.711  1.00  0.00     0.181 C 
HETATM   14  O   UNL     1       6.897  28.751  57.941  1.00  0.00    -0.350 OA
HETATM   15  C   UNL     1       8.083  29.424  57.728  1.00  0.00     0.077 A 
HETATM   16  C   UNL     1       8.899  29.177  56.612  1.00  0.00    -0.024 A 
HETATM   17  C   UNL     1       8.471  30.334  58.715  1.00  0.00     0.074 A 
HETATM   18  C   UNL     1       8.496  28.190  55.545  1.00  0.00     0.048 C 
HETATM   19  C   UNL     1      10.098  29.884  56.481  1.00  0.00     0.012 A 
HETATM   20  C   UNL     1      10.478  30.801  57.462  1.00  0.00     0.037 A 
HETATM   21  C   UNL     1       9.670  31.034  58.577  1.00  0.00     0.070 A 
BRANCH  21  22
HETATM   22  O   UNL     1      10.171  31.954  59.454  1.00  0.00    -0.356 OA
HETATM   23  C   UNL     1       9.469  32.143  60.675  1.00  0.00     0.210 C 
ENDBRANCH  21  22
ENDBRANCH  11  12
ENDBRANCH   3  11
BRANCH   1  24
HETATM   24  N   UNL     1       7.691  23.435  53.014  1.00  0.00    -0.281 NA
HETATM   25  C   UNL     1       7.832  24.662  52.244  1.00  0.00     0.114 C 
HETATM   26  H   UNL     1       6.867  22.906  52.734  1.00  0.00     0.128 HD
ENDBRANCH   1  24
TORSDOF 4
ENDMDL
MODEL 2
REMARK VINA RESULT:      -8.7      4.776      8.416
REMARK  4 active torsions:
REMARK  status: ('A' for Active; 'I' for Inactive)
REMARK    1  A    between atoms: N_2  and  C_3 
REMARK    2  A    between atoms: C_5  and  C_6 
REMARK    3  A    between atoms: C_6  and  C_7 
REMARK    4  A    between atoms: C_14  and  O_15 
ROOT
HETATM    1  C   UNL     1       4.056  28.360  49.838  1.00  0.00     0.113 A 
HETATM    2  N   UNL     1       4.679  27.881  50.933  1.00  0.00    -0.223 NA
HETATM    3  C   UNL     1       4.811  26.536  51.072  1.00  0.00     0.106 A 
HETATM    4  N   UNL     1       4.335  25.651  50.179  1.00  0.00    -0.347 N 
HETATM    5  H   UNL     1       4.421  24.649  50.362  1.00  0.00     0.167 HD
HETATM    6  C   UNL     1       3.733  26.122  49.091  1.00  0.00     0.020 A 
HETATM    7  C   UNL     1       3.583  27.483  48.889  1.00  0.00     0.005 A 
HETATM    8  C   UNL     1       2.859  27.744  47.606  1.00  0.00     0.044 C 
HETATM    9  C   UNL     1       2.998  26.382  46.899  1.00  0.00     0.011 C 
HETATM   10  C   UNL     1       3.113  25.313  47.997  1.00  0.00     0.058 C 
ENDROOT
BRANCH   3  11
HETATM   11  C   UNL     1       5.478  26.008  52.308  1.00  0.00     0.085 C 
BRANCH  11  12
HETATM   12  C   UNL     1       7.017  26.162  52.293  1.00  0.00     0.021 C 
HETATM   13  C   UNL     1       7.611  26.552  53.648  1.00  0.00     0.181 C 
HETATM   14  O   UNL     1       7.119  25.668  54.667  1.00  0.00    -0.350 OA
HETATM   15  C   UNL     1       7.443  24.353  54.398  1.00  0.00     0.077 A 
HETATM   16  C   UNL     1       7.689  23.891  53.094  1.00  0.00    -0.024 A 
HETATM   17  C   UNL     1       7.460  23.477  55.486  1.00  0.00     0.074 A 
HETATM   18  C   UNL     1       7.664  24.825  51.910  1.00  0.00     0.048 C 
HETATM   19  C   UNL     1       7.987  22.539  52.902  1.00  0.00     0.012 A 
HETATM   20  C   UNL     1       8.014  21.668  53.991  1.00  0.00     0.037 A 
HETATM   21  C   UNL     1       7.756  22.129  55.284  1.00  0.00     0.070 A 
BRANCH  21  22
HETATM   22  O   UNL     1       7.815  21.164  56.249  1.00  0.00    -0.356 OA
HETATM   23  C   UNL     1       8.474  19.949  55.919  1.00  0.00     0.210 C 
ENDBRANCH  21  22
ENDBRANCH  11  12
ENDBRANCH   3  11
BRANCH   1  24
HETATM   24  N   UNL     1       3.964  29.730  49.621  1.00  0.00    -0.281 NA
HETATM   25  C   UNL     1       5.215  30.473  49.644  1.00  0.00     0.114 C 
HETATM   26  H   UNL     1       3.255  30.165  50.208  1.00  0.00     0.128 HD
ENDBRANCH   1  24
TORSDOF 4
ENDMDL
MODEL 3
REMARK VINA RESULT:      -8.7      4.143      7.105
REMARK  4 active torsions:
REMARK  status: ('A' for Active; 'I' for Inactive)
REMARK    1  A    between atoms: N_2  and  C_3 
REMARK    2  A    between atoms: C_5  and  C_6 
REMARK    3  A    between atoms: C_6  and  C_7 
REMARK    4  A    between atoms: C_14  and  O_15 
ROOT
HETATM    1  C   UNL     1       8.487  23.548  55.456  1.00  0.00     0.113 A 
HETATM    2  N   UNL     1       7.986  24.548  54.706  1.00  0.00    -0.223 NA
HETATM    3  C   UNL     1       7.661  24.291  53.411  1.00  0.00     0.106 A 
HETATM    4  N   UNL     1       7.830  23.091  52.831  1.00  0.00    -0.347 N 
HETATM    5  H   UNL     1       7.615  22.971  51.840  1.00  0.00     0.167 HD
HETATM    6  C   UNL     1       8.313  22.100  53.574  1.00  0.00     0.020 A 
HETATM    7  C   UNL     1       8.647  22.298  54.902  1.00  0.00     0.005 A 
HETATM    8  C   UNL     1       9.180  21.036  55.501  1.00  0.00     0.044 C 
HETATM    9  C   UNL     1       8.705  19.990  54.474  1.00  0.00     0.011 C 
HETATM   10  C   UNL     1       8.602  20.706  53.118  1.00  0.00     0.058 C 
ENDROOT
BRANCH   3  11
HETATM   11  C   UNL     1       7.131  25.417  52.573  1.00  0.00     0.085 C 
BRANCH  11  12
HETATM   12  C   UNL     1       5.639  25.733  52.833  1.00  0.00     0.021 C 
HETATM   13  C   UNL     1       5.345  27.225  53.001  1.00  0.00     0.181 C 
HETATM   14  O   UNL     1       5.919  27.961  51.910  1.00  0.00    -0.350 OA
HETATM   15  C   UNL     1       5.417  27.539  50.695  1.00  0.00     0.077 A 
HETATM   16  C   UNL     1       4.892  26.251  50.503  1.00  0.00    -0.024 A 
HETATM   17  C   UNL     1       5.507  28.444  49.633  1.00  0.00     0.074 A 
HETATM   18  C   UNL     1       4.798  25.262  51.639  1.00  0.00     0.048 C 
HETATM   19  C   UNL     1       4.425  25.892  49.236  1.00  0.00     0.012 A 
HETATM   20  C   UNL     1       4.505  26.800  48.180  1.00  0.00     0.037 A 
HETATM   21  C   UNL     1       5.041  28.076  48.371  1.00  0.00     0.070 A 
BRANCH  21  22
HETATM   22  O   UNL     1       5.058  28.855  47.248  1.00  0.00    -0.356 OA
HETATM   23  C   UNL     1       4.465  30.143  47.337  1.00  0.00     0.210 C 
ENDBRANCH  21  22
ENDBRANCH  11  12
ENDBRANCH   3  11
BRANCH   1  24
HETATM   24  N   UNL     1       8.764  23.747  56.804  1.00  0.00    -0.281 NA
HETATM   25  C   UNL     1       8.519  25.085  57.323  1.00  0.00     0.114 C 
HETATM   26  H   UNL     1       9.688  23.406  57.061  1.00  0.00     0.128 HD
ENDBRANCH   1  24
TORSDOF 4
ENDMDL
MODEL 4
REMARK VINA RESULT:      -8.6      3.420      7.784
REMARK  4 active torsions:
REMARK  status: ('A' for Active; 'I' for Inactive)
REMARK    1  A    between atoms: N_2  and  C_3 
REMARK    2  A    between atoms: C_5  and  C_6 
REMARK    3  A    between atoms: C_6  and  C_7 
REMARK    4  A    between atoms: C_14  and  O_15 
ROOT
HETATM    1  C   UNL     1       6.818  29.598  57.071  1.00  0.00     0.113 A 
HETATM    2  N   UNL     1       6.277  28.913  56.044  1.00  0.00    -0.223 NA
HETATM    3  C   UNL     1       7.094  28.478  55.049  1.00  0.00     0.106 A 
HETATM    4  N   UNL     1       8.417  28.711  55.024  1.00  0.00    -0.347 N 
HETATM    5  H   UNL     1       8.972  28.402  54.224  1.00  0.00     0.167 HD
HETATM    6  C   UNL     1       8.955  29.375  56.043  1.00  0.00     0.020 A 
HETATM    7  C   UNL     1       8.175  29.829  57.092  1.00  0.00     0.005 A 
HETATM    8  C   UNL     1       9.016  30.557  58.092  1.00  0.00     0.044 C 
HETATM    9  C   UNL     1      10.429  30.087  57.696  1.00  0.00     0.011 C 
HETATM   10  C   UNL     1      10.391  29.760  56.195  1.00  0.00     0.058 C 
ENDROOT
BRANCH   3  11
HETATM   11  C   UNL     1       6.481  27.743  53.893  1.00  0.00     0.085 C 
BRANCH  11  12
HETATM   12  C   UNL     1       5.328  26.796  54.305  1.00  0.00     0.021 C 
HETATM   13  C   UNL     1       4.835  25.896  53.171  1.00  0.00     0.181 C 
HETATM   14  O   UNL     1       5.949  25.231  52.557  1.00  0.00    -0.350 OA
HETATM   15  C   UNL     1       6.646  24.462  53.469  1.00  0.00     0.077 A 
HETATM   16  C   UNL     1       6.632  24.733  54.847  1.00  0.00    -0.024 A 
HETATM   17  C   UNL     1       7.421  23.423  52.948  1.00  0.00     0.074 A 
HETATM   18  C   UNL     1       5.806  25.858  55.420  1.00  0.00     0.048 C 
HETATM   19  C   UNL     1       7.383  23.922  55.702  1.00  0.00     0.012 A 
HETATM   20  C   UNL     1       8.148  22.878  55.182  1.00  0.00     0.037 A 
HETATM   21  C   UNL     1       8.170  22.620  53.809  1.00  0.00     0.070 A 
BRANCH  21  22
HETATM   22  O   UNL     1       8.964  21.570  53.445  1.00  0.00    -0.356 OA
HETATM   23  C   UNL     1       8.331  20.450  52.841  1.00  0.00     0.210 C 
ENDBRANCH  21  22
ENDBRANCH  11  12
ENDBRANCH   3  11
BRANCH   1  24
HETATM   24  N   UNL     1       6.031  29.997  58.145  1.00  0.00    -0.281 NA
HETATM   25  C   UNL     1       4.876  30.823  57.827  1.00  0.00     0.114 C 
HETATM   26  H   UNL     1       6.585  30.397  58.899  1.00  0.00     0.128 HD
ENDBRANCH   1  24
TORSDOF 4
ENDMDL
MODEL 5
REMARK VINA RESULT:      -8.5      3.916      5.213
REMARK  4 active torsions:
REMARK  status: ('A' for Active; 'I' for Inactive)
REMARK    1  A    between atoms: N_2  and  C_3 
REMARK    2  A    between atoms: C_5  and  C_6 
REMARK    3  A    between atoms: C_6  and  C_7 
REMARK    4  A    between atoms: C_14  and  O_15 
ROOT
HETATM    1  C   UNL     1       8.428  23.546  55.524  1.00  0.00     0.113 A 
HETATM    2  N   UNL     1       8.008  24.547  54.725  1.00  0.00    -0.223 NA
HETATM    3  C   UNL     1       7.788  24.281  53.410  1.00  0.00     0.106 A 
HETATM    4  N   UNL     1       7.986  23.073  52.858  1.00  0.00    -0.347 N 
HETATM    5  H   UNL     1       7.852  22.946  51.853  1.00  0.00     0.167 HD
HETATM    6  C   UNL     1       8.388  22.081  53.647  1.00  0.00     0.020 A 
HETATM    7  C   UNL     1       8.613  22.288  54.997  1.00  0.00     0.005 A 
HETATM    8  C   UNL     1       9.073  21.024  55.650  1.00  0.00     0.044 C 
HETATM    9  C   UNL     1       8.669  19.976  54.597  1.00  0.00     0.011 C 
HETATM   10  C   UNL     1       8.692  20.679  53.230  1.00  0.00     0.058 C 
ENDROOT
BRANCH   3  11
HETATM   11  C   UNL     1       7.350  25.407  52.520  1.00  0.00     0.085 C 
BRANCH  11  12
HETATM   12  C   UNL     1       5.951  25.190  51.894  1.00  0.00     0.021 C 
HETATM   13  C   UNL     1       4.842  24.971  52.924  1.00  0.00     0.181 C 
HETATM   14  O   UNL     1       4.887  26.009  53.916  1.00  0.00    -0.350 OA
HETATM   15  C   UNL     1       4.732  27.258  53.349  1.00  0.00     0.077 A 
HETATM   16  C   UNL     1       5.057  27.522  52.009  1.00  0.00    -0.024 A 
HETATM   17  C   UNL     1       4.285  28.277  54.194  1.00  0.00     0.074 A 
HETATM   18  C   UNL     1       5.550  26.432  51.089  1.00  0.00     0.048 C 
HETATM   19  C   UNL     1       4.895  28.820  51.516  1.00  0.00     0.012 A 
HETATM   20  C   UNL     1       4.438  29.834  52.358  1.00  0.00     0.037 A 
HETATM   21  C   UNL     1       4.128  29.570  53.695  1.00  0.00     0.070 A 
BRANCH  21  22
HETATM   22  O   UNL     1       3.696  30.659  54.399  1.00  0.00    -0.356 OA
HETATM   23  C   UNL     1       3.544  30.510  55.804  1.00  0.00     0.210 C 
ENDBRANCH  21  22
ENDBRANCH  11  12
ENDBRANCH   3  11
BRANCH   1  24
HETATM   24  N   UNL     1       8.595  23.756  56.888  1.00  0.00    -0.281 NA
HETATM   25  C   UNL     1       8.400  25.118  57.361  1.00  0.00     0.114 C 
HETATM   26  H   UNL     1       9.464  23.356  57.235  1.00  0.00     0.128 HD
ENDBRANCH   1  24
TORSDOF 4
ENDMDL
MODEL 6
REMARK VINA RESULT:      -8.3      3.374      8.238
REMARK  4 active torsions:
REMARK  status: ('A' for Active; 'I' for Inactive)
REMARK    1  A    between atoms: N_2  and  C_3 
REMARK    2  A    between atoms: C_5  and  C_6 
REMARK    3  A    between atoms: C_6  and  C_7 
REMARK    4  A    between atoms: C_14  and  O_15 
ROOT
HETATM    1  C   UNL     1       7.481  30.381  58.686  1.00  0.00     0.113 A 
HETATM    2  N   UNL     1       8.032  29.197  58.353  1.00  0.00    -0.223 NA
HETATM    3  C   UNL     1       7.561  28.544  57.258  1.00  0.00     0.106 A 
HETATM    4  N   UNL     1       6.557  29.010  56.496  1.00  0.00    -0.347 N 
HETATM    5  H   UNL     1       6.212  28.450  55.713  1.00  0.00     0.167 HD
HETATM    6  C   UNL     1       6.020  30.183  56.815  1.00  0.00     0.020 A 
HETATM    7  C   UNL     1       6.470  30.901  57.910  1.00  0.00     0.005 A 
HETATM    8  C   UNL     1       5.692  32.170  58.058  1.00  0.00     0.044 C 
HETATM    9  C   UNL     1       5.040  32.289  56.667  1.00  0.00     0.011 C 
HETATM   10  C   UNL     1       4.884  30.861  56.120  1.00  0.00     0.058 C 
ENDROOT
BRANCH   3  11
HETATM   11  C   UNL     1       8.158  27.213  56.910  1.00  0.00     0.085 C 
BRANCH  11  12
HETATM   12  C   UNL     1       7.610  26.047  57.767  1.00  0.00     0.021 C 
HETATM   13  C   UNL     1       6.223  25.566  57.338  1.00  0.00     0.181 C 
HETATM   14  O   UNL     1       6.211  25.311  55.925  1.00  0.00    -0.350 OA
HETATM   15  C   UNL     1       7.144  24.357  55.574  1.00  0.00     0.077 A 
HETATM   16  C   UNL     1       8.290  24.105  56.346  1.00  0.00    -0.024 A 
HETATM   17  C   UNL     1       6.926  23.682  54.370  1.00  0.00     0.074 A 
HETATM   18  C   UNL     1       8.542  24.834  57.642  1.00  0.00     0.048 C 
HETATM   19  C   UNL     1       9.200  23.139  55.910  1.00  0.00     0.012 A 
HETATM   20  C   UNL     1       8.976  22.457  54.713  1.00  0.00     0.037 A 
HETATM   21  C   UNL     1       7.841  22.720  53.941  1.00  0.00     0.070 A 
BRANCH  21  22
HETATM   22  O   UNL     1       7.755  21.980  52.796  1.00  0.00    -0.356 OA
HETATM   23  C   UNL     1       8.209  20.635  52.851  1.00  0.00     0.210 C 
ENDBRANCH  21  22
ENDBRANCH  11  12
ENDBRANCH   3  11
BRANCH   1  24
HETATM   24  N   UNL     1       7.981  31.116  59.754  1.00  0.00    -0.281 NA
HETATM   25  C   UNL     1       9.007  30.471  60.559  1.00  0.00     0.114 C 
HETATM   26  H   UNL     1       7.240  31.509  60.331  1.00  0.00     0.128 HD
ENDBRANCH   1  24
TORSDOF 4
ENDMDL
MODEL 7
REMARK VINA RESULT:      -8.3      1.900      3.230
REMARK  4 active torsions:
REMARK  status: ('A' for Active; 'I' for Inactive)
REMARK    1  A    between atoms: N_2  and  C_3 
REMARK    2  A    between atoms: C_5  and  C_6 
REMARK    3  A    between atoms: C_6  and  C_7 
REMARK    4  A    between atoms: C_14  and  O_15 
ROOT
HETATM    1  C   UNL     1       7.699  23.560  55.983  1.00  0.00     0.113 A 
HETATM    2  N   UNL     1       6.894  24.580  55.627  1.00  0.00    -0.223 NA
HETATM    3  C   UNL     1       6.401  24.609  54.361  1.00  0.00     0.106 A 
HETATM    4  N   UNL     1       6.688  23.679  53.435  1.00  0.00    -0.347 N 
HETATM    5  H   UNL     1       6.327  23.780  52.485  1.00  0.00     0.167 HD
HETATM    6  C   UNL     1       7.471  22.664  53.788  1.00  0.00     0.020 A 
HETATM    7  C   UNL     1       7.991  22.574  55.068  1.00  0.00     0.005 A 
HETATM    8  C   UNL     1       8.849  21.356  55.199  1.00  0.00     0.044 C 
HETATM    9  C   UNL     1       8.406  20.541  53.969  1.00  0.00     0.011 C 
HETATM   10  C   UNL     1       7.932  21.548  52.908  1.00  0.00     0.058 C 
ENDROOT
BRANCH   3  11
HETATM   11  C   UNL     1       5.530  25.763  53.962  1.00  0.00     0.085 C 
BRANCH  11  12
HETATM   12  C   UNL     1       6.273  26.842  53.138  1.00  0.00     0.021 C 
HETATM   13  C   UNL     1       5.475  28.134  52.953  1.00  0.00     0.181 C 
HETATM   14  O   UNL     1       4.991  28.595  54.224  1.00  0.00    -0.350 OA
HETATM   15  C   UNL     1       6.027  28.832  55.104  1.00  0.00     0.077 A 
HETATM   16  C   UNL     1       7.273  28.191  54.991  1.00  0.00    -0.024 A 
HETATM   17  C   UNL     1       5.763  29.706  56.162  1.00  0.00     0.074 A 
HETATM   18  C   UNL     1       7.567  27.238  53.860  1.00  0.00     0.048 C 
HETATM   19  C   UNL     1       8.263  28.467  55.938  1.00  0.00     0.012 A 
HETATM   20  C   UNL     1       8.001  29.348  56.987  1.00  0.00     0.037 A 
HETATM   21  C   UNL     1       6.757  29.973  57.104  1.00  0.00     0.070 A 
BRANCH  21  22
HETATM   22  O   UNL     1       6.643  30.807  58.181  1.00  0.00    -0.356 OA
HETATM   23  C   UNL     1       7.726  30.838  59.100  1.00  0.00     0.210 C 
ENDBRANCH  21  22
ENDBRANCH  11  12
ENDBRANCH   3  11
BRANCH   1  24
HETATM   24  N   UNL     1       8.167  23.452  57.288  1.00  0.00    -0.281 NA
HETATM   25  C   UNL     1       8.896  24.599  57.810  1.00  0.00     0.114 C 
HETATM   26  H   UNL     1       8.670  22.582  57.445  1.00  0.00     0.128 HD
ENDBRANCH   1  24
TORSDOF 4
ENDMDL
MODEL 8
REMARK VINA RESULT:      -8.3      3.375      7.955
REMARK  4 active torsions:
REMARK  status: ('A' for Active; 'I' for Inactive)
REMARK    1  A    between atoms: N_2  and  C_3 
REMARK    2  A    between atoms: C_5  and  C_6 
REMARK    3  A    between atoms: C_6  and  C_7 
REMARK    4  A    between atoms: C_14  and  O_15 
ROOT
HETATM    1  C   UNL     1       8.425  29.242  57.071  1.00  0.00     0.113 A 
HETATM    2  N   UNL     1       8.140  28.499  55.984  1.00  0.00    -0.223 NA
HETATM    3  C   UNL     1       6.882  28.547  55.473  1.00  0.00     0.106 A 
HETATM    4  N   UNL     1       5.896  29.287  56.008  1.00  0.00    -0.347 N 
HETATM    5  H   UNL     1       4.956  29.244  55.610  1.00  0.00     0.167 HD
HETATM    6  C   UNL     1       6.178  30.031  57.073  1.00  0.00     0.020 A 
HETATM    7  C   UNL     1       7.446  30.035  57.627  1.00  0.00     0.005 A 
HETATM    8  C   UNL     1       7.493  30.936  58.820  1.00  0.00     0.044 C 
HETATM    9  C   UNL     1       6.216  31.772  58.616  1.00  0.00     0.011 C 
HETATM   10  C   UNL     1       5.225  30.898  57.831  1.00  0.00     0.058 C 
ENDROOT
BRANCH   3  11
HETATM   11  C   UNL     1       6.563  27.694  54.281  1.00  0.00     0.085 C 
BRANCH  11  12
HETATM   12  C   UNL     1       5.367  26.738  54.507  1.00  0.00     0.021 C 
HETATM   13  C   UNL     1       4.959  25.956  53.258  1.00  0.00     0.181 C 
HETATM   14  O   UNL     1       6.112  25.326  52.679  1.00  0.00    -0.350 OA
HETATM   15  C   UNL     1       6.719  24.463  53.569  1.00  0.00     0.077 A 
HETATM   16  C   UNL     1       6.593  24.607  54.961  1.00  0.00    -0.024 A 
HETATM   17  C   UNL     1       7.521  23.459  53.020  1.00  0.00     0.074 A 
HETATM   18  C   UNL     1       5.738  25.692  55.566  1.00  0.00     0.048 C 
HETATM   19  C   UNL     1       7.259  23.706  55.797  1.00  0.00     0.012 A 
HETATM   20  C   UNL     1       8.051  22.698  55.247  1.00  0.00     0.037 A 
HETATM   21  C   UNL     1       8.184  22.566  53.862  1.00  0.00     0.070 A 
BRANCH  21  22
HETATM   22  O   UNL     1       8.992  21.537  53.469  1.00  0.00    -0.356 OA
HETATM   23  C   UNL     1       8.368  20.402  52.884  1.00  0.00     0.210 C 
ENDBRANCH  21  22
ENDBRANCH  11  12
ENDBRANCH   3  11
BRANCH   1  24
HETATM   24  N   UNL     1       9.717  29.279  57.582  1.00  0.00    -0.281 NA
HETATM   25  C   UNL     1      10.670  30.119  56.870  1.00  0.00     0.114 C 
HETATM   26  H   UNL     1      10.090  28.347  57.753  1.00  0.00     0.128 HD
ENDBRANCH   1  24
TORSDOF 4
ENDMDL
MODEL 9
REMARK VINA RESULT:      -8.3      3.605      8.337
REMARK  4 active torsions:
REMARK  status: ('A' for Active; 'I' for Inactive)
REMARK    1  A    between atoms: N_2  and  C_3 
REMARK    2  A    between atoms: C_5  and  C_6 
REMARK    3  A    between atoms: C_6  and  C_7 
REMARK    4  A    between atoms: C_14  and  O_15 
ROOT
HETATM    1  C   UNL     1       6.688  31.834  58.911  1.00  0.00     0.113 A 
HETATM    2  N   UNL     1       6.645  30.807  58.039  1.00  0.00    -0.223 NA
HETATM    3  C   UNL     1       7.460  29.740  58.250  1.00  0.00     0.106 A 
HETATM    4  N   UNL     1       8.322  29.661  59.277  1.00  0.00    -0.347 N 
HETATM    5  H   UNL     1       8.945  28.854  59.357  1.00  0.00     0.167 HD
HETATM    6  C   UNL     1       8.356  30.667  60.146  1.00  0.00     0.020 A 
HETATM    7  C   UNL     1       7.539  31.774  59.991  1.00  0.00     0.005 A 
HETATM    8  C   UNL     1       7.785  32.762  61.085  1.00  0.00     0.044 C 
HETATM    9  C   UNL     1       8.529  31.892  62.116  1.00  0.00     0.011 C 
HETATM   10  C   UNL     1       9.257  30.788  61.332  1.00  0.00     0.058 C 
ENDROOT
BRANCH   3  11
HETATM   11  C   UNL     1       7.429  28.614  57.259  1.00  0.00     0.085 C 
BRANCH  11  12
HETATM   12  C   UNL     1       6.015  28.313  56.708  1.00  0.00     0.021 C 
HETATM   13  C   UNL     1       5.856  28.623  55.218  1.00  0.00     0.181 C 
HETATM   14  O   UNL     1       6.918  28.005  54.476  1.00  0.00    -0.350 OA
HETATM   15  C   UNL     1       6.929  26.636  54.651  1.00  0.00     0.077 A 
HETATM   16  C   UNL     1       6.385  26.018  55.789  1.00  0.00    -0.024 A 
HETATM   17  C   UNL     1       7.564  25.883  53.659  1.00  0.00     0.074 A 
HETATM   18  C   UNL     1       5.706  26.820  56.871  1.00  0.00     0.048 C 
HETATM   19  C   UNL     1       6.457  24.627  55.902  1.00  0.00     0.012 A 
HETATM   20  C   UNL     1       7.081  23.876  54.906  1.00  0.00     0.037 A 
HETATM   21  C   UNL     1       7.632  24.495  53.781  1.00  0.00     0.070 A 
BRANCH  21  22
HETATM   22  O   UNL     1       8.213  23.636  52.892  1.00  0.00    -0.356 OA
HETATM   23  C   UNL     1       7.971  22.247  53.071  1.00  0.00     0.210 C 
ENDBRANCH  21  22
ENDBRANCH  11  12
ENDBRANCH   3  11
BRANCH   1  24
HETATM   24  N   UNL     1       5.821  32.913  58.773  1.00  0.00    -0.281 NA
HETATM   25  C   UNL     1       4.431  32.674  59.131  1.00  0.00     0.114 C 
HETATM   26  H   UNL     1       5.906  33.360  57.863  1.00  0.00     0.128 HD
ENDBRANCH   1  24
TORSDOF 4
ENDMDL
MODEL 10
REMARK VINA RESULT:      -8.2      4.128      7.886
REMARK  4 active torsions:
REMARK  status: ('A' for Active; 'I' for Inactive)
REMARK    1  A    between atoms: N_2  and  C_3 
REMARK    2  A    between atoms: C_5  and  C_6 
REMARK    3  A    between atoms: C_6  and  C_7 
REMARK    4  A    between atoms: C_14  and  O_15 
ROOT
HETATM    1  C   UNL     1       3.494  29.374  53.006  1.00  0.00     0.113 A 
HETATM    2  N   UNL     1       3.975  28.205  52.540  1.00  0.00    -0.223 NA
HETATM    3  C   UNL     1       4.578  27.354  53.412  1.00  0.00     0.106 A 
HETATM    4  N   UNL     1       4.736  27.625  54.718  1.00  0.00    -0.347 N 
HETATM    5  H   UNL     1       5.242  26.969  55.315  1.00  0.00     0.167 HD
HETATM    6  C   UNL     1       4.251  28.772  55.183  1.00  0.00     0.020 A 
HETATM    7  C   UNL     1       3.614  29.671  54.345  1.00  0.00     0.005 A 
HETATM    8  C   UNL     1       3.181  30.882  55.109  1.00  0.00     0.044 C 
HETATM    9  C   UNL     1       3.268  30.370  56.560  1.00  0.00     0.011 C 
HETATM   10  C   UNL     1       4.346  29.275  56.587  1.00  0.00     0.058 C 
ENDROOT
BRANCH   3  11
HETATM   11  C   UNL     1       5.138  26.068  52.880  1.00  0.00     0.085 C 
BRANCH  11  12
HETATM   12  C   UNL     1       6.614  26.177  52.428  1.00  0.00     0.021 C 
HETATM   13  C   UNL     1       7.561  26.661  53.527  1.00  0.00     0.181 C 
HETATM   14  O   UNL     1       7.368  25.879  54.716  1.00  0.00    -0.350 OA
HETATM   15  C   UNL     1       7.599  24.539  54.484  1.00  0.00     0.077 A 
HETATM   16  C   UNL     1       7.473  23.962  53.209  1.00  0.00    -0.024 A 
HETATM   17  C   UNL     1       7.914  23.756  55.598  1.00  0.00     0.074 A 
HETATM   18  C   UNL     1       7.125  24.795  52.000  1.00  0.00     0.048 C 
HETATM   19  C   UNL     1       7.701  22.592  53.061  1.00  0.00     0.012 A 
HETATM   20  C   UNL     1       8.026  21.814  54.172  1.00  0.00     0.037 A 
HETATM   21  C   UNL     1       8.138  22.388  55.441  1.00  0.00     0.070 A 
BRANCH  21  22
HETATM   22  O   UNL     1       8.458  21.505  56.434  1.00  0.00    -0.356 OA
HETATM   23  C   UNL     1       9.269  20.393  56.082  1.00  0.00     0.210 C 
ENDBRANCH  21  22
ENDBRANCH  11  12
ENDBRANCH   3  11
BRANCH   1  24
HETATM   24  N   UNL     1       2.807  30.240  52.164  1.00  0.00    -0.281 NA
HETATM   25  C   UNL     1       2.669  29.820  50.778  1.00  0.00     0.114 C 
HETATM   26  H   UNL     1       3.146  31.197  52.237  1.00  0.00     0.128 HD
ENDBRANCH   1  24
TORSDOF 4
ENDMDL
