MODEL 1
REMARK VINA RESULT:     -10.7      0.000      0.000
REMARK  8 active torsions:
REMARK  status: ('A' for Active; 'I' for Inactive)
REMARK    1  A    between atoms: C_4  and  C_5 
REMARK    2  A    between atoms: C_5  and  C_6 
REMARK    3  A    between atoms: C_6  and  N_7 
REMARK    4  A    between atoms: C_8  and  S_9 
REMARK    5  A    between atoms: S_9  and  C_10 
REMARK    6  A    between atoms: C_10  and  C_11 
REMARK    7  A    between atoms: C_24  and  C_25 
REMARK    8  A    between atoms: C_26  and  O_27 
ROOT
HETATM    1  N   UNL     1       6.544  26.789  56.560  1.00  0.00    -0.307 N 
HETATM    2  C   UNL     1       6.929  27.851  57.340  1.00  0.00     0.192 C 
HETATM    3  N   UNL     1       8.091  27.601  57.893  1.00  0.00    -0.122 NA
HETATM    4  N   UNL     1       8.530  26.401  57.419  1.00  0.00    -0.128 NA
HETATM    5  C   UNL     1       7.647  25.942  56.546  1.00  0.00     0.167 C 
ENDROOT
BRANCH   2   6
HETATM    6  S   UNL     1       6.047  29.322  57.555  1.00  0.00    -0.083 SA
BRANCH   6   7
HETATM    7  C   UNL     1       7.427  30.481  57.815  1.00  0.00     0.161 C 
BRANCH   7   8
HETATM    8  C   UNL     1       7.610  30.909  59.260  1.00  0.00     0.117 A 
HETATM    9  N   UNL     1       6.911  31.902  59.710  1.00  0.00    -0.234 NA
HETATM   10  C   UNL     1       7.102  32.307  61.042  1.00  0.00     0.074 A 
HETATM   11  C   UNL     1       8.016  31.681  61.894  1.00  0.00     0.061 A 
HETATM   12  C   UNL     1       6.362  33.382  61.532  1.00  0.00     0.032 A 
HETATM   13  C   UNL     1       8.783  30.552  61.344  1.00  0.00     0.259 A 
HETATM   14  C   UNL     1       8.194  32.108  63.212  1.00  0.00     0.019 A 
HETATM   15  O   UNL     1       9.606  29.934  62.009  1.00  0.00    -0.267 OA
HETATM   16  N   UNL     1       8.520  30.242  60.035  1.00  0.00    -0.310 N 
HETATM   17  H   UNL     1       9.041  29.468  59.646  1.00  0.00     0.170 HD
HETATM   18  C   UNL     1       7.447  33.186  63.688  1.00  0.00     0.001 A 
HETATM   19  C   UNL     1       6.532  33.822  62.849  1.00  0.00     0.002 A 
ENDBRANCH   7   8
ENDBRANCH   6   7
ENDBRANCH   2   6
BRANCH   1  20
HETATM   20  C   UNL     1       5.287  26.566  55.870  1.00  0.00     0.137 C 
BRANCH  20  21
HETATM   21  C   UNL     1       4.949  27.513  54.708  1.00  0.00     0.059 C 
BRANCH  21  22
HETATM   22  C   UNL     1       5.012  26.918  53.314  1.00  0.00    -0.057 A 
HETATM   23  C   UNL     1       5.296  27.784  52.244  1.00  0.00     0.007 A 
HETATM   24  C   UNL     1       5.380  27.308  50.934  1.00  0.00     0.001 A 
HETATM   25  C   UNL     1       5.181  25.956  50.671  1.00  0.00     0.000 A 
HETATM   26  C   UNL     1       4.904  25.082  51.718  1.00  0.00     0.001 A 
HETATM   27  C   UNL     1       4.825  25.557  53.031  1.00  0.00     0.007 A 
ENDBRANCH  21  22
ENDBRANCH  20  21
ENDBRANCH   1  20
BRANCH   5  28
HETATM   28  C   UNL     1       7.855  24.711  55.775  1.00  0.00     0.045 A 
HETATM   29  C   UNL     1       8.135  23.502  56.438  1.00  0.00     0.079 A 
HETATM   30  C   UNL     1       8.336  22.317  55.732  1.00  0.00     0.037 A 
HETATM   31  C   UNL     1       8.290  22.323  54.341  1.00  0.00     0.003 A 
HETATM   32  C   UNL     1       8.058  23.516  53.661  1.00  0.00     0.001 A 
HETATM   33  C   UNL     1       7.856  24.703  54.372  1.00  0.00     0.018 A 
BRANCH  29  34
HETATM   34  O   UNL     1       8.241  23.416  57.803  1.00  0.00    -0.360 OA
HETATM   35  H   UNL     1       8.381  24.320  58.153  1.00  0.00     0.217 HD
ENDBRANCH  29  34
ENDBRANCH   5  28
TORSDOF 8
ENDMDL
MODEL 2
REMARK VINA RESULT:     -10.7      2.264      4.489
REMARK  8 active torsions:
REMARK  status: ('A' for Active; 'I' for Inactive)
REMARK    1  A    between atoms: C_4  and  C_5 
REMARK    2  A    between atoms: C_5  and  C_6 
REMARK    3  A    between atoms: C_6  and  N_7 
REMARK    4  A    between atoms: C_8  and  S_9 
REMARK    5  A    between atoms: S_9  and  C_10 
REMARK    6  A    between atoms: C_10  and  C_11 
REMARK    7  A    between atoms: C_24  and  C_25 
REMARK    8  A    between atoms: C_26  and  O_27 
ROOT
HETATM    1  N   UNL     1       6.937  27.068  55.009  1.00  0.00    -0.307 N 
HETATM    2  C   UNL     1       6.874  27.900  56.098  1.00  0.00     0.192 C 
HETATM    3  N   UNL     1       6.205  28.985  55.792  1.00  0.00    -0.122 NA
HETATM    4  N   UNL     1       5.745  28.847  54.517  1.00  0.00    -0.128 NA
HETATM    5  C   UNL     1       6.105  27.657  54.064  1.00  0.00     0.167 C 
ENDROOT
BRANCH   2   6
HETATM    6  S   UNL     1       7.541  27.578  57.660  1.00  0.00    -0.083 SA
BRANCH   6   7
HETATM    7  C   UNL     1       8.677  28.992  57.815  1.00  0.00     0.161 C 
BRANCH   7   8
HETATM    8  C   UNL     1       8.184  30.081  58.751  1.00  0.00     0.117 A 
HETATM    9  N   UNL     1       8.634  30.110  59.965  1.00  0.00    -0.234 NA
HETATM   10  C   UNL     1       8.155  31.106  60.833  1.00  0.00     0.074 A 
HETATM   11  C   UNL     1       7.217  32.062  60.436  1.00  0.00     0.061 A 
HETATM   12  C   UNL     1       8.625  31.139  62.146  1.00  0.00     0.032 A 
HETATM   13  C   UNL     1       6.739  31.997  59.046  1.00  0.00     0.259 A 
HETATM   14  C   UNL     1       6.750  33.038  61.321  1.00  0.00     0.019 A 
HETATM   15  O   UNL     1       5.919  32.790  58.597  1.00  0.00    -0.267 OA
HETATM   16  N   UNL     1       7.268  30.985  58.287  1.00  0.00    -0.310 N 
HETATM   17  H   UNL     1       6.947  30.930  57.329  1.00  0.00     0.170 HD
HETATM   18  C   UNL     1       7.229  33.058  62.631  1.00  0.00     0.001 A 
HETATM   19  C   UNL     1       8.166  32.109  63.043  1.00  0.00     0.002 A 
ENDBRANCH   7   8
ENDBRANCH   6   7
ENDBRANCH   2   6
BRANCH   1  20
HETATM   20  C   UNL     1       7.678  25.830  54.843  1.00  0.00     0.137 C 
BRANCH  20  21
HETATM   21  C   UNL     1       7.074  24.564  55.470  1.00  0.00     0.059 C 
BRANCH  21  22
HETATM   22  C   UNL     1       7.422  23.248  54.799  1.00  0.00    -0.057 A 
HETATM   23  C   UNL     1       7.579  22.116  55.618  1.00  0.00     0.007 A 
HETATM   24  C   UNL     1       7.890  20.869  55.071  1.00  0.00     0.001 A 
HETATM   25  C   UNL     1       8.050  20.732  53.696  1.00  0.00     0.000 A 
HETATM   26  C   UNL     1       7.893  21.840  52.869  1.00  0.00     0.001 A 
HETATM   27  C   UNL     1       7.576  23.089  53.414  1.00  0.00     0.007 A 
ENDBRANCH  21  22
ENDBRANCH  20  21
ENDBRANCH   1  20
BRANCH   5  28
HETATM   28  C   UNL     1       5.692  27.146  52.751  1.00  0.00     0.045 A 
HETATM   29  C   UNL     1       5.678  28.001  51.634  1.00  0.00     0.079 A 
HETATM   30  C   UNL     1       5.292  27.544  50.375  1.00  0.00     0.037 A 
HETATM   31  C   UNL     1       4.883  26.223  50.213  1.00  0.00     0.003 A 
HETATM   32  C   UNL     1       4.847  25.369  51.313  1.00  0.00     0.001 A 
HETATM   33  C   UNL     1       5.236  25.831  52.575  1.00  0.00     0.018 A 
BRANCH  29  34
HETATM   34  O   UNL     1       6.024  29.327  51.714  1.00  0.00    -0.360 OA
HETATM   35  H   UNL     1       6.521  29.460  52.548  1.00  0.00     0.217 HD
ENDBRANCH  29  34
ENDBRANCH   5  28
TORSDOF 8
ENDMDL
MODEL 3
REMARK VINA RESULT:     -10.4      2.069      3.783
REMARK  8 active torsions:
REMARK  status: ('A' for Active; 'I' for Inactive)
REMARK    1  A    between atoms: C_4  and  C_5 
REMARK    2  A    between atoms: C_5  and  C_6 
REMARK    3  A    between atoms: C_6  and  N_7 
REMARK    4  A    between atoms: C_8  and  S_9 
REMARK    5  A    between atoms: S_9  and  C_10 
REMARK    6  A    between atoms: C_10  and  C_11 
REMARK    7  A    between atoms: C_24  and  C_25 
REMARK    8  A    between atoms: C_26  and  O_27 
ROOT
HETATM    1  N   UNL     1       5.657  28.539  55.777  1.00  0.00    -0.307 N 
HETATM    2  C   UNL     1       4.875  29.648  55.985  1.00  0.00     0.192 C 
HETATM    3  N   UNL     1       4.458  30.123  54.836  1.00  0.00    -0.122 NA
HETATM    4  N   UNL     1       4.893  29.284  53.855  1.00  0.00    -0.128 NA
HETATM    5  C   UNL     1       5.542  28.275  54.416  1.00  0.00     0.167 C 
ENDROOT
BRANCH   2   6
HETATM    6  S   UNL     1       4.460  30.321  57.522  1.00  0.00    -0.083 SA
BRANCH   6   7
HETATM    7  C   UNL     1       5.731  31.618  57.651  1.00  0.00     0.161 C 
BRANCH   7   8
HETATM    8  C   UNL     1       6.411  31.684  59.007  1.00  0.00     0.117 A 
HETATM    9  N   UNL     1       5.978  32.536  59.881  1.00  0.00    -0.234 NA
HETATM   10  C   UNL     1       6.626  32.607  61.126  1.00  0.00     0.074 A 
HETATM   11  C   UNL     1       7.716  31.796  61.453  1.00  0.00     0.061 A 
HETATM   12  C   UNL     1       6.175  33.530  62.069  1.00  0.00     0.032 A 
HETATM   13  C   UNL     1       8.170  30.837  60.434  1.00  0.00     0.259 A 
HETATM   14  C   UNL     1       8.350  31.893  62.694  1.00  0.00     0.019 A 
HETATM   15  O   UNL     1       9.114  30.078  60.622  1.00  0.00    -0.267 OA
HETATM   16  N   UNL     1       7.469  30.852  59.256  1.00  0.00    -0.310 N 
HETATM   17  H   UNL     1       7.771  30.197  58.547  1.00  0.00     0.170 HD
HETATM   18  C   UNL     1       7.887  32.820  63.628  1.00  0.00     0.001 A 
HETATM   19  C   UNL     1       6.800  33.638  63.316  1.00  0.00     0.002 A 
ENDBRANCH   7   8
ENDBRANCH   6   7
ENDBRANCH   2   6
BRANCH   1  20
HETATM   20  C   UNL     1       6.431  27.770  56.734  1.00  0.00     0.137 C 
BRANCH  20  21
HETATM   21  C   UNL     1       5.964  26.335  57.020  1.00  0.00     0.059 C 
BRANCH  21  22
HETATM   22  C   UNL     1       6.947  25.227  56.687  1.00  0.00    -0.057 A 
HETATM   23  C   UNL     1       6.497  24.176  55.871  1.00  0.00     0.007 A 
HETATM   24  C   UNL     1       7.347  23.126  55.515  1.00  0.00     0.001 A 
HETATM   25  C   UNL     1       8.662  23.110  55.969  1.00  0.00     0.000 A 
HETATM   26  C   UNL     1       9.127  24.146  56.773  1.00  0.00     0.001 A 
HETATM   27  C   UNL     1       8.279  25.201  57.127  1.00  0.00     0.007 A 
ENDBRANCH  21  22
ENDBRANCH  20  21
ENDBRANCH   1  20
BRANCH   5  28
HETATM   28  C   UNL     1       6.064  27.139  53.649  1.00  0.00     0.045 A 
HETATM   29  C   UNL     1       5.178  26.214  53.066  1.00  0.00     0.079 A 
HETATM   30  C   UNL     1       5.646  25.126  52.331  1.00  0.00     0.037 A 
HETATM   31  C   UNL     1       7.016  24.923  52.188  1.00  0.00     0.003 A 
HETATM   32  C   UNL     1       7.913  25.801  52.793  1.00  0.00     0.001 A 
HETATM   33  C   UNL     1       7.440  26.893  53.529  1.00  0.00     0.018 A 
BRANCH  29  34
HETATM   34  O   UNL     1       3.816  26.314  53.195  1.00  0.00    -0.360 OA
HETATM   35  H   UNL     1       3.457  25.411  53.319  1.00  0.00     0.217 HD
ENDBRANCH  29  34
ENDBRANCH   5  28
TORSDOF 8
ENDMDL
MODEL 4
REMARK VINA RESULT:     -10.4      1.905      3.717
REMARK  8 active torsions:
REMARK  status: ('A' for Active; 'I' for Inactive)
REMARK    1  A    between atoms: C_4  and  C_5 
REMARK    2  A    between atoms: C_5  and  C_6 
REMARK    3  A    between atoms: C_6  and  N_7 
REMARK    4  A    between atoms: C_8  and  S_9 
REMARK    5  A    between atoms: S_9  and  C_10 
REMARK    6  A    between atoms: C_10  and  C_11 
REMARK    7  A    between atoms: C_24  and  C_25 
REMARK    8  A    between atoms: C_26  and  O_27 
ROOT
HETATM    1  N   UNL     1       6.858  28.108  55.524  1.00  0.00    -0.307 N 
HETATM    2  C   UNL     1       6.601  29.101  56.436  1.00  0.00     0.192 C 
HETATM    3  N   UNL     1       5.625  29.862  56.004  1.00  0.00    -0.122 NA
HETATM    4  N   UNL     1       5.168  29.332  54.836  1.00  0.00    -0.128 NA
HETATM    5  C   UNL     1       5.844  28.223  54.580  1.00  0.00     0.167 C 
ENDROOT
BRANCH   2   6
HETATM    6  S   UNL     1       7.407  29.320  57.950  1.00  0.00    -0.083 SA
BRANCH   6   7
HETATM    7  C   UNL     1       6.864  31.010  58.354  1.00  0.00     0.161 C 
BRANCH   7   8
HETATM    8  C   UNL     1       7.121  31.414  59.794  1.00  0.00     0.117 A 
HETATM    9  N   UNL     1       6.510  32.452  60.270  1.00  0.00    -0.234 NA
HETATM   10  C   UNL     1       6.771  32.834  61.597  1.00  0.00     0.074 A 
HETATM   11  C   UNL     1       7.662  32.137  62.417  1.00  0.00     0.061 A 
HETATM   12  C   UNL     1       6.126  33.957  62.114  1.00  0.00     0.032 A 
HETATM   13  C   UNL     1       8.328  30.960  61.839  1.00  0.00     0.259 A 
HETATM   14  C   UNL     1       7.911  32.542  63.732  1.00  0.00     0.019 A 
HETATM   15  O   UNL     1       9.124  30.279  62.476  1.00  0.00    -0.267 OA
HETATM   16  N   UNL     1       8.004  30.679  60.537  1.00  0.00    -0.310 N 
HETATM   17  H   UNL     1       8.456  29.871  60.129  1.00  0.00     0.170 HD
HETATM   18  C   UNL     1       7.259  33.668  64.235  1.00  0.00     0.001 A 
HETATM   19  C   UNL     1       6.367  34.374  63.428  1.00  0.00     0.002 A 
ENDBRANCH   7   8
ENDBRANCH   6   7
ENDBRANCH   2   6
BRANCH   1  20
HETATM   20  C   UNL     1       7.925  27.124  55.517  1.00  0.00     0.137 C 
BRANCH  20  21
HETATM   21  C   UNL     1       7.596  25.730  56.072  1.00  0.00     0.059 C 
BRANCH  21  22
HETATM   22  C   UNL     1       7.697  24.574  55.094  1.00  0.00    -0.057 A 
HETATM   23  C   UNL     1       8.021  24.870  53.759  1.00  0.00     0.007 A 
HETATM   24  C   UNL     1       8.142  23.858  52.805  1.00  0.00     0.001 A 
HETATM   25  C   UNL     1       7.939  22.531  53.169  1.00  0.00     0.000 A 
HETATM   26  C   UNL     1       7.623  22.217  54.487  1.00  0.00     0.001 A 
HETATM   27  C   UNL     1       7.507  23.229  55.446  1.00  0.00     0.007 A 
ENDBRANCH  21  22
ENDBRANCH  20  21
ENDBRANCH   1  20
BRANCH   5  28
HETATM   28  C   UNL     1       5.541  27.350  53.440  1.00  0.00     0.045 A 
HETATM   29  C   UNL     1       5.768  27.800  52.126  1.00  0.00     0.079 A 
HETATM   30  C   UNL     1       5.491  26.992  51.025  1.00  0.00     0.037 A 
HETATM   31  C   UNL     1       4.951  25.723  51.215  1.00  0.00     0.003 A 
HETATM   32  C   UNL     1       4.676  25.273  52.504  1.00  0.00     0.001 A 
HETATM   33  C   UNL     1       4.957  26.086  53.608  1.00  0.00     0.018 A 
BRANCH  29  34
HETATM   34  O   UNL     1       6.257  29.052  51.849  1.00  0.00    -0.360 OA
HETATM   35  H   UNL     1       7.094  29.166  52.344  1.00  0.00     0.217 HD
ENDBRANCH  29  34
ENDBRANCH   5  28
TORSDOF 8
ENDMDL
MODEL 5
REMARK VINA RESULT:     -10.3      2.685     10.017
REMARK  8 active torsions:
REMARK  status: ('A' for Active; 'I' for Inactive)
REMARK    1  A    between atoms: C_4  and  C_5 
REMARK    2  A    between atoms: C_5  and  C_6 
REMARK    3  A    between atoms: C_6  and  N_7 
REMARK    4  A    between atoms: C_8  and  S_9 
REMARK    5  A    between atoms: S_9  and  C_10 
REMARK    6  A    between atoms: C_10  and  C_11 
REMARK    7  A    between atoms: C_24  and  C_25 
REMARK    8  A    between atoms: C_26  and  O_27 
ROOT
HETATM    1  N   UNL     1       6.771  29.884  57.871  1.00  0.00    -0.307 N 
HETATM    2  C   UNL     1       6.794  28.615  57.349  1.00  0.00     0.192 C 
HETATM    3  N   UNL     1       5.571  28.205  57.117  1.00  0.00    -0.122 NA
HETATM    4  N   UNL     1       4.724  29.232  57.405  1.00  0.00    -0.128 NA
HETATM    5  C   UNL     1       5.441  30.281  57.777  1.00  0.00     0.167 C 
ENDROOT
BRANCH   2   6
HETATM    6  S   UNL     1       8.211  27.684  57.011  1.00  0.00    -0.083 SA
BRANCH   6   7
HETATM    7  C   UNL     1       7.589  26.015  57.387  1.00  0.00     0.161 C 
BRANCH   7   8
HETATM    8  C   UNL     1       7.646  25.056  56.213  1.00  0.00     0.117 A 
HETATM    9  N   UNL     1       7.672  23.783  56.448  1.00  0.00    -0.234 NA
HETATM   10  C   UNL     1       7.748  22.901  55.356  1.00  0.00     0.074 A 
HETATM   11  C   UNL     1       7.797  23.346  54.033  1.00  0.00     0.061 A 
HETATM   12  C   UNL     1       7.788  21.528  55.600  1.00  0.00     0.032 A 
HETATM   13  C   UNL     1       7.758  24.800  53.811  1.00  0.00     0.259 A 
HETATM   14  C   UNL     1       7.882  22.449  52.964  1.00  0.00     0.019 A 
HETATM   15  O   UNL     1       7.792  25.293  52.689  1.00  0.00    -0.267 OA
HETATM   16  N   UNL     1       7.686  25.568  54.944  1.00  0.00    -0.310 N 
HETATM   17  H   UNL     1       7.658  26.569  54.804  1.00  0.00     0.170 HD
HETATM   18  C   UNL     1       7.921  21.079  53.224  1.00  0.00     0.001 A 
HETATM   19  C   UNL     1       7.874  20.619  54.541  1.00  0.00     0.002 A 
ENDBRANCH   7   8
ENDBRANCH   6   7
ENDBRANCH   2   6
BRANCH   1  20
HETATM   20  C   UNL     1       7.865  30.681  58.395  1.00  0.00     0.137 C 
BRANCH  20  21
HETATM   21  C   UNL     1       8.364  30.341  59.808  1.00  0.00     0.059 C 
BRANCH  21  22
HETATM   22  C   UNL     1       7.989  31.317  60.908  1.00  0.00    -0.057 A 
HETATM   23  C   UNL     1       7.033  32.304  60.612  1.00  0.00     0.007 A 
HETATM   24  C   UNL     1       6.630  33.230  61.576  1.00  0.00     0.001 A 
HETATM   25  C   UNL     1       7.178  33.186  62.855  1.00  0.00     0.000 A 
HETATM   26  C   UNL     1       8.121  32.212  63.169  1.00  0.00     0.001 A 
HETATM   27  C   UNL     1       8.521  31.280  62.205  1.00  0.00     0.007 A 
ENDBRANCH  21  22
ENDBRANCH  20  21
ENDBRANCH   1  20
BRANCH   5  28
HETATM   28  C   UNL     1       4.846  31.590  58.071  1.00  0.00     0.045 A 
HETATM   29  C   UNL     1       3.788  31.693  58.993  1.00  0.00     0.079 A 
HETATM   30  C   UNL     1       3.204  32.922  59.293  1.00  0.00     0.037 A 
HETATM   31  C   UNL     1       3.649  34.075  58.652  1.00  0.00     0.003 A 
HETATM   32  C   UNL     1       4.664  33.992  57.702  1.00  0.00     0.001 A 
HETATM   33  C   UNL     1       5.249  32.756  57.404  1.00  0.00     0.018 A 
BRANCH  29  34
HETATM   34  O   UNL     1       3.261  30.602  59.637  1.00  0.00    -0.360 OA
HETATM   35  H   UNL     1       2.781  30.063  58.974  1.00  0.00     0.217 HD
ENDBRANCH  29  34
ENDBRANCH   5  28
TORSDOF 8
ENDMDL
MODEL 6
REMARK VINA RESULT:     -10.2      3.951      9.639
REMARK  8 active torsions:
REMARK  status: ('A' for Active; 'I' for Inactive)
REMARK    1  A    between atoms: C_4  and  C_5 
REMARK    2  A    between atoms: C_5  and  C_6 
REMARK    3  A    between atoms: C_6  and  N_7 
REMARK    4  A    between atoms: C_8  and  S_9 
REMARK    5  A    between atoms: S_9  and  C_10 
REMARK    6  A    between atoms: C_10  and  C_11 
REMARK    7  A    between atoms: C_24  and  C_25 
REMARK    8  A    between atoms: C_26  and  O_27 
ROOT
HETATM    1  N   UNL     1       6.477  26.390  54.497  1.00  0.00    -0.307 N 
HETATM    2  C   UNL     1       5.384  26.308  53.670  1.00  0.00     0.192 C 
HETATM    3  N   UNL     1       4.575  27.313  53.899  1.00  0.00    -0.122 NA
HETATM    4  N   UNL     1       5.164  28.121  54.824  1.00  0.00    -0.128 NA
HETATM    5  C   UNL     1       6.352  27.623  55.128  1.00  0.00     0.167 C 
ENDROOT
BRANCH   2   6
HETATM    6  S   UNL     1       5.106  25.089  52.477  1.00  0.00    -0.083 SA
BRANCH   6   7
HETATM    7  C   UNL     1       5.632  25.985  50.982  1.00  0.00     0.161 C 
BRANCH   7   8
HETATM    8  C   UNL     1       4.505  26.707  50.267  1.00  0.00     0.117 A 
HETATM    9  N   UNL     1       3.984  26.163  49.213  1.00  0.00    -0.234 NA
HETATM   10  C   UNL     1       2.957  26.848  48.542  1.00  0.00     0.074 A 
HETATM   11  C   UNL     1       2.479  28.090  48.969  1.00  0.00     0.061 A 
HETATM   12  C   UNL     1       2.398  26.275  47.400  1.00  0.00     0.032 A 
HETATM   13  C   UNL     1       3.092  28.668  50.175  1.00  0.00     0.259 A 
HETATM   14  C   UNL     1       1.462  28.755  48.280  1.00  0.00     0.019 A 
HETATM   15  O   UNL     1       2.743  29.749  50.634  1.00  0.00    -0.267 OA
HETATM   16  N   UNL     1       4.086  27.918  50.748  1.00  0.00    -0.310 N 
HETATM   17  H   UNL     1       4.516  28.305  51.579  1.00  0.00     0.170 HD
HETATM   18  C   UNL     1       0.913  28.170  47.139  1.00  0.00     0.001 A 
HETATM   19  C   UNL     1       1.381  26.931  46.699  1.00  0.00     0.002 A 
ENDBRANCH   7   8
ENDBRANCH   6   7
ENDBRANCH   2   6
BRANCH   1  20
HETATM   20  C   UNL     1       7.557  25.438  54.687  1.00  0.00     0.137 C 
BRANCH  20  21
HETATM   21  C   UNL     1       7.266  24.217  55.571  1.00  0.00     0.059 C 
BRANCH  21  22
HETATM   22  C   UNL     1       7.578  22.859  54.970  1.00  0.00    -0.057 A 
HETATM   23  C   UNL     1       7.820  22.794  53.587  1.00  0.00     0.007 A 
HETATM   24  C   UNL     1       8.123  21.581  52.965  1.00  0.00     0.001 A 
HETATM   25  C   UNL     1       8.189  20.411  53.715  1.00  0.00     0.000 A 
HETATM   26  C   UNL     1       7.958  20.456  55.087  1.00  0.00     0.001 A 
HETATM   27  C   UNL     1       7.660  21.671  55.713  1.00  0.00     0.007 A 
ENDBRANCH  21  22
ENDBRANCH  20  21
ENDBRANCH   1  20
BRANCH   5  28
HETATM   28  C   UNL     1       7.292  28.298  56.029  1.00  0.00     0.045 A 
HETATM   29  C   UNL     1       8.459  28.893  55.515  1.00  0.00     0.079 A 
HETATM   30  C   UNL     1       9.369  29.542  56.348  1.00  0.00     0.037 A 
HETATM   31  C   UNL     1       9.145  29.584  57.721  1.00  0.00     0.003 A 
HETATM   32  C   UNL     1       8.020  28.963  58.258  1.00  0.00     0.001 A 
HETATM   33  C   UNL     1       7.107  28.314  57.420  1.00  0.00     0.018 A 
BRANCH  29  34
HETATM   34  O   UNL     1       8.778  28.861  54.181  1.00  0.00    -0.360 OA
HETATM   35  H   UNL     1       9.116  29.745  53.930  1.00  0.00     0.217 HD
ENDBRANCH  29  34
ENDBRANCH   5  28
TORSDOF 8
ENDMDL
MODEL 7
REMARK VINA RESULT:     -10.0      2.433      9.934
REMARK  8 active torsions:
REMARK  status: ('A' for Active; 'I' for Inactive)
REMARK    1  A    between atoms: C_4  and  C_5 
REMARK    2  A    between atoms: C_5  and  C_6 
REMARK    3  A    between atoms: C_6  and  N_7 
REMARK    4  A    between atoms: C_8  and  S_9 
REMARK    5  A    between atoms: S_9  and  C_10 
REMARK    6  A    between atoms: C_10  and  C_11 
REMARK    7  A    between atoms: C_24  and  C_25 
REMARK    8  A    between atoms: C_26  and  O_27 
ROOT
HETATM    1  N   UNL     1       6.692  30.324  58.074  1.00  0.00    -0.307 N 
HETATM    2  C   UNL     1       6.730  29.076  57.505  1.00  0.00     0.192 C 
HETATM    3  N   UNL     1       5.514  28.680  57.216  1.00  0.00    -0.122 NA
HETATM    4  N   UNL     1       4.661  29.699  57.515  1.00  0.00    -0.128 NA
HETATM    5  C   UNL     1       5.368  30.730  57.951  1.00  0.00     0.167 C 
ENDROOT
BRANCH   2   6
HETATM    6  S   UNL     1       8.155  28.153  57.179  1.00  0.00    -0.083 SA
BRANCH   6   7
HETATM    7  C   UNL     1       7.660  26.549  57.885  1.00  0.00     0.161 C 
BRANCH   7   8
HETATM    8  C   UNL     1       7.804  25.382  56.926  1.00  0.00     0.117 A 
HETATM    9  N   UNL     1       7.670  25.598  55.656  1.00  0.00    -0.234 NA
HETATM   10  C   UNL     1       7.782  24.508  54.775  1.00  0.00     0.074 A 
HETATM   11  C   UNL     1       8.030  23.206  55.219  1.00  0.00     0.061 A 
HETATM   12  C   UNL     1       7.629  24.729  53.407  1.00  0.00     0.032 A 
HETATM   13  C   UNL     1       8.183  23.008  56.668  1.00  0.00     0.259 A 
HETATM   14  C   UNL     1       8.128  22.138  54.323  1.00  0.00     0.019 A 
HETATM   15  O   UNL     1       8.406  21.907  57.159  1.00  0.00    -0.267 OA
HETATM   16  N   UNL     1       8.053  24.137  57.435  1.00  0.00    -0.310 N 
HETATM   17  H   UNL     1       8.156  24.013  58.434  1.00  0.00     0.170 HD
HETATM   18  C   UNL     1       7.972  22.374  52.958  1.00  0.00     0.001 A 
HETATM   19  C   UNL     1       7.722  23.668  52.500  1.00  0.00     0.002 A 
ENDBRANCH   7   8
ENDBRANCH   6   7
ENDBRANCH   2   6
BRANCH   1  20
HETATM   20  C   UNL     1       7.771  31.095  58.666  1.00  0.00     0.137 C 
BRANCH  20  21
HETATM   21  C   UNL     1       8.180  30.738  60.103  1.00  0.00     0.059 C 
BRANCH  21  22
HETATM   22  C   UNL     1       7.757  31.714  61.186  1.00  0.00    -0.057 A 
HETATM   23  C   UNL     1       8.325  31.564  62.462  1.00  0.00     0.007 A 
HETATM   24  C   UNL     1       7.992  32.429  63.506  1.00  0.00     0.001 A 
HETATM   25  C   UNL     1       7.082  33.460  63.292  1.00  0.00     0.000 A 
HETATM   26  C   UNL     1       6.513  33.628  62.033  1.00  0.00     0.001 A 
HETATM   27  C   UNL     1       6.851  32.765  60.985  1.00  0.00     0.007 A 
ENDBRANCH  21  22
ENDBRANCH  20  21
ENDBRANCH   1  20
BRANCH   5  28
HETATM   28  C   UNL     1       4.767  32.028  58.275  1.00  0.00     0.045 A 
HETATM   29  C   UNL     1       3.806  32.126  59.298  1.00  0.00     0.079 A 
HETATM   30  C   UNL     1       3.219  33.346  59.629  1.00  0.00     0.037 A 
HETATM   31  C   UNL     1       3.561  34.494  58.920  1.00  0.00     0.003 A 
HETATM   32  C   UNL     1       4.477  34.414  57.873  1.00  0.00     0.001 A 
HETATM   33  C   UNL     1       5.065  33.188  57.545  1.00  0.00     0.018 A 
BRANCH  29  34
HETATM   34  O   UNL     1       3.380  31.037  60.017  1.00  0.00    -0.360 OA
HETATM   35  H   UNL     1       3.727  31.123  60.930  1.00  0.00     0.217 HD
ENDBRANCH  29  34
ENDBRANCH   5  28
TORSDOF 8
ENDMDL
MODEL 8
REMARK VINA RESULT:     -10.0      1.555      2.089
REMARK  8 active torsions:
REMARK  status: ('A' for Active; 'I' for Inactive)
REMARK    1  A    between atoms: C_4  and  C_5 
REMARK    2  A    between atoms: C_5  and  C_6 
REMARK    3  A    between atoms: C_6  and  N_7 
REMARK    4  A    between atoms: C_8  and  S_9 
REMARK    5  A    between atoms: S_9  and  C_10 
REMARK    6  A    between atoms: C_10  and  C_11 
REMARK    7  A    between atoms: C_24  and  C_25 
REMARK    8  A    between atoms: C_26  and  O_27 
ROOT
HETATM    1  N   UNL     1       7.249  25.888  55.581  1.00  0.00    -0.307 N 
HETATM    2  C   UNL     1       7.667  26.756  56.560  1.00  0.00     0.192 C 
HETATM    3  N   UNL     1       8.395  26.116  57.442  1.00  0.00    -0.122 NA
HETATM    4  N   UNL     1       8.537  24.831  57.014  1.00  0.00    -0.128 NA
HETATM    5  C   UNL     1       7.925  24.703  55.847  1.00  0.00     0.167 C 
ENDROOT
BRANCH   2   6
HETATM    6  S   UNL     1       7.324  28.449  56.627  1.00  0.00    -0.083 SA
BRANCH   6   7
HETATM    7  C   UNL     1       8.597  28.980  57.815  1.00  0.00     0.161 C 
BRANCH   7   8
HETATM    8  C   UNL     1       8.139  30.075  58.762  1.00  0.00     0.117 A 
HETATM    9  N   UNL     1       8.599  30.085  59.973  1.00  0.00    -0.234 NA
HETATM   10  C   UNL     1       8.153  31.088  60.851  1.00  0.00     0.074 A 
HETATM   11  C   UNL     1       7.236  32.069  60.466  1.00  0.00     0.061 A 
HETATM   12  C   UNL     1       8.635  31.101  62.159  1.00  0.00     0.032 A 
HETATM   13  C   UNL     1       6.745  32.025  59.080  1.00  0.00     0.259 A 
HETATM   14  C   UNL     1       6.801  33.051  61.361  1.00  0.00     0.019 A 
HETATM   15  O   UNL     1       5.942  32.841  58.643  1.00  0.00    -0.267 OA
HETATM   16  N   UNL     1       7.243  31.005  58.311  1.00  0.00    -0.310 N 
HETATM   17  H   UNL     1       6.912  30.964  57.355  1.00  0.00     0.170 HD
HETATM   18  C   UNL     1       7.291  33.051  62.667  1.00  0.00     0.001 A 
HETATM   19  C   UNL     1       8.207  32.077  63.066  1.00  0.00     0.002 A 
ENDBRANCH   7   8
ENDBRANCH   6   7
ENDBRANCH   2   6
BRANCH   1  20
HETATM   20  C   UNL     1       6.327  26.119  54.484  1.00  0.00     0.137 C 
BRANCH  20  21
HETATM   21  C   UNL     1       6.816  27.011  53.333  1.00  0.00     0.059 C 
BRANCH  21  22
HETATM   22  C   UNL     1       5.962  27.023  52.079  1.00  0.00    -0.057 A 
HETATM   23  C   UNL     1       5.487  28.264  51.621  1.00  0.00     0.007 A 
HETATM   24  C   UNL     1       4.703  28.354  50.469  1.00  0.00     0.001 A 
HETATM   25  C   UNL     1       4.381  27.205  49.754  1.00  0.00     0.000 A 
HETATM   26  C   UNL     1       4.847  25.968  50.189  1.00  0.00     0.001 A 
HETATM   27  C   UNL     1       5.637  25.876  51.340  1.00  0.00     0.007 A 
ENDBRANCH  21  22
ENDBRANCH  20  21
ENDBRANCH   1  20
BRANCH   5  28
HETATM   28  C   UNL     1       7.963  23.465  55.059  1.00  0.00     0.045 A 
HETATM   29  C   UNL     1       8.085  22.221  55.704  1.00  0.00     0.079 A 
HETATM   30  C   UNL     1       8.122  21.030  54.982  1.00  0.00     0.037 A 
HETATM   31  C   UNL     1       8.066  21.060  53.591  1.00  0.00     0.003 A 
HETATM   32  C   UNL     1       7.988  22.283  52.928  1.00  0.00     0.001 A 
HETATM   33  C   UNL     1       7.951  23.477  53.656  1.00  0.00     0.018 A 
BRANCH  29  34
HETATM   34  O   UNL     1       8.190  22.103  57.067  1.00  0.00    -0.360 OA
HETATM   35  H   UNL     1       7.285  22.118  57.443  1.00  0.00     0.217 HD
ENDBRANCH  29  34
ENDBRANCH   5  28
TORSDOF 8
ENDMDL
MODEL 9
REMARK VINA RESULT:     -10.0      2.935      5.852
REMARK  8 active torsions:
REMARK  status: ('A' for Active; 'I' for Inactive)
REMARK    1  A    between atoms: C_4  and  C_5 
REMARK    2  A    between atoms: C_5  and  C_6 
REMARK    3  A    between atoms: C_6  and  N_7 
REMARK    4  A    between atoms: C_8  and  S_9 
REMARK    5  A    between atoms: S_9  and  C_10 
REMARK    6  A    between atoms: C_10  and  C_11 
REMARK    7  A    between atoms: C_24  and  C_25 
REMARK    8  A    between atoms: C_26  and  O_27 
ROOT
HETATM    1  N   UNL     1       5.680  27.187  53.270  1.00  0.00    -0.307 N 
HETATM    2  C   UNL     1       5.173  27.574  54.485  1.00  0.00     0.192 C 
HETATM    3  N   UNL     1       4.384  28.609  54.331  1.00  0.00    -0.122 NA
HETATM    4  N   UNL     1       4.292  28.870  52.998  1.00  0.00    -0.128 NA
HETATM    5  C   UNL     1       4.998  27.964  52.339  1.00  0.00     0.167 C 
ENDROOT
BRANCH   2   6
HETATM    6  S   UNL     1       5.489  26.810  56.004  1.00  0.00    -0.083 SA
BRANCH   6   7
HETATM    7  C   UNL     1       5.152  28.200  57.131  1.00  0.00     0.161 C 
BRANCH   7   8
HETATM    8  C   UNL     1       6.377  29.030  57.470  1.00  0.00     0.117 A 
HETATM    9  N   UNL     1       7.524  28.678  56.984  1.00  0.00    -0.234 NA
HETATM   10  C   UNL     1       8.657  29.438  57.321  1.00  0.00     0.074 A 
HETATM   11  C   UNL     1       8.590  30.555  58.158  1.00  0.00     0.061 A 
HETATM   12  C   UNL     1       9.899  29.060  56.811  1.00  0.00     0.032 A 
HETATM   13  C   UNL     1       7.266  30.924  58.682  1.00  0.00     0.259 A 
HETATM   14  C   UNL     1       9.733  31.289  58.486  1.00  0.00     0.019 A 
HETATM   15  O   UNL     1       7.099  31.888  59.421  1.00  0.00    -0.267 OA
HETATM   16  N   UNL     1       6.231  30.114  58.292  1.00  0.00    -0.310 N 
HETATM   17  H   UNL     1       5.315  30.358  58.646  1.00  0.00     0.170 HD
HETATM   18  C   UNL     1      10.968  30.899  57.968  1.00  0.00     0.001 A 
HETATM   19  C   UNL     1      11.051  29.785  57.132  1.00  0.00     0.002 A 
ENDBRANCH   7   8
ENDBRANCH   6   7
ENDBRANCH   2   6
BRANCH   1  20
HETATM   20  C   UNL     1       6.685  26.183  52.972  1.00  0.00     0.137 C 
BRANCH  20  21
HETATM   21  C   UNL     1       6.212  24.725  52.877  1.00  0.00     0.059 C 
BRANCH  21  22
HETATM   22  C   UNL     1       7.091  23.685  53.546  1.00  0.00    -0.057 A 
HETATM   23  C   UNL     1       7.052  23.596  54.948  1.00  0.00     0.007 A 
HETATM   24  C   UNL     1       7.826  22.658  55.632  1.00  0.00     0.001 A 
HETATM   25  C   UNL     1       8.655  21.790  54.926  1.00  0.00     0.000 A 
HETATM   26  C   UNL     1       8.703  21.859  53.537  1.00  0.00     0.001 A 
HETATM   27  C   UNL     1       7.923  22.795  52.850  1.00  0.00     0.007 A 
ENDBRANCH  21  22
ENDBRANCH  20  21
ENDBRANCH   1  20
BRANCH   5  28
HETATM   28  C   UNL     1       5.040  27.897  50.874  1.00  0.00     0.045 A 
HETATM   29  C   UNL     1       5.538  28.984  50.132  1.00  0.00     0.079 A 
HETATM   30  C   UNL     1       5.591  28.948  48.739  1.00  0.00     0.037 A 
HETATM   31  C   UNL     1       5.117  27.831  48.056  1.00  0.00     0.003 A 
HETATM   32  C   UNL     1       4.579  26.761  48.767  1.00  0.00     0.001 A 
HETATM   33  C   UNL     1       4.529  26.800  50.165  1.00  0.00     0.018 A 
BRANCH  29  34
HETATM   34  O   UNL     1       5.984  30.139  50.722  1.00  0.00    -0.360 OA
HETATM   35  H   UNL     1       5.476  30.271  51.550  1.00  0.00     0.217 HD
ENDBRANCH  29  34
ENDBRANCH   5  28
TORSDOF 8
ENDMDL
MODEL 10
REMARK VINA RESULT:      -9.8      2.462      4.186
REMARK  8 active torsions:
REMARK  status: ('A' for Active; 'I' for Inactive)
REMARK    1  A    between atoms: C_4  and  C_5 
REMARK    2  A    between atoms: C_5  and  C_6 
REMARK    3  A    between atoms: C_6  and  N_7 
REMARK    4  A    between atoms: C_8  and  S_9 
REMARK    5  A    between atoms: S_9  and  C_10 
REMARK    6  A    between atoms: C_10  and  C_11 
REMARK    7  A    between atoms: C_24  and  C_25 
REMARK    8  A    between atoms: C_26  and  O_27 
ROOT
HETATM    1  N   UNL     1       5.364  28.733  55.565  1.00  0.00    -0.307 N 
HETATM    2  C   UNL     1       4.543  29.831  55.637  1.00  0.00     0.192 C 
HETATM    3  N   UNL     1       4.178  30.195  54.431  1.00  0.00    -0.122 NA
HETATM    4  N   UNL     1       4.686  29.290  53.549  1.00  0.00    -0.128 NA
HETATM    5  C   UNL     1       5.330  28.353  54.228  1.00  0.00     0.167 C 
ENDROOT
BRANCH   2   6
HETATM    6  S   UNL     1       4.028  30.618  57.087  1.00  0.00    -0.083 SA
BRANCH   6   7
HETATM    7  C   UNL     1       5.491  31.648  57.423  1.00  0.00     0.161 C 
BRANCH   7   8
HETATM    8  C   UNL     1       5.752  31.887  58.899  1.00  0.00     0.117 A 
HETATM    9  N   UNL     1       6.977  31.913  59.320  1.00  0.00    -0.234 NA
HETATM   10  C   UNL     1       7.211  32.112  60.691  1.00  0.00     0.074 A 
HETATM   11  C   UNL     1       6.174  32.282  61.613  1.00  0.00     0.061 A 
HETATM   12  C   UNL     1       8.525  32.131  61.155  1.00  0.00     0.032 A 
HETATM   13  C   UNL     1       4.799  32.253  61.091  1.00  0.00     0.259 A 
HETATM   14  C   UNL     1       6.432  32.470  62.973  1.00  0.00     0.019 A 
HETATM   15  O   UNL     1       3.820  32.396  61.814  1.00  0.00    -0.267 OA
HETATM   16  N   UNL     1       4.685  32.051  59.739  1.00  0.00    -0.310 N 
HETATM   17  H   UNL     1       3.744  32.029  59.368  1.00  0.00     0.170 HD
HETATM   18  C   UNL     1       7.752  32.486  63.423  1.00  0.00     0.001 A 
HETATM   19  C   UNL     1       8.798  32.316  62.515  1.00  0.00     0.002 A 
ENDBRANCH   7   8
ENDBRANCH   6   7
ENDBRANCH   2   6
BRANCH   1  20
HETATM   20  C   UNL     1       6.104  28.071  56.624  1.00  0.00     0.137 C 
BRANCH  20  21
HETATM   21  C   UNL     1       5.656  26.654  57.011  1.00  0.00     0.059 C 
BRANCH  21  22
HETATM   22  C   UNL     1       6.670  25.545  56.798  1.00  0.00    -0.057 A 
HETATM   23  C   UNL     1       7.923  25.673  57.421  1.00  0.00     0.007 A 
HETATM   24  C   UNL     1       8.903  24.688  57.279  1.00  0.00     0.001 A 
HETATM   25  C   UNL     1       8.646  23.557  56.511  1.00  0.00     0.000 A 
HETATM   26  C   UNL     1       7.409  23.409  55.891  1.00  0.00     0.001 A 
HETATM   27  C   UNL     1       6.425  24.392  56.037  1.00  0.00     0.007 A 
ENDBRANCH  21  22
ENDBRANCH  20  21
ENDBRANCH   1  20
BRANCH   5  28
HETATM   28  C   UNL     1       5.922  27.172  53.589  1.00  0.00     0.045 A 
HETATM   29  C   UNL     1       5.095  26.148  53.093  1.00  0.00     0.079 A 
HETATM   30  C   UNL     1       5.629  25.015  52.481  1.00  0.00     0.037 A 
HETATM   31  C   UNL     1       7.010  24.870  52.377  1.00  0.00     0.003 A 
HETATM   32  C   UNL     1       7.851  25.851  52.900  1.00  0.00     0.001 A 
HETATM   33  C   UNL     1       7.311  26.986  53.513  1.00  0.00     0.018 A 
BRANCH  29  34
HETATM   34  O   UNL     1       3.727  26.190  53.193  1.00  0.00    -0.360 OA
HETATM   35  H   UNL     1       3.449  25.502  53.833  1.00  0.00     0.217 HD
ENDBRANCH  29  34
ENDBRANCH   5  28
TORSDOF 8
ENDMDL
