MODEL 1
REMARK VINA RESULT:      -9.0      0.000      0.000
REMARK  4 active torsions:
REMARK  status: ('A' for Active; 'I' for Inactive)
REMARK    1  A    between atoms: C_3  and  N_4 
REMARK       I    between atoms: N_4  and  C_5 
REMARK    2  A    between atoms: C_5  and  C_6 
REMARK    3  A    between atoms: C_14  and  C_15 
REMARK       I    between atoms: C_15  and  N_16 
REMARK    4  A    between atoms: N_16  and  C_17 
ROOT
HETATM    1  C   UNL     1      10.631  30.452  57.706  1.00  0.00     0.003 A 
HETATM    2  C   UNL     1      10.005  29.416  57.005  1.00  0.00     0.029 A 
HETATM    3  C   UNL     1       8.649  29.143  57.200  1.00  0.00     0.036 A 
HETATM    4  C   UNL     1       7.923  29.922  58.108  1.00  0.00     0.046 A 
HETATM    5  C   UNL     1       8.553  30.947  58.826  1.00  0.00     0.034 A 
HETATM    6  C   UNL     1       9.909  31.220  58.617  1.00  0.00     0.017 A 
ENDROOT
BRANCH   5   7
HETATM    7  C   UNL     1       7.744  31.742  59.787  1.00  0.00     0.257 C 
HETATM    8  N   UNL     1       7.935  31.412  61.106  1.00  0.00    -0.307 N 
HETATM    9  H   UNL     1       8.491  30.603  61.344  1.00  0.00     0.170 HD
HETATM   10  O   UNL     1       6.964  32.578  59.347  1.00  0.00    -0.267 OA
BRANCH   8  11
HETATM   11  C   UNL     1       7.353  31.993  62.232  1.00  0.00     0.130 A 
HETATM   12  N   UNL     1       6.006  31.884  62.254  1.00  0.00    -0.242 NA
HETATM   13  C   UNL     1       5.356  32.423  63.316  1.00  0.00     0.142 A 
HETATM   14  C   UNL     1       5.991  33.057  64.370  1.00  0.00     0.051 A 
HETATM   15 CL   UNL     1       5.098  33.708  65.680  1.00  0.00    -0.083 Cl
HETATM   16  C   UNL     1       7.375  33.149  64.337  1.00  0.00     0.029 A 
HETATM   17  C   UNL     1       8.069  32.610  63.251  1.00  0.00     0.052 A 
ENDBRANCH   8  11
ENDBRANCH   5   7
BRANCH   3  18
HETATM   18  N   UNL     1       7.957  28.113  56.543  1.00  0.00    -0.322 N 
HETATM   19  C   UNL     1       7.632  26.854  57.011  1.00  0.00     0.276 C 
HETATM   20  O   UNL     1       7.922  26.380  58.104  1.00  0.00    -0.266 OA
HETATM   21  H   UNL     1       7.622  28.284  55.596  1.00  0.00     0.169 HD
BRANCH  19  22
HETATM   22  C   UNL     1       6.857  26.088  56.018  1.00  0.00     0.146 A 
HETATM   23  N   UNL     1       5.564  26.377  55.745  1.00  0.00    -0.170 NA
HETATM   24  N   UNL     1       5.216  25.466  54.817  1.00  0.00    -0.289 N 
HETATM   25  H   UNL     1       4.268  25.485  54.456  1.00  0.00     0.188 HD
HETATM   26  C   UNL     1       6.224  24.614  54.482  1.00  0.00     0.112 A 
HETATM   27  C   UNL     1       7.305  24.989  55.241  1.00  0.00     0.058 A 
ENDBRANCH  19  22
ENDBRANCH   3  18
TORSDOF 4
ENDMDL
MODEL 2
REMARK VINA RESULT:      -8.8      3.796      8.768
REMARK  4 active torsions:
REMARK  status: ('A' for Active; 'I' for Inactive)
REMARK    1  A    between atoms: C_3  and  N_4 
REMARK       I    between atoms: N_4  and  C_5 
REMARK    2  A    between atoms: C_5  and  C_6 
REMARK    3  A    between atoms: C_14  and  C_15 
REMARK       I    between atoms: C_15  and  N_16 
REMARK    4  A    between atoms: N_16  and  C_17 
ROOT
HETATM    1  C   UNL     1      10.370  30.433  57.393  1.00  0.00     0.003 A 
HETATM    2  C   UNL     1       9.835  31.019  58.546  1.00  0.00     0.029 A 
HETATM    3  C   UNL     1       8.704  30.478  59.160  1.00  0.00     0.036 A 
HETATM    4  C   UNL     1       8.111  29.337  58.607  1.00  0.00     0.046 A 
HETATM    5  C   UNL     1       8.632  28.760  57.441  1.00  0.00     0.034 A 
HETATM    6  C   UNL     1       9.772  29.304  56.838  1.00  0.00     0.017 A 
ENDROOT
BRANCH   5   7
HETATM    7  C   UNL     1       7.964  27.555  56.884  1.00  0.00     0.257 C 
HETATM    8  N   UNL     1       8.701  26.399  56.973  1.00  0.00    -0.307 N 
HETATM    9  H   UNL     1       9.663  26.442  57.281  1.00  0.00     0.170 HD
HETATM   10  O   UNL     1       6.859  27.681  56.369  1.00  0.00    -0.267 OA
BRANCH   8  11
HETATM   11  C   UNL     1       8.338  25.114  56.575  1.00  0.00     0.130 A 
HETATM   12  N   UNL     1       8.751  24.153  57.431  1.00  0.00    -0.242 NA
HETATM   13  C   UNL     1       8.440  22.869  57.121  1.00  0.00     0.142 A 
HETATM   14  C   UNL     1       7.721  22.498  55.998  1.00  0.00     0.051 A 
HETATM   15 CL   UNL     1       7.363  20.852  55.679  1.00  0.00    -0.083 Cl
HETATM   16  C   UNL     1       7.294  23.498  55.137  1.00  0.00     0.029 A 
HETATM   17  C   UNL     1       7.607  24.828  55.428  1.00  0.00     0.052 A 
ENDBRANCH   8  11
ENDBRANCH   5   7
BRANCH   3  18
HETATM   18  N   UNL     1       8.105  31.018  60.309  1.00  0.00    -0.322 N 
HETATM   19  C   UNL     1       8.499  30.896  61.628  1.00  0.00     0.276 C 
HETATM   20  O   UNL     1       9.452  30.253  62.052  1.00  0.00    -0.266 OA
HETATM   21  H   UNL     1       7.272  31.594  60.195  1.00  0.00     0.169 HD
BRANCH  19  22
HETATM   22  C   UNL     1       7.618  31.659  62.532  1.00  0.00     0.146 A 
HETATM   23  N   UNL     1       6.272  31.538  62.486  1.00  0.00    -0.170 NA
HETATM   24  N   UNL     1       5.836  32.387  63.435  1.00  0.00    -0.289 N 
HETATM   25  H   UNL     1       4.836  32.471  63.584  1.00  0.00     0.188 HD
HETATM   26  C   UNL     1       6.838  33.039  64.088  1.00  0.00     0.112 A 
HETATM   27  C   UNL     1       8.010  32.590  63.527  1.00  0.00     0.058 A 
ENDBRANCH  19  22
ENDBRANCH   3  18
TORSDOF 4
ENDMDL
MODEL 3
REMARK VINA RESULT:      -8.8      3.830      8.416
REMARK  4 active torsions:
REMARK  status: ('A' for Active; 'I' for Inactive)
REMARK    1  A    between atoms: C_3  and  N_4 
REMARK       I    between atoms: N_4  and  C_5 
REMARK    2  A    between atoms: C_5  and  C_6 
REMARK    3  A    between atoms: C_14  and  C_15 
REMARK       I    between atoms: C_15  and  N_16 
REMARK    4  A    between atoms: N_16  and  C_17 
ROOT
HETATM    1  C   UNL     1       9.157  32.014  62.087  1.00  0.00     0.003 A 
HETATM    2  C   UNL     1       7.892  32.553  62.344  1.00  0.00     0.029 A 
HETATM    3  C   UNL     1       6.830  32.326  61.465  1.00  0.00     0.036 A 
HETATM    4  C   UNL     1       7.048  31.549  60.323  1.00  0.00     0.046 A 
HETATM    5  C   UNL     1       8.319  31.024  60.053  1.00  0.00     0.034 A 
HETATM    6  C   UNL     1       9.375  31.248  60.943  1.00  0.00     0.017 A 
ENDROOT
BRANCH   5   7
HETATM    7  C   UNL     1       8.506  30.212  58.822  1.00  0.00     0.257 C 
HETATM    8  N   UNL     1       7.619  29.173  58.682  1.00  0.00    -0.307 N 
HETATM    9  H   UNL     1       6.994  28.943  59.442  1.00  0.00     0.170 HD
HETATM   10  O   UNL     1       9.430  30.493  58.067  1.00  0.00    -0.267 OA
BRANCH   8  11
HETATM   11  C   UNL     1       7.518  28.263  57.631  1.00  0.00     0.130 A 
HETATM   12  N   UNL     1       8.014  27.042  57.931  1.00  0.00    -0.242 NA
HETATM   13  C   UNL     1       7.956  26.092  56.965  1.00  0.00     0.142 A 
HETATM   14  C   UNL     1       7.411  26.300  55.709  1.00  0.00     0.051 A 
HETATM   15 CL   UNL     1       7.370  25.045  54.542  1.00  0.00    -0.083 Cl
HETATM   16  C   UNL     1       6.895  27.555  55.422  1.00  0.00     0.029 A 
HETATM   17  C   UNL     1       6.949  28.554  56.397  1.00  0.00     0.052 A 
ENDBRANCH   8  11
ENDBRANCH   5   7
BRANCH   3  18
HETATM   18  N   UNL     1       5.538  32.845  61.650  1.00  0.00    -0.322 N 
HETATM   19  C   UNL     1       4.596  32.500  62.600  1.00  0.00     0.276 C 
HETATM   20  O   UNL     1       4.704  31.633  63.460  1.00  0.00    -0.266 OA
HETATM   21  H   UNL     1       5.222  33.587  61.028  1.00  0.00     0.169 HD
BRANCH  19  22
HETATM   22  C   UNL     1       3.376  33.320  62.479  1.00  0.00     0.146 A 
HETATM   23  N   UNL     1       2.515  33.474  63.509  1.00  0.00    -0.170 NA
HETATM   24  N   UNL     1       1.546  34.262  63.009  1.00  0.00    -0.289 N 
HETATM   25  H   UNL     1       0.771  34.516  63.612  1.00  0.00     0.188 HD
HETATM   26  C   UNL     1       1.750  34.623  61.711  1.00  0.00     0.112 A 
HETATM   27  C   UNL     1       2.930  34.030  61.334  1.00  0.00     0.058 A 
ENDBRANCH  19  22
ENDBRANCH   3  18
TORSDOF 4
ENDMDL
MODEL 4
REMARK VINA RESULT:      -8.7      3.578      6.222
REMARK  4 active torsions:
REMARK  status: ('A' for Active; 'I' for Inactive)
REMARK    1  A    between atoms: C_3  and  N_4 
REMARK       I    between atoms: N_4  and  C_5 
REMARK    2  A    between atoms: C_5  and  C_6 
REMARK    3  A    between atoms: C_14  and  C_15 
REMARK       I    between atoms: C_15  and  N_16 
REMARK    4  A    between atoms: N_16  and  C_17 
ROOT
HETATM    1  C   UNL     1       4.736  26.107  53.072  1.00  0.00     0.003 A 
HETATM    2  C   UNL     1       5.335  24.875  53.358  1.00  0.00     0.029 A 
HETATM    3  C   UNL     1       6.316  24.774  54.346  1.00  0.00     0.036 A 
HETATM    4  C   UNL     1       6.693  25.923  55.050  1.00  0.00     0.046 A 
HETATM    5  C   UNL     1       6.109  27.162  54.752  1.00  0.00     0.034 A 
HETATM    6  C   UNL     1       5.120  27.253  53.767  1.00  0.00     0.017 A 
ENDROOT
BRANCH   5   7
HETATM    7  C   UNL     1       6.548  28.357  55.519  1.00  0.00     0.257 C 
HETATM    8  N   UNL     1       7.580  28.128  56.396  1.00  0.00    -0.307 N 
HETATM    9  H   UNL     1       7.893  27.181  56.563  1.00  0.00     0.170 HD
HETATM   10  O   UNL     1       5.953  29.415  55.348  1.00  0.00    -0.267 OA
BRANCH   8  11
HETATM   11  C   UNL     1       8.227  29.044  57.222  1.00  0.00     0.130 A 
HETATM   12  N   UNL     1       7.485  29.419  58.288  1.00  0.00    -0.242 NA
HETATM   13  C   UNL     1       8.038  30.311  59.148  1.00  0.00     0.142 A 
HETATM   14  C   UNL     1       9.310  30.839  59.002  1.00  0.00     0.051 A 
HETATM   15 CL   UNL     1       9.940  31.958  60.137  1.00  0.00    -0.083 Cl
HETATM   16  C   UNL     1      10.061  30.433  57.909  1.00  0.00     0.029 A 
HETATM   17  C   UNL     1       9.513  29.522  57.003  1.00  0.00     0.052 A 
ENDBRANCH   8  11
ENDBRANCH   5   7
BRANCH   3  18
HETATM   18  N   UNL     1       6.970  23.576  54.678  1.00  0.00    -0.322 N 
HETATM   19  C   UNL     1       7.864  22.841  53.923  1.00  0.00     0.276 C 
HETATM   20  O   UNL     1       8.239  23.089  52.783  1.00  0.00    -0.266 OA
HETATM   21  H   UNL     1       6.797  23.170  55.596  1.00  0.00     0.169 HD
BRANCH  19  22
HETATM   22  C   UNL     1       8.358  21.663  54.660  1.00  0.00     0.146 A 
HETATM   23  N   UNL     1       8.528  20.465  54.058  1.00  0.00    -0.170 NA
HETATM   24  N   UNL     1       8.969  19.664  55.045  1.00  0.00    -0.289 N 
HETATM   25  H   UNL     1       9.166  18.693  54.826  1.00  0.00     0.188 HD
HETATM   26  C   UNL     1       9.093  20.294  56.246  1.00  0.00     0.112 A 
HETATM   27  C   UNL     1       8.706  21.594  56.033  1.00  0.00     0.058 A 
ENDBRANCH  19  22
ENDBRANCH   3  18
TORSDOF 4
ENDMDL
MODEL 5
REMARK VINA RESULT:      -8.6      3.548      8.724
REMARK  4 active torsions:
REMARK  status: ('A' for Active; 'I' for Inactive)
REMARK    1  A    between atoms: C_3  and  N_4 
REMARK       I    between atoms: N_4  and  C_5 
REMARK    2  A    between atoms: C_5  and  C_6 
REMARK    3  A    between atoms: C_14  and  C_15 
REMARK       I    between atoms: C_15  and  N_16 
REMARK    4  A    between atoms: N_16  and  C_17 
ROOT
HETATM    1  C   UNL     1      10.608  30.869  57.770  1.00  0.00     0.003 A 
HETATM    2  C   UNL     1      10.036  31.542  58.855  1.00  0.00     0.029 A 
HETATM    3  C   UNL     1       8.839  31.095  59.418  1.00  0.00     0.036 A 
HETATM    4  C   UNL     1       8.217  29.962  58.882  1.00  0.00     0.046 A 
HETATM    5  C   UNL     1       8.777  29.298  57.781  1.00  0.00     0.034 A 
HETATM    6  C   UNL     1       9.982  29.747  57.230  1.00  0.00     0.017 A 
ENDROOT
BRANCH   5   7
HETATM    7  C   UNL     1       8.077  28.104  57.239  1.00  0.00     0.257 C 
HETATM    8  N   UNL     1       7.643  28.236  55.942  1.00  0.00    -0.307 N 
HETATM    9  H   UNL     1       7.705  29.134  55.482  1.00  0.00     0.170 HD
HETATM   10  O   UNL     1       7.908  27.138  57.973  1.00  0.00    -0.267 OA
BRANCH   8  11
HETATM   11  C   UNL     1       6.991  27.290  55.153  1.00  0.00     0.130 A 
HETATM   12  N   UNL     1       5.797  27.716  54.686  1.00  0.00    -0.242 NA
HETATM   13  C   UNL     1       5.091  26.858  53.907  1.00  0.00     0.142 A 
HETATM   14  C   UNL     1       5.531  25.592  53.558  1.00  0.00     0.051 A 
HETATM   15 CL   UNL     1       4.582  24.569  52.562  1.00  0.00    -0.083 Cl
HETATM   16  C   UNL     1       6.765  25.177  54.036  1.00  0.00     0.029 A 
HETATM   17  C   UNL     1       7.508  26.037  54.847  1.00  0.00     0.052 A 
ENDBRANCH   8  11
ENDBRANCH   5   7
BRANCH   3  18
HETATM   18  N   UNL     1       8.200  31.725  60.499  1.00  0.00    -0.322 N 
HETATM   19  C   UNL     1       8.264  31.410  61.842  1.00  0.00     0.276 C 
HETATM   20  O   UNL     1       8.881  30.481  62.350  1.00  0.00    -0.266 OA
HETATM   21  H   UNL     1       7.613  32.534  60.307  1.00  0.00     0.169 HD
BRANCH  19  22
HETATM   22  C   UNL     1       7.477  32.353  62.659  1.00  0.00     0.146 A 
HETATM   23  N   UNL     1       6.302  32.864  62.226  1.00  0.00    -0.170 NA
HETATM   24  N   UNL     1       5.910  33.673  63.227  1.00  0.00    -0.289 N 
HETATM   25  H   UNL     1       5.038  34.180  63.123  1.00  0.00     0.188 HD
HETATM   26  C   UNL     1       6.774  33.699  64.280  1.00  0.00     0.112 A 
HETATM   27  C   UNL     1       7.803  32.852  63.946  1.00  0.00     0.058 A 
ENDBRANCH  19  22
ENDBRANCH   3  18
TORSDOF 4
ENDMDL
MODEL 6
REMARK VINA RESULT:      -8.5      4.573      9.674
REMARK  4 active torsions:
REMARK  status: ('A' for Active; 'I' for Inactive)
REMARK    1  A    between atoms: C_3  and  N_4 
REMARK       I    between atoms: N_4  and  C_5 
REMARK    2  A    between atoms: C_5  and  C_6 
REMARK    3  A    between atoms: C_14  and  C_15 
REMARK       I    between atoms: C_15  and  N_16 
REMARK    4  A    between atoms: N_16  and  C_17 
ROOT
HETATM    1  C   UNL     1       4.300  28.951  56.203  1.00  0.00     0.003 A 
HETATM    2  C   UNL     1       5.027  29.557  57.234  1.00  0.00     0.029 A 
HETATM    3  C   UNL     1       6.358  29.208  57.466  1.00  0.00     0.036 A 
HETATM    4  C   UNL     1       6.960  28.242  56.651  1.00  0.00     0.046 A 
HETATM    5  C   UNL     1       6.228  27.619  55.631  1.00  0.00     0.034 A 
HETATM    6  C   UNL     1       4.897  27.982  55.399  1.00  0.00     0.017 A 
ENDROOT
BRANCH   5   7
HETATM    7  C   UNL     1       6.905  26.592  54.796  1.00  0.00     0.257 C 
HETATM    8  N   UNL     1       6.659  25.295  55.174  1.00  0.00    -0.307 N 
HETATM    9  H   UNL     1       6.157  25.110  56.032  1.00  0.00     0.170 HD
HETATM   10  O   UNL     1       7.639  26.963  53.888  1.00  0.00    -0.267 OA
BRANCH   8  11
HETATM   11  C   UNL     1       7.116  24.122  54.575  1.00  0.00     0.130 A 
HETATM   12  N   UNL     1       7.511  23.186  55.467  1.00  0.00    -0.242 NA
HETATM   13  C   UNL     1       7.973  22.010  54.972  1.00  0.00     0.142 A 
HETATM   14  C   UNL     1       8.046  21.717  53.620  1.00  0.00     0.051 A 
HETATM   15 CL   UNL     1       8.636  20.204  53.073  1.00  0.00    -0.083 Cl
HETATM   16  C   UNL     1       7.624  22.685  52.720  1.00  0.00     0.029 A 
HETATM   17  C   UNL     1       7.153  23.907  53.203  1.00  0.00     0.052 A 
ENDBRANCH   8  11
ENDBRANCH   5   7
BRANCH   3  18
HETATM   18  N   UNL     1       7.146  29.764  58.488  1.00  0.00    -0.322 N 
HETATM   19  C   UNL     1       7.289  31.091  58.843  1.00  0.00     0.276 C 
HETATM   20  O   UNL     1       6.766  32.057  58.300  1.00  0.00    -0.266 OA
HETATM   21  H   UNL     1       7.688  29.133  59.076  1.00  0.00     0.169 HD
BRANCH  19  22
HETATM   22  C   UNL     1       8.180  31.248  60.008  1.00  0.00     0.146 A 
HETATM   23  N   UNL     1       8.726  30.184  60.638  1.00  0.00    -0.170 NA
HETATM   24  N   UNL     1       9.447  30.729  61.634  1.00  0.00    -0.289 N 
HETATM   25  H   UNL     1       9.955  30.110  62.257  1.00  0.00     0.188 HD
HETATM   26  C   UNL     1       9.392  32.090  61.668  1.00  0.00     0.112 A 
HETATM   27  C   UNL     1       8.578  32.462  60.626  1.00  0.00     0.058 A 
ENDBRANCH  19  22
ENDBRANCH   3  18
TORSDOF 4
ENDMDL
MODEL 7
REMARK VINA RESULT:      -8.1      3.686      8.871
REMARK  4 active torsions:
REMARK  status: ('A' for Active; 'I' for Inactive)
REMARK    1  A    between atoms: C_3  and  N_4 
REMARK       I    between atoms: N_4  and  C_5 
REMARK    2  A    between atoms: C_5  and  C_6 
REMARK    3  A    between atoms: C_14  and  C_15 
REMARK       I    between atoms: C_15  and  N_16 
REMARK    4  A    between atoms: N_16  and  C_17 
ROOT
HETATM    1  C   UNL     1       4.920  32.976  58.023  1.00  0.00     0.003 A 
HETATM    2  C   UNL     1       5.007  33.323  59.375  1.00  0.00     0.029 A 
HETATM    3  C   UNL     1       5.844  32.613  60.239  1.00  0.00     0.036 A 
HETATM    4  C   UNL     1       6.598  31.549  59.733  1.00  0.00     0.046 A 
HETATM    5  C   UNL     1       6.498  31.186  58.383  1.00  0.00     0.034 A 
HETATM    6  C   UNL     1       5.664  31.908  57.522  1.00  0.00     0.017 A 
ENDROOT
BRANCH   5   7
HETATM    7  C   UNL     1       7.311  30.042  57.892  1.00  0.00     0.257 C 
HETATM    8  N   UNL     1       6.591  28.905  57.620  1.00  0.00    -0.307 N 
HETATM    9  H   UNL     1       5.613  28.858  57.872  1.00  0.00     0.170 HD
HETATM   10  O   UNL     1       8.525  30.179  57.805  1.00  0.00    -0.267 OA
BRANCH   8  11
HETATM   11  C   UNL     1       7.058  27.691  57.119  1.00  0.00     0.130 A 
HETATM   12  N   UNL     1       7.626  26.907  58.062  1.00  0.00    -0.242 NA
HETATM   13  C   UNL     1       8.109  25.703  57.662  1.00  0.00     0.142 A 
HETATM   14  C   UNL     1       8.038  25.236  56.361  1.00  0.00     0.051 A 
HETATM   15 CL   UNL     1       8.667  23.699  55.936  1.00  0.00    -0.083 Cl
HETATM   16  C   UNL     1       7.440  26.049  55.409  1.00  0.00     0.029 A 
HETATM   17  C   UNL     1       6.942  27.296  55.791  1.00  0.00     0.052 A 
ENDBRANCH   8  11
ENDBRANCH   5   7
BRANCH   3  18
HETATM   18  N   UNL     1       5.973  32.896  61.609  1.00  0.00    -0.322 N 
HETATM   19  C   UNL     1       5.160  32.500  62.653  1.00  0.00     0.276 C 
HETATM   20  O   UNL     1       4.132  31.837  62.572  1.00  0.00    -0.266 OA
HETATM   21  H   UNL     1       6.769  33.454  61.914  1.00  0.00     0.169 HD
BRANCH  19  22
HETATM   22  C   UNL     1       5.674  32.973  63.952  1.00  0.00     0.146 A 
HETATM   23  N   UNL     1       4.865  33.136  65.023  1.00  0.00    -0.170 NA
HETATM   24  N   UNL     1       5.689  33.583  65.988  1.00  0.00    -0.289 N 
HETATM   25  H   UNL     1       5.296  33.784  66.902  1.00  0.00     0.188 HD
HETATM   26  C   UNL     1       6.985  33.708  65.587  1.00  0.00     0.112 A 
HETATM   27  C   UNL     1       7.012  33.320  64.270  1.00  0.00     0.058 A 
ENDBRANCH  19  22
ENDBRANCH   3  18
TORSDOF 4
ENDMDL
MODEL 8
REMARK VINA RESULT:      -8.0      7.558     10.234
REMARK  4 active torsions:
REMARK  status: ('A' for Active; 'I' for Inactive)
REMARK    1  A    between atoms: C_3  and  N_4 
REMARK       I    between atoms: N_4  and  C_5 
REMARK    2  A    between atoms: C_5  and  C_6 
REMARK    3  A    between atoms: C_14  and  C_15 
REMARK       I    between atoms: C_15  and  N_16 
REMARK    4  A    between atoms: N_16  and  C_17 
ROOT
HETATM    1  C   UNL     1       4.750  29.436  54.168  1.00  0.00     0.003 A 
HETATM    2  C   UNL     1       4.022  29.277  52.984  1.00  0.00     0.029 A 
HETATM    3  C   UNL     1       4.141  28.110  52.227  1.00  0.00     0.036 A 
HETATM    4  C   UNL     1       4.999  27.098  52.669  1.00  0.00     0.046 A 
HETATM    5  C   UNL     1       5.745  27.262  53.844  1.00  0.00     0.034 A 
HETATM    6  C   UNL     1       5.613  28.431  54.602  1.00  0.00     0.017 A 
ENDROOT
BRANCH   5   7
HETATM    7  C   UNL     1       6.652  26.164  54.271  1.00  0.00     0.257 C 
HETATM    8  N   UNL     1       6.313  24.923  53.789  1.00  0.00    -0.307 N 
HETATM    9  H   UNL     1       5.438  24.799  53.297  1.00  0.00     0.170 HD
HETATM   10  O   UNL     1       7.580  26.428  55.026  1.00  0.00    -0.267 OA
BRANCH   8  11
HETATM   11  C   UNL     1       6.978  23.714  53.982  1.00  0.00     0.130 A 
HETATM   12  N   UNL     1       6.998  23.315  55.273  1.00  0.00    -0.242 NA
HETATM   13  C   UNL     1       7.626  22.146  55.554  1.00  0.00     0.142 A 
HETATM   14  C   UNL     1       8.227  21.343  54.599  1.00  0.00     0.051 A 
HETATM   15 CL   UNL     1       8.996  19.874  55.033  1.00  0.00    -0.083 Cl
HETATM   16  C   UNL     1       8.185  21.761  53.277  1.00  0.00     0.029 A 
HETATM   17  C   UNL     1       7.552  22.966  52.962  1.00  0.00     0.052 A 
ENDBRANCH   8  11
ENDBRANCH   5   7
BRANCH   3  18
HETATM   18  N   UNL     1       3.452  27.886  51.024  1.00  0.00    -0.322 N 
HETATM   19  C   UNL     1       3.930  27.952  49.729  1.00  0.00     0.276 C 
HETATM   20  O   UNL     1       5.066  28.255  49.381  1.00  0.00    -0.266 OA
HETATM   21  H   UNL     1       2.469  27.624  51.072  1.00  0.00     0.169 HD
BRANCH  19  22
HETATM   22  C   UNL     1       2.889  27.599  48.746  1.00  0.00     0.146 A 
HETATM   23  N   UNL     1       1.596  27.955  48.918  1.00  0.00    -0.170 NA
HETATM   24  N   UNL     1       0.973  27.448  47.839  1.00  0.00    -0.289 N 
HETATM   25  H   UNL     1      -0.028  27.589  47.749  1.00  0.00     0.188 HD
HETATM   26  C   UNL     1       1.805  26.791  46.984  1.00  0.00     0.112 A 
HETATM   27  C   UNL     1       3.058  26.869  47.542  1.00  0.00     0.058 A 
ENDBRANCH  19  22
ENDBRANCH   3  18
TORSDOF 4
ENDMDL
MODEL 9
REMARK VINA RESULT:      -8.0      7.457      9.756
REMARK  4 active torsions:
REMARK  status: ('A' for Active; 'I' for Inactive)
REMARK    1  A    between atoms: C_3  and  N_4 
REMARK       I    between atoms: N_4  and  C_5 
REMARK    2  A    between atoms: C_5  and  C_6 
REMARK    3  A    between atoms: C_14  and  C_15 
REMARK       I    between atoms: C_15  and  N_16 
REMARK    4  A    between atoms: N_16  and  C_17 
ROOT
HETATM    1  C   UNL     1       5.440  26.522  57.092  1.00  0.00     0.003 A 
HETATM    2  C   UNL     1       6.110  25.304  56.940  1.00  0.00     0.029 A 
HETATM    3  C   UNL     1       6.335  24.769  55.670  1.00  0.00     0.036 A 
HETATM    4  C   UNL     1       5.881  25.470  54.547  1.00  0.00     0.046 A 
HETATM    5  C   UNL     1       5.191  26.681  54.697  1.00  0.00     0.034 A 
HETATM    6  C   UNL     1       4.979  27.214  55.973  1.00  0.00     0.017 A 
ENDROOT
BRANCH   5   7
HETATM    7  C   UNL     1       4.719  27.386  53.477  1.00  0.00     0.257 C 
HETATM    8  N   UNL     1       5.478  27.158  52.355  1.00  0.00    -0.307 N 
HETATM    9  H   UNL     1       6.349  26.650  52.434  1.00  0.00     0.170 HD
HETATM   10  O   UNL     1       3.745  28.124  53.564  1.00  0.00    -0.267 OA
BRANCH   8  11
HETATM   11  C   UNL     1       5.274  27.644  51.065  1.00  0.00     0.130 A 
HETATM   12  N   UNL     1       5.600  28.948  50.927  1.00  0.00    -0.242 NA
HETATM   13  C   UNL     1       5.434  29.506  49.702  1.00  0.00     0.142 A 
HETATM   14  C   UNL     1       4.967  28.815  48.596  1.00  0.00     0.051 A 
HETATM   15 CL   UNL     1       4.789  29.590  47.078  1.00  0.00    -0.083 Cl
HETATM   16  C   UNL     1       4.649  27.474  48.753  1.00  0.00     0.029 A 
HETATM   17  C   UNL     1       4.804  26.877  50.006  1.00  0.00     0.052 A 
ENDBRANCH   8  11
ENDBRANCH   5   7
BRANCH   3  18
HETATM   18  N   UNL     1       6.988  23.547  55.441  1.00  0.00    -0.322 N 
HETATM   19  C   UNL     1       8.276  23.178  55.780  1.00  0.00     0.276 C 
HETATM   20  O   UNL     1       9.119  23.878  56.330  1.00  0.00    -0.266 OA
HETATM   21  H   UNL     1       6.471  22.802  54.977  1.00  0.00     0.169 HD
BRANCH  19  22
HETATM   22  C   UNL     1       8.560  21.782  55.399  1.00  0.00     0.146 A 
HETATM   23  N   UNL     1       9.011  20.876  56.295  1.00  0.00    -0.170 NA
HETATM   24  N   UNL     1       9.158  19.750  55.573  1.00  0.00    -0.289 N 
HETATM   25  H   UNL     1       9.497  18.917  56.043  1.00  0.00     0.188 HD
HETATM   26  C   UNL     1       8.818  19.892  54.262  1.00  0.00     0.112 A 
HETATM   27  C   UNL     1       8.425  21.200  54.113  1.00  0.00     0.058 A 
ENDBRANCH  19  22
ENDBRANCH   3  18
TORSDOF 4
ENDMDL
MODEL 10
REMARK VINA RESULT:      -7.9      4.453      9.062
REMARK  4 active torsions:
REMARK  status: ('A' for Active; 'I' for Inactive)
REMARK    1  A    between atoms: C_3  and  N_4 
REMARK       I    between atoms: N_4  and  C_5 
REMARK    2  A    between atoms: C_5  and  C_6 
REMARK    3  A    between atoms: C_14  and  C_15 
REMARK       I    between atoms: C_15  and  N_16 
REMARK    4  A    between atoms: N_16  and  C_17 
ROOT
HETATM    1  C   UNL     1       4.506  31.585  55.634  1.00  0.00     0.003 A 
HETATM    2  C   UNL     1       5.146  31.692  56.873  1.00  0.00     0.029 A 
HETATM    3  C   UNL     1       5.870  30.618  57.394  1.00  0.00     0.036 A 
HETATM    4  C   UNL     1       5.949  29.430  56.658  1.00  0.00     0.046 A 
HETATM    5  C   UNL     1       5.292  29.314  55.425  1.00  0.00     0.034 A 
HETATM    6  C   UNL     1       4.576  30.398  54.906  1.00  0.00     0.017 A 
ENDROOT
BRANCH   5   7
HETATM    7  C   UNL     1       5.395  28.030  54.683  1.00  0.00     0.257 C 
HETATM    8  N   UNL     1       6.584  27.364  54.854  1.00  0.00    -0.307 N 
HETATM    9  H   UNL     1       7.342  27.813  55.350  1.00  0.00     0.170 HD
HETATM   10  O   UNL     1       4.462  27.689  53.966  1.00  0.00    -0.267 OA
BRANCH   8  11
HETATM   11  C   UNL     1       6.966  26.133  54.324  1.00  0.00     0.130 A 
HETATM   12  N   UNL     1       6.632  25.086  55.110  1.00  0.00    -0.242 NA
HETATM   13  C   UNL     1       6.966  23.847  54.671  1.00  0.00     0.142 A 
HETATM   14  C   UNL     1       7.608  23.600  53.469  1.00  0.00     0.051 A 
HETATM   15 CL   UNL     1       7.991  22.003  52.980  1.00  0.00    -0.083 Cl
HETATM   16  C   UNL     1       7.931  24.686  52.669  1.00  0.00     0.029 A 
HETATM   17  C   UNL     1       7.607  25.974  53.101  1.00  0.00     0.052 A 
ENDBRANCH   8  11
ENDBRANCH   5   7
BRANCH   3  18
HETATM   18  N   UNL     1       6.527  30.647  58.635  1.00  0.00    -0.322 N 
HETATM   19  C   UNL     1       7.875  30.801  58.896  1.00  0.00     0.276 C 
HETATM   20  O   UNL     1       8.774  30.913  58.070  1.00  0.00    -0.266 OA
HETATM   21  H   UNL     1       5.966  30.558  59.480  1.00  0.00     0.169 HD
BRANCH  19  22
HETATM   22  C   UNL     1       8.150  30.822  60.344  1.00  0.00     0.146 A 
HETATM   23  N   UNL     1       9.091  30.028  60.904  1.00  0.00    -0.170 NA
HETATM   24  N   UNL     1       9.030  30.325  62.215  1.00  0.00    -0.289 N 
HETATM   25  H   UNL     1       9.656  29.840  62.849  1.00  0.00     0.188 HD
HETATM   26  C   UNL     1       8.100  31.273  62.518  1.00  0.00     0.112 A 
HETATM   27  C   UNL     1       7.509  31.619  61.327  1.00  0.00     0.058 A 
ENDBRANCH  19  22
ENDBRANCH   3  18
TORSDOF 4
ENDMDL
