MODEL 1
REMARK VINA RESULT:      -9.9      0.000      0.000
REMARK  7 active torsions:
REMARK  status: ('A' for Active; 'I' for Inactive)
REMARK    1  A    between atoms: C_2  and  C_3 
REMARK    2  A    between atoms: C_6  and  C_7 
REMARK    3  A    between atoms: N_9  and  C_10 
REMARK    4  A    between atoms: C_10  and  C_11 
REMARK    5  A    between atoms: C_18  and  C_19 
REMARK       I    between atoms: C_19  and  N_20 
REMARK    6  A    between atoms: N_20  and  C_21 
REMARK    7  A    between atoms: C_24  and  O_25 
ROOT
HETATM    1  C   UNL     1       5.924  26.627  52.624  1.00  0.00     0.104 A 
HETATM    2  N   UNL     1       5.820  26.905  51.309  1.00  0.00    -0.171 NA
HETATM    3  N   UNL     1       5.187  28.081  51.254  1.00  0.00    -0.275 N 
HETATM    4  C   UNL     1       4.852  28.570  52.479  1.00  0.00     0.132 A 
HETATM    5  C   UNL     1       5.353  27.681  53.419  1.00  0.00     0.080 A 
ENDROOT
BRANCH   5   6
HETATM    6  C   UNL     1       5.298  27.828  54.874  1.00  0.00     0.255 C 
HETATM    7  N   UNL     1       6.532  27.872  55.487  1.00  0.00    -0.352 N 
HETATM    8  H   UNL     1       7.334  27.676  54.908  1.00  0.00     0.163 HD
HETATM    9  O   UNL     1       4.245  27.897  55.492  1.00  0.00    -0.268 OA
BRANCH   7  10
HETATM   10  C   UNL     1       6.810  27.997  56.917  1.00  0.00     0.084 C 
HETATM   11  C   UNL     1       8.272  27.727  57.295  1.00  0.00     0.028 C 
HETATM   12  C   UNL     1       9.162  28.965  57.392  1.00  0.00     0.034 C 
HETATM   13  C   UNL     1       8.508  30.094  58.178  1.00  0.00     0.118 C 
HETATM   14  C   UNL     1       7.139  30.460  57.614  1.00  0.00     0.034 C 
HETATM   15  C   UNL     1       6.202  29.255  57.549  1.00  0.00     0.028 C 
BRANCH  13  16
HETATM   16  O   UNL     1       8.362  29.677  59.537  1.00  0.00    -0.396 OA
HETATM   17  H   UNL     1       7.977  30.424  60.026  1.00  0.00     0.210 HD
ENDBRANCH  13  16
ENDBRANCH   7  10
ENDBRANCH   5   6
BRANCH   1  18
HETATM   18  C   UNL     1       6.593  25.384  53.017  1.00  0.00    -0.005 A 
HETATM   19  C   UNL     1       7.560  24.825  52.170  1.00  0.00     0.014 A 
HETATM   20  C   UNL     1       8.171  23.603  52.478  1.00  0.00     0.008 A 
HETATM   21  C   UNL     1       7.823  22.906  53.638  1.00  0.00    -0.059 A 
HETATM   22  C   UNL     1       6.858  23.472  54.488  1.00  0.00     0.008 A 
HETATM   23  C   UNL     1       6.242  24.691  54.176  1.00  0.00     0.014 A 
BRANCH  21  24
HETATM   24  C   UNL     1       8.433  21.580  54.032  1.00  0.00     0.034 C 
HETATM   25  C   UNL     1       8.337  20.451  53.014  1.00  0.00     0.010 C 
ENDBRANCH  21  24
ENDBRANCH   1  18
BRANCH   3  26
HETATM   26  C   UNL     1       4.936  28.709  49.960  1.00  0.00     0.189 C 
BRANCH  26  27
HETATM   27  C   UNL     1       3.938  27.929  49.136  1.00  0.00    -0.038 A 
HETATM   28  C   UNL     1       4.347  26.844  48.344  1.00  0.00     0.009 A 
HETATM   29  C   UNL     1       3.419  26.121  47.594  1.00  0.00     0.001 A 
HETATM   30  C   UNL     1       2.069  26.462  47.639  1.00  0.00     0.000 A 
HETATM   31  C   UNL     1       1.646  27.525  48.437  1.00  0.00     0.001 A 
HETATM   32  C   UNL     1       2.574  28.252  49.184  1.00  0.00     0.009 A 
ENDBRANCH  26  27
ENDBRANCH   3  26
TORSDOF 7
ENDMDL
MODEL 2
REMARK VINA RESULT:      -9.9      2.070      7.387
REMARK  7 active torsions:
REMARK  status: ('A' for Active; 'I' for Inactive)
REMARK    1  A    between atoms: C_2  and  C_3 
REMARK    2  A    between atoms: C_6  and  C_7 
REMARK    3  A    between atoms: N_9  and  C_10 
REMARK    4  A    between atoms: C_10  and  C_11 
REMARK    5  A    between atoms: C_18  and  C_19 
REMARK       I    between atoms: C_19  and  N_20 
REMARK    6  A    between atoms: N_20  and  C_21 
REMARK    7  A    between atoms: C_24  and  O_25 
ROOT
HETATM    1  C   UNL     1       6.930  26.524  54.965  1.00  0.00     0.104 A 
HETATM    2  N   UNL     1       7.375  26.768  56.213  1.00  0.00    -0.171 NA
HETATM    3  N   UNL     1       7.008  28.028  56.472  1.00  0.00    -0.275 N 
HETATM    4  C   UNL     1       6.362  28.624  55.432  1.00  0.00     0.132 A 
HETATM    5  C   UNL     1       6.240  27.668  54.433  1.00  0.00     0.080 A 
ENDROOT
BRANCH   5   6
HETATM    6  C   UNL     1       5.550  27.831  53.153  1.00  0.00     0.255 C 
HETATM    7  N   UNL     1       5.968  28.919  52.417  1.00  0.00    -0.352 N 
HETATM    8  H   UNL     1       6.603  29.559  52.871  1.00  0.00     0.163 HD
HETATM    9  O   UNL     1       4.670  27.071  52.774  1.00  0.00    -0.268 OA
BRANCH   7  10
HETATM   10  C   UNL     1       5.468  29.358  51.115  1.00  0.00     0.084 C 
HETATM   11  C   UNL     1       5.594  28.304  50.008  1.00  0.00     0.028 C 
HETATM   12  C   UNL     1       4.352  27.444  49.779  1.00  0.00     0.034 C 
HETATM   13  C   UNL     1       3.073  28.270  49.717  1.00  0.00     0.118 C 
HETATM   14  C   UNL     1       2.900  29.143  50.956  1.00  0.00     0.034 C 
HETATM   15  C   UNL     1       4.103  30.056  51.189  1.00  0.00     0.028 C 
BRANCH  13  16
HETATM   16  O   UNL     1       3.126  29.102  48.557  1.00  0.00    -0.396 OA
HETATM   17  H   UNL     1       3.761  28.695  47.942  1.00  0.00     0.210 HD
ENDBRANCH  13  16
ENDBRANCH   7  10
ENDBRANCH   5   6
BRANCH   1  18
HETATM   18  C   UNL     1       7.174  25.199  54.389  1.00  0.00    -0.005 A 
HETATM   19  C   UNL     1       7.013  24.060  55.191  1.00  0.00     0.014 A 
HETATM   20  C   UNL     1       7.302  22.782  54.698  1.00  0.00     0.008 A 
HETATM   21  C   UNL     1       7.769  22.613  53.392  1.00  0.00    -0.059 A 
HETATM   22  C   UNL     1       7.925  23.755  52.589  1.00  0.00     0.008 A 
HETATM   23  C   UNL     1       7.641  25.034  53.085  1.00  0.00     0.014 A 
BRANCH  21  24
HETATM   24  C   UNL     1       8.110  21.267  52.794  1.00  0.00     0.034 C 
HETATM   25  C   UNL     1       8.724  20.234  53.732  1.00  0.00     0.010 C 
ENDBRANCH  21  24
ENDBRANCH   1  18
BRANCH   3  26
HETATM   26  C   UNL     1       7.303  28.616  57.774  1.00  0.00     0.189 C 
BRANCH  26  27
HETATM   27  C   UNL     1       8.579  29.424  57.755  1.00  0.00    -0.038 A 
HETATM   28  C   UNL     1       8.702  30.597  58.518  1.00  0.00     0.009 A 
HETATM   29  C   UNL     1       9.887  31.333  58.504  1.00  0.00     0.001 A 
HETATM   30  C   UNL     1      10.969  30.898  57.742  1.00  0.00     0.000 A 
HETATM   31  C   UNL     1      10.868  29.724  56.996  1.00  0.00     0.001 A 
HETATM   32  C   UNL     1       9.681  28.989  57.005  1.00  0.00     0.009 A 
ENDBRANCH  26  27
ENDBRANCH   3  26
TORSDOF 7
ENDMDL
MODEL 3
REMARK VINA RESULT:      -9.6      4.227      7.243
REMARK  7 active torsions:
REMARK  status: ('A' for Active; 'I' for Inactive)
REMARK    1  A    between atoms: C_2  and  C_3 
REMARK    2  A    between atoms: C_6  and  C_7 
REMARK    3  A    between atoms: N_9  and  C_10 
REMARK    4  A    between atoms: C_10  and  C_11 
REMARK    5  A    between atoms: C_18  and  C_19 
REMARK       I    between atoms: C_19  and  N_20 
REMARK    6  A    between atoms: N_20  and  C_21 
REMARK    7  A    between atoms: C_24  and  O_25 
ROOT
HETATM    1  C   UNL     1       7.594  26.845  56.897  1.00  0.00     0.104 A 
HETATM    2  N   UNL     1       8.245  25.711  57.224  1.00  0.00    -0.171 NA
HETATM    3  N   UNL     1       7.517  24.726  56.685  1.00  0.00    -0.275 N 
HETATM    4  C   UNL     1       6.403  25.172  56.041  1.00  0.00     0.132 A 
HETATM    5  C   UNL     1       6.427  26.557  56.106  1.00  0.00     0.080 A 
ENDROOT
BRANCH   5   6
HETATM    6  C   UNL     1       5.468  27.474  55.488  1.00  0.00     0.255 C 
HETATM    7  N   UNL     1       4.971  28.436  56.342  1.00  0.00    -0.352 N 
HETATM    8  H   UNL     1       5.210  28.344  57.318  1.00  0.00     0.163 HD
HETATM    9  O   UNL     1       5.130  27.387  54.316  1.00  0.00    -0.268 OA
BRANCH   7  10
HETATM   10  C   UNL     1       3.994  29.479  56.035  1.00  0.00     0.084 C 
HETATM   11  C   UNL     1       3.093  29.860  57.216  1.00  0.00     0.028 C 
HETATM   12  C   UNL     1       3.563  31.061  58.036  1.00  0.00     0.034 C 
HETATM   13  C   UNL     1       3.984  32.236  57.162  1.00  0.00     0.118 C 
HETATM   14  C   UNL     1       5.045  31.834  56.143  1.00  0.00     0.034 C 
HETATM   15  C   UNL     1       4.590  30.667  55.268  1.00  0.00     0.028 C 
BRANCH  13  16
HETATM   16  O   UNL     1       2.832  32.727  56.475  1.00  0.00    -0.396 OA
HETATM   17  H   UNL     1       2.074  32.619  57.076  1.00  0.00     0.210 HD
ENDBRANCH  13  16
ENDBRANCH   7  10
ENDBRANCH   5   6
BRANCH   1  18
HETATM   18  C   UNL     1       8.158  28.120  57.343  1.00  0.00    -0.005 A 
HETATM   19  C   UNL     1       9.425  28.510  56.885  1.00  0.00     0.014 A 
HETATM   20  C   UNL     1      10.028  29.689  57.341  1.00  0.00     0.008 A 
HETATM   21  C   UNL     1       9.382  30.502  58.276  1.00  0.00    -0.059 A 
HETATM   22  C   UNL     1       8.110  30.112  58.729  1.00  0.00     0.008 A 
HETATM   23  C   UNL     1       7.510  28.930  58.277  1.00  0.00     0.014 A 
BRANCH  21  24
HETATM   24  C   UNL     1       9.973  31.783  58.821  1.00  0.00     0.034 C 
HETATM   25  C   UNL     1       9.610  32.152  60.254  1.00  0.00     0.010 C 
ENDBRANCH  21  24
ENDBRANCH   1  18
BRANCH   3  26
HETATM   26  C   UNL     1       7.961  23.342  56.816  1.00  0.00     0.189 C 
BRANCH  26  27
HETATM   27  C   UNL     1       7.993  22.629  55.484  1.00  0.00    -0.038 A 
HETATM   28  C   UNL     1       7.818  21.238  55.405  1.00  0.00     0.009 A 
HETATM   29  C   UNL     1       7.838  20.587  54.172  1.00  0.00     0.001 A 
HETATM   30  C   UNL     1       8.015  21.320  53.000  1.00  0.00     0.000 A 
HETATM   31  C   UNL     1       8.169  22.704  53.061  1.00  0.00     0.001 A 
HETATM   32  C   UNL     1       8.155  23.356  54.296  1.00  0.00     0.009 A 
ENDBRANCH  26  27
ENDBRANCH   3  26
TORSDOF 7
ENDMDL
MODEL 4
REMARK VINA RESULT:      -9.5      2.243      5.108
REMARK  7 active torsions:
REMARK  status: ('A' for Active; 'I' for Inactive)
REMARK    1  A    between atoms: C_2  and  C_3 
REMARK    2  A    between atoms: C_6  and  C_7 
REMARK    3  A    between atoms: N_9  and  C_10 
REMARK    4  A    between atoms: C_10  and  C_11 
REMARK    5  A    between atoms: C_18  and  C_19 
REMARK       I    between atoms: C_19  and  N_20 
REMARK    6  A    between atoms: N_20  and  C_21 
REMARK    7  A    between atoms: C_24  and  O_25 
ROOT
HETATM    1  C   UNL     1       5.935  27.640  52.474  1.00  0.00     0.104 A 
HETATM    2  N   UNL     1       5.838  28.459  51.407  1.00  0.00    -0.171 NA
HETATM    3  N   UNL     1       5.393  27.681  50.414  1.00  0.00    -0.275 N 
HETATM    4  C   UNL     1       5.219  26.382  50.784  1.00  0.00     0.132 A 
HETATM    5  C   UNL     1       5.514  26.307  52.137  1.00  0.00     0.080 A 
ENDROOT
BRANCH   5   6
HETATM    6  C   UNL     1       5.398  25.121  52.988  1.00  0.00     0.255 C 
HETATM    7  N   UNL     1       6.606  24.582  53.378  1.00  0.00    -0.352 N 
HETATM    8  H   UNL     1       7.434  24.966  52.949  1.00  0.00     0.163 HD
HETATM    9  O   UNL     1       4.321  24.645  53.316  1.00  0.00    -0.268 OA
BRANCH   7  10
HETATM   10  C   UNL     1       6.825  23.399  54.208  1.00  0.00     0.084 C 
HETATM   11  C   UNL     1       7.552  22.256  53.489  1.00  0.00     0.028 C 
HETATM   12  C   UNL     1       9.066  22.217  53.686  1.00  0.00     0.034 C 
HETATM   13  C   UNL     1       9.471  22.401  55.144  1.00  0.00     0.118 C 
HETATM   14  C   UNL     1       8.885  23.676  55.740  1.00  0.00     0.034 C 
HETATM   15  C   UNL     1       7.363  23.727  55.607  1.00  0.00     0.028 C 
BRANCH  13  16
HETATM   16  O   UNL     1       9.005  21.274  55.889  1.00  0.00    -0.396 OA
HETATM   17  H   UNL     1       8.489  20.721  55.278  1.00  0.00     0.210 HD
ENDBRANCH  13  16
ENDBRANCH   7  10
ENDBRANCH   5   6
BRANCH   1  18
HETATM   18  C   UNL     1       6.395  28.209  53.742  1.00  0.00    -0.005 A 
HETATM   19  C   UNL     1       7.754  28.131  54.079  1.00  0.00     0.014 A 
HETATM   20  C   UNL     1       8.222  28.602  55.312  1.00  0.00     0.008 A 
HETATM   21  C   UNL     1       7.338  29.153  56.244  1.00  0.00    -0.059 A 
HETATM   22  C   UNL     1       5.978  29.234  55.902  1.00  0.00     0.008 A 
HETATM   23  C   UNL     1       5.510  28.758  54.671  1.00  0.00     0.014 A 
BRANCH  21  24
HETATM   24  C   UNL     1       7.768  29.673  57.597  1.00  0.00     0.034 C 
HETATM   25  C   UNL     1       9.265  29.847  57.822  1.00  0.00     0.010 C 
ENDBRANCH  21  24
ENDBRANCH   1  18
BRANCH   3  26
HETATM   26  C   UNL     1       5.135  28.261  49.100  1.00  0.00     0.189 C 
BRANCH  26  27
HETATM   27  C   UNL     1       3.821  27.791  48.521  1.00  0.00    -0.038 A 
HETATM   28  C   UNL     1       3.781  26.779  47.548  1.00  0.00     0.009 A 
HETATM   29  C   UNL     1       2.564  26.342  47.026  1.00  0.00     0.001 A 
HETATM   30  C   UNL     1       1.370  26.898  47.481  1.00  0.00     0.000 A 
HETATM   31  C   UNL     1       1.393  27.889  48.461  1.00  0.00     0.001 A 
HETATM   32  C   UNL     1       2.611  28.332  48.981  1.00  0.00     0.009 A 
ENDBRANCH  26  27
ENDBRANCH   3  26
TORSDOF 7
ENDMDL
MODEL 5
REMARK VINA RESULT:      -9.5      2.569      6.562
REMARK  7 active torsions:
REMARK  status: ('A' for Active; 'I' for Inactive)
REMARK    1  A    between atoms: C_2  and  C_3 
REMARK    2  A    between atoms: C_6  and  C_7 
REMARK    3  A    between atoms: N_9  and  C_10 
REMARK    4  A    between atoms: C_10  and  C_11 
REMARK    5  A    between atoms: C_18  and  C_19 
REMARK       I    between atoms: C_19  and  N_20 
REMARK    6  A    between atoms: N_20  and  C_21 
REMARK    7  A    between atoms: C_24  and  O_25 
ROOT
HETATM    1  C   UNL     1       6.803  27.690  55.299  1.00  0.00     0.104 A 
HETATM    2  N   UNL     1       5.829  28.267  54.568  1.00  0.00    -0.171 NA
HETATM    3  N   UNL     1       5.346  27.285  53.799  1.00  0.00    -0.275 N 
HETATM    4  C   UNL     1       5.983  26.096  53.982  1.00  0.00     0.132 A 
HETATM    5  C   UNL     1       6.917  26.290  54.990  1.00  0.00     0.080 A 
ENDROOT
BRANCH   5   6
HETATM    6  C   UNL     1       7.788  25.271  55.577  1.00  0.00     0.255 C 
HETATM    7  N   UNL     1       8.027  24.188  54.758  1.00  0.00    -0.352 N 
HETATM    8  H   UNL     1       7.493  24.138  53.904  1.00  0.00     0.163 HD
HETATM    9  O   UNL     1       8.255  25.369  56.703  1.00  0.00    -0.268 OA
BRANCH   7  10
HETATM   10  C   UNL     1       8.836  23.007  55.058  1.00  0.00     0.084 C 
HETATM   11  C   UNL     1       8.264  22.123  56.173  1.00  0.00     0.028 C 
HETATM   12  C   UNL     1       7.401  20.954  55.702  1.00  0.00     0.034 C 
HETATM   13  C   UNL     1       8.039  20.182  54.553  1.00  0.00     0.118 C 
HETATM   14  C   UNL     1       8.390  21.095  53.383  1.00  0.00     0.034 C 
HETATM   15  C   UNL     1       9.297  22.250  53.806  1.00  0.00     0.028 C 
BRANCH  13  16
HETATM   16  O   UNL     1       9.227  19.552  55.034  1.00  0.00    -0.396 OA
HETATM   17  H   UNL     1       8.966  18.685  55.392  1.00  0.00     0.210 HD
ENDBRANCH  13  16
ENDBRANCH   7  10
ENDBRANCH   5   6
BRANCH   1  18
HETATM   18  C   UNL     1       7.530  28.520  56.262  1.00  0.00    -0.005 A 
HETATM   19  C   UNL     1       8.838  28.932  55.968  1.00  0.00     0.014 A 
HETATM   20  C   UNL     1       9.589  29.669  56.892  1.00  0.00     0.008 A 
HETATM   21  C   UNL     1       9.053  30.004  58.139  1.00  0.00    -0.059 A 
HETATM   22  C   UNL     1       7.741  29.594  58.428  1.00  0.00     0.008 A 
HETATM   23  C   UNL     1       6.992  28.852  57.506  1.00  0.00     0.014 A 
BRANCH  21  24
HETATM   24  C   UNL     1       9.807  30.788  59.189  1.00  0.00     0.034 C 
HETATM   25  C   UNL     1       9.055  31.930  59.863  1.00  0.00     0.010 C 
ENDBRANCH  21  24
ENDBRANCH   1  18
BRANCH   3  26
HETATM   26  C   UNL     1       4.235  27.555  52.893  1.00  0.00     0.189 C 
BRANCH  26  27
HETATM   27  C   UNL     1       4.711  27.975  51.522  1.00  0.00    -0.038 A 
HETATM   28  C   UNL     1       4.634  27.095  50.429  1.00  0.00     0.009 A 
HETATM   29  C   UNL     1       5.066  27.492  49.164  1.00  0.00     0.001 A 
HETATM   30  C   UNL     1       5.564  28.779  48.969  1.00  0.00     0.000 A 
HETATM   31  C   UNL     1       5.627  29.670  50.040  1.00  0.00     0.001 A 
HETATM   32  C   UNL     1       5.200  29.271  51.308  1.00  0.00     0.009 A 
ENDBRANCH  26  27
ENDBRANCH   3  26
TORSDOF 7
ENDMDL
MODEL 6
REMARK VINA RESULT:      -9.4      2.296      8.010
REMARK  7 active torsions:
REMARK  status: ('A' for Active; 'I' for Inactive)
REMARK    1  A    between atoms: C_2  and  C_3 
REMARK    2  A    between atoms: C_6  and  C_7 
REMARK    3  A    between atoms: N_9  and  C_10 
REMARK    4  A    between atoms: C_10  and  C_11 
REMARK    5  A    between atoms: C_18  and  C_19 
REMARK       I    between atoms: C_19  and  N_20 
REMARK    6  A    between atoms: N_20  and  C_21 
REMARK    7  A    between atoms: C_24  and  O_25 
ROOT
HETATM    1  C   UNL     1       7.804  27.502  56.733  1.00  0.00     0.104 A 
HETATM    2  N   UNL     1       8.769  28.136  57.429  1.00  0.00    -0.171 NA
HETATM    3  N   UNL     1       8.407  29.423  57.431  1.00  0.00    -0.275 N 
HETATM    4  C   UNL     1       7.256  29.658  56.742  1.00  0.00     0.132 A 
HETATM    5  C   UNL     1       6.790  28.427  56.303  1.00  0.00     0.080 A 
ENDROOT
BRANCH   5   6
HETATM    6  C   UNL     1       5.543  28.176  55.579  1.00  0.00     0.255 C 
HETATM    7  N   UNL     1       5.708  27.918  54.236  1.00  0.00    -0.352 N 
HETATM    8  H   UNL     1       6.635  28.047  53.859  1.00  0.00     0.163 HD
HETATM    9  O   UNL     1       4.447  28.204  56.122  1.00  0.00    -0.268 OA
BRANCH   7  10
HETATM   10  C   UNL     1       4.666  27.646  53.247  1.00  0.00     0.084 C 
HETATM   11  C   UNL     1       4.545  28.716  52.155  1.00  0.00     0.028 C 
HETATM   12  C   UNL     1       5.319  28.430  50.870  1.00  0.00     0.034 C 
HETATM   13  C   UNL     1       5.122  27.002  50.375  1.00  0.00     0.118 C 
HETATM   14  C   UNL     1       5.467  25.976  51.449  1.00  0.00     0.034 C 
HETATM   15  C   UNL     1       4.673  26.200  52.735  1.00  0.00     0.028 C 
BRANCH  13  16
HETATM   16  O   UNL     1       3.756  26.840  49.989  1.00  0.00    -0.396 OA
HETATM   17  H   UNL     1       3.608  25.889  49.851  1.00  0.00     0.210 HD
ENDBRANCH  13  16
ENDBRANCH   7  10
ENDBRANCH   5   6
BRANCH   1  18
HETATM   18  C   UNL     1       7.914  26.052  56.561  1.00  0.00    -0.005 A 
HETATM   19  C   UNL     1       8.465  25.276  57.590  1.00  0.00     0.014 A 
HETATM   20  C   UNL     1       8.649  23.896  57.437  1.00  0.00     0.008 A 
HETATM   21  C   UNL     1       8.294  23.260  56.244  1.00  0.00    -0.059 A 
HETATM   22  C   UNL     1       7.737  24.039  55.216  1.00  0.00     0.008 A 
HETATM   23  C   UNL     1       7.559  25.420  55.368  1.00  0.00     0.014 A 
BRANCH  21  24
HETATM   24  C   UNL     1       8.472  21.778  56.002  1.00  0.00     0.034 C 
HETATM   25  C   UNL     1       7.918  21.225  54.694  1.00  0.00     0.010 C 
ENDBRANCH  21  24
ENDBRANCH   1  18
BRANCH   3  26
HETATM   26  C   UNL     1       9.221  30.404  58.140  1.00  0.00     0.189 C 
BRANCH  26  27
HETATM   27  C   UNL     1       8.546  30.898  59.398  1.00  0.00    -0.038 A 
HETATM   28  C   UNL     1       7.388  31.691  59.333  1.00  0.00     0.009 A 
HETATM   29  C   UNL     1       6.763  32.135  60.499  1.00  0.00     0.001 A 
HETATM   30  C   UNL     1       7.277  31.778  61.744  1.00  0.00     0.000 A 
HETATM   31  C   UNL     1       8.413  30.975  61.824  1.00  0.00     0.001 A 
HETATM   32  C   UNL     1       9.043  30.534  60.658  1.00  0.00     0.009 A 
ENDBRANCH  26  27
ENDBRANCH   3  26
TORSDOF 7
ENDMDL
MODEL 7
REMARK VINA RESULT:      -9.2      2.305      7.867
REMARK  7 active torsions:
REMARK  status: ('A' for Active; 'I' for Inactive)
REMARK    1  A    between atoms: C_2  and  C_3 
REMARK    2  A    between atoms: C_6  and  C_7 
REMARK    3  A    between atoms: N_9  and  C_10 
REMARK    4  A    between atoms: C_10  and  C_11 
REMARK    5  A    between atoms: C_18  and  C_19 
REMARK       I    between atoms: C_19  and  N_20 
REMARK    6  A    between atoms: N_20  and  C_21 
REMARK    7  A    between atoms: C_24  and  O_25 
ROOT
HETATM    1  C   UNL     1       7.909  27.002  56.461  1.00  0.00     0.104 A 
HETATM    2  N   UNL     1       7.897  25.810  57.091  1.00  0.00    -0.171 NA
HETATM    3  N   UNL     1       7.403  24.950  56.195  1.00  0.00    -0.275 N 
HETATM    4  C   UNL     1       7.069  25.537  55.013  1.00  0.00     0.132 A 
HETATM    5  C   UNL     1       7.424  26.875  55.113  1.00  0.00     0.080 A 
ENDROOT
BRANCH   5   6
HETATM    6  C   UNL     1       7.319  27.885  54.059  1.00  0.00     0.255 C 
HETATM    7  N   UNL     1       6.062  27.997  53.504  1.00  0.00    -0.352 N 
HETATM    8  H   UNL     1       5.381  27.305  53.778  1.00  0.00     0.163 HD
HETATM    9  O   UNL     1       8.269  28.564  53.697  1.00  0.00    -0.268 OA
BRANCH   7  10
HETATM   10  C   UNL     1       5.641  28.894  52.429  1.00  0.00     0.084 C 
HETATM   11  C   UNL     1       5.689  28.263  51.032  1.00  0.00     0.028 C 
HETATM   12  C   UNL     1       4.373  27.661  50.541  1.00  0.00     0.034 C 
HETATM   13  C   UNL     1       3.185  28.587  50.772  1.00  0.00     0.118 C 
HETATM   14  C   UNL     1       3.070  29.010  52.233  1.00  0.00     0.034 C 
HETATM   15  C   UNL     1       4.352  29.663  52.746  1.00  0.00     0.028 C 
BRANCH  13  16
HETATM   16  O   UNL     1       3.350  29.749  49.957  1.00  0.00    -0.396 OA
HETATM   17  H   UNL     1       4.176  29.633  49.457  1.00  0.00     0.210 HD
ENDBRANCH  13  16
ENDBRANCH   7  10
ENDBRANCH   5   6
BRANCH   1  18
HETATM   18  C   UNL     1       8.414  28.166  57.192  1.00  0.00    -0.005 A 
HETATM   19  C   UNL     1       7.603  28.778  58.159  1.00  0.00     0.014 A 
HETATM   20  C   UNL     1       8.023  29.933  58.829  1.00  0.00     0.008 A 
HETATM   21  C   UNL     1       9.263  30.511  58.543  1.00  0.00    -0.059 A 
HETATM   22  C   UNL     1      10.076  29.893  57.578  1.00  0.00     0.008 A 
HETATM   23  C   UNL     1       9.652  28.741  56.903  1.00  0.00     0.014 A 
BRANCH  21  24
HETATM   24  C   UNL     1       9.779  31.760  59.219  1.00  0.00     0.034 C 
HETATM   25  C   UNL     1       8.953  32.305  60.378  1.00  0.00     0.010 C 
ENDBRANCH  21  24
ENDBRANCH   1  18
BRANCH   3  26
HETATM   26  C   UNL     1       7.285  23.536  56.536  1.00  0.00     0.189 C 
BRANCH  26  27
HETATM   27  C   UNL     1       7.569  22.641  55.353  1.00  0.00    -0.038 A 
HETATM   28  C   UNL     1       7.660  23.168  54.054  1.00  0.00     0.009 A 
HETATM   29  C   UNL     1       7.933  22.338  52.967  1.00  0.00     0.001 A 
HETATM   30  C   UNL     1       8.135  20.974  53.165  1.00  0.00     0.000 A 
HETATM   31  C   UNL     1       8.068  20.440  54.451  1.00  0.00     0.001 A 
HETATM   32  C   UNL     1       7.789  21.269  55.540  1.00  0.00     0.009 A 
ENDBRANCH  26  27
ENDBRANCH   3  26
TORSDOF 7
ENDMDL
MODEL 8
REMARK VINA RESULT:      -9.2      2.401      8.461
REMARK  7 active torsions:
REMARK  status: ('A' for Active; 'I' for Inactive)
REMARK    1  A    between atoms: C_2  and  C_3 
REMARK    2  A    between atoms: C_6  and  C_7 
REMARK    3  A    between atoms: N_9  and  C_10 
REMARK    4  A    between atoms: C_10  and  C_11 
REMARK    5  A    between atoms: C_18  and  C_19 
REMARK       I    between atoms: C_19  and  N_20 
REMARK    6  A    between atoms: N_20  and  C_21 
REMARK    7  A    between atoms: C_24  and  O_25 
ROOT
HETATM    1  C   UNL     1       6.824  28.445  55.821  1.00  0.00     0.104 A 
HETATM    2  N   UNL     1       7.490  29.553  56.202  1.00  0.00    -0.171 NA
HETATM    3  N   UNL     1       8.209  29.176  57.265  1.00  0.00    -0.275 N 
HETATM    4  C   UNL     1       8.020  27.872  57.608  1.00  0.00     0.132 A 
HETATM    5  C   UNL     1       7.157  27.329  56.666  1.00  0.00     0.080 A 
ENDROOT
BRANCH   5   6
HETATM    6  C   UNL     1       6.723  25.934  56.586  1.00  0.00     0.255 C 
HETATM    7  N   UNL     1       7.208  25.250  55.492  1.00  0.00    -0.352 N 
HETATM    8  H   UNL     1       7.700  25.793  54.798  1.00  0.00     0.163 HD
HETATM    9  O   UNL     1       5.984  25.423  57.416  1.00  0.00    -0.268 OA
BRANCH   7  10
HETATM   10  C   UNL     1       6.946  23.860  55.124  1.00  0.00     0.084 C 
HETATM   11  C   UNL     1       6.802  23.628  53.615  1.00  0.00     0.028 C 
HETATM   12  C   UNL     1       8.076  23.190  52.896  1.00  0.00     0.034 C 
HETATM   13  C   UNL     1       8.810  22.077  53.635  1.00  0.00     0.118 C 
HETATM   14  C   UNL     1       9.114  22.460  55.079  1.00  0.00     0.034 C 
HETATM   15  C   UNL     1       7.854  22.856  55.847  1.00  0.00     0.028 C 
BRANCH  13  16
HETATM   16  O   UNL     1       7.993  20.905  53.618  1.00  0.00    -0.396 OA
HETATM   17  H   UNL     1       7.865  20.659  52.686  1.00  0.00     0.210 HD
ENDBRANCH  13  16
ENDBRANCH   7  10
ENDBRANCH   5   6
BRANCH   1  18
HETATM   18  C   UNL     1       5.943  28.534  54.655  1.00  0.00    -0.005 A 
HETATM   19  C   UNL     1       6.413  28.113  53.403  1.00  0.00     0.014 A 
HETATM   20  C   UNL     1       5.625  28.245  52.253  1.00  0.00     0.008 A 
HETATM   21  C   UNL     1       4.349  28.812  52.326  1.00  0.00    -0.059 A 
HETATM   22  C   UNL     1       3.879  29.227  53.583  1.00  0.00     0.008 A 
HETATM   23  C   UNL     1       4.670  29.100  54.732  1.00  0.00     0.014 A 
BRANCH  21  24
HETATM   24  C   UNL     1       3.445  28.995  51.128  1.00  0.00     0.034 C 
HETATM   25  C   UNL     1       3.841  28.262  49.852  1.00  0.00     0.010 C 
ENDBRANCH  21  24
ENDBRANCH   1  18
BRANCH   3  26
HETATM   26  C   UNL     1       9.093  30.136  57.920  1.00  0.00     0.189 C 
BRANCH  26  27
HETATM   27  C   UNL     1       8.460  30.740  59.152  1.00  0.00    -0.038 A 
HETATM   28  C   UNL     1       9.020  30.539  60.424  1.00  0.00     0.009 A 
HETATM   29  C   UNL     1       8.437  31.107  61.556  1.00  0.00     0.001 A 
HETATM   30  C   UNL     1       7.297  31.898  61.431  1.00  0.00     0.000 A 
HETATM   31  C   UNL     1       6.742  32.123  60.172  1.00  0.00     0.001 A 
HETATM   32  C   UNL     1       7.321  31.550  59.038  1.00  0.00     0.009 A 
ENDBRANCH  26  27
ENDBRANCH   3  26
TORSDOF 7
ENDMDL
MODEL 9
REMARK VINA RESULT:      -9.0      2.209      7.666
REMARK  7 active torsions:
REMARK  status: ('A' for Active; 'I' for Inactive)
REMARK    1  A    between atoms: C_2  and  C_3 
REMARK    2  A    between atoms: C_6  and  C_7 
REMARK    3  A    between atoms: N_9  and  C_10 
REMARK    4  A    between atoms: C_10  and  C_11 
REMARK    5  A    between atoms: C_18  and  C_19 
REMARK       I    between atoms: C_19  and  N_20 
REMARK    6  A    between atoms: N_20  and  C_21 
REMARK    7  A    between atoms: C_24  and  O_25 
ROOT
HETATM    1  C   UNL     1       7.126  25.953  54.186  1.00  0.00     0.104 A 
HETATM    2  N   UNL     1       7.816  24.798  54.100  1.00  0.00    -0.171 NA
HETATM    3  N   UNL     1       7.219  24.110  53.121  1.00  0.00    -0.275 N 
HETATM    4  C   UNL     1       6.151  24.760  52.581  1.00  0.00     0.132 A 
HETATM    5  C   UNL     1       6.072  25.995  53.208  1.00  0.00     0.080 A 
ENDROOT
BRANCH   5   6
HETATM    6  C   UNL     1       5.122  27.066  52.904  1.00  0.00     0.255 C 
HETATM    7  N   UNL     1       5.111  27.457  51.583  1.00  0.00    -0.352 N 
HETATM    8  H   UNL     1       5.829  27.069  50.988  1.00  0.00     0.163 HD
HETATM    9  O   UNL     1       4.406  27.576  53.755  1.00  0.00    -0.268 OA
BRANCH   7  10
HETATM   10  C   UNL     1       4.293  28.503  50.971  1.00  0.00     0.084 C 
HETATM   11  C   UNL     1       4.940  29.893  50.987  1.00  0.00     0.028 C 
HETATM   12  C   UNL     1       5.709  30.272  49.722  1.00  0.00     0.034 C 
HETATM   13  C   UNL     1       4.932  29.955  48.450  1.00  0.00     0.118 C 
HETATM   14  C   UNL     1       4.499  28.494  48.398  1.00  0.00     0.034 C 
HETATM   15  C   UNL     1       3.683  28.091  49.625  1.00  0.00     0.028 C 
BRANCH  13  16
HETATM   16  O   UNL     1       3.775  30.792  48.405  1.00  0.00    -0.396 OA
HETATM   17  H   UNL     1       4.071  31.674  48.121  1.00  0.00     0.210 HD
ENDBRANCH  13  16
ENDBRANCH   7  10
ENDBRANCH   5   6
BRANCH   1  18
HETATM   18  C   UNL     1       7.552  26.941  55.179  1.00  0.00    -0.005 A 
HETATM   19  C   UNL     1       8.033  28.186  54.750  1.00  0.00     0.014 A 
HETATM   20  C   UNL     1       8.513  29.130  55.665  1.00  0.00     0.008 A 
HETATM   21  C   UNL     1       8.531  28.849  57.034  1.00  0.00    -0.059 A 
HETATM   22  C   UNL     1       8.043  27.603  57.462  1.00  0.00     0.008 A 
HETATM   23  C   UNL     1       7.569  26.656  56.545  1.00  0.00     0.014 A 
BRANCH  21  24
HETATM   24  C   UNL     1       9.042  29.814  58.080  1.00  0.00     0.034 C 
HETATM   25  C   UNL     1      10.352  30.530  57.772  1.00  0.00     0.010 C 
ENDBRANCH  21  24
ENDBRANCH   1  18
BRANCH   3  26
HETATM   26  C   UNL     1       7.741  22.805  52.730  1.00  0.00     0.189 C 
BRANCH  26  27
HETATM   27  C   UNL     1       7.982  21.910  53.923  1.00  0.00    -0.038 A 
HETATM   28  C   UNL     1       8.656  20.686  53.784  1.00  0.00     0.009 A 
HETATM   29  C   UNL     1       8.883  19.869  54.892  1.00  0.00     0.001 A 
HETATM   30  C   UNL     1       8.456  20.273  56.155  1.00  0.00     0.000 A 
HETATM   31  C   UNL     1       7.804  21.496  56.311  1.00  0.00     0.001 A 
HETATM   32  C   UNL     1       7.570  22.311  55.202  1.00  0.00     0.009 A 
ENDBRANCH  26  27
ENDBRANCH   3  26
TORSDOF 7
ENDMDL
MODEL 10
REMARK VINA RESULT:      -8.8     10.492     15.353
REMARK  7 active torsions:
REMARK  status: ('A' for Active; 'I' for Inactive)
REMARK    1  A    between atoms: C_2  and  C_3 
REMARK    2  A    between atoms: C_6  and  C_7 
REMARK    3  A    between atoms: N_9  and  C_10 
REMARK    4  A    between atoms: C_10  and  C_11 
REMARK    5  A    between atoms: C_18  and  C_19 
REMARK       I    between atoms: C_19  and  N_20 
REMARK    6  A    between atoms: N_20  and  C_21 
REMARK    7  A    between atoms: C_24  and  O_25 
ROOT
HETATM    1  C   UNL     1       5.681  35.284  63.925  1.00  0.00     0.104 A 
HETATM    2  N   UNL     1       5.838  34.441  62.884  1.00  0.00    -0.171 NA
HETATM    3  N   UNL     1       5.735  33.217  63.411  1.00  0.00    -0.275 N 
HETATM    4  C   UNL     1       5.541  33.225  64.759  1.00  0.00     0.132 A 
HETATM    5  C   UNL     1       5.450  34.555  65.144  1.00  0.00     0.080 A 
ENDROOT
BRANCH   5   6
HETATM    6  C   UNL     1       5.170  35.054  66.491  1.00  0.00     0.255 C 
HETATM    7  N   UNL     1       6.136  34.741  67.424  1.00  0.00    -0.352 N 
HETATM    8  H   UNL     1       6.863  34.106  67.130  1.00  0.00     0.163 HD
HETATM    9  O   UNL     1       4.160  35.686  66.767  1.00  0.00    -0.268 OA
BRANCH   7  10
HETATM   10  C   UNL     1       6.142  35.079  68.846  1.00  0.00     0.084 C 
HETATM   11  C   UNL     1       5.635  33.955  69.758  1.00  0.00     0.028 C 
HETATM   12  C   UNL     1       6.717  33.053  70.349  1.00  0.00     0.034 C 
HETATM   13  C   UNL     1       7.889  33.843  70.917  1.00  0.00     0.118 C 
HETATM   14  C   UNL     1       8.487  34.794  69.886  1.00  0.00     0.034 C 
HETATM   15  C   UNL     1       7.442  35.748  69.309  1.00  0.00     0.028 C 
BRANCH  13  16
HETATM   16  O   UNL     1       7.427  34.594  72.041  1.00  0.00    -0.396 OA
HETATM   17  H   UNL     1       8.001  35.377  72.117  1.00  0.00     0.210 HD
ENDBRANCH  13  16
ENDBRANCH   7  10
ENDBRANCH   5   6
BRANCH   1  18
HETATM   18  C   UNL     1       5.734  36.723  63.665  1.00  0.00    -0.005 A 
HETATM   19  C   UNL     1       6.000  37.179  62.365  1.00  0.00     0.014 A 
HETATM   20  C   UNL     1       6.126  38.546  62.090  1.00  0.00     0.008 A 
HETATM   21  C   UNL     1       5.998  39.492  63.111  1.00  0.00    -0.059 A 
HETATM   22  C   UNL     1       5.726  39.033  64.410  1.00  0.00     0.008 A 
HETATM   23  C   UNL     1       5.606  37.665  64.686  1.00  0.00     0.014 A 
BRANCH  21  24
HETATM   24  C   UNL     1       6.130  40.982  62.891  1.00  0.00     0.034 C 
HETATM   25  C   UNL     1       7.544  41.551  62.873  1.00  0.00     0.010 C 
ENDBRANCH  21  24
ENDBRANCH   1  18
BRANCH   3  26
HETATM   26  C   UNL     1       5.821  32.046  62.545  1.00  0.00     0.189 C 
BRANCH  26  27
HETATM   27  C   UNL     1       7.118  32.008  61.771  1.00  0.00    -0.038 A 
HETATM   28  C   UNL     1       7.131  32.153  60.374  1.00  0.00     0.009 A 
HETATM   29  C   UNL     1       8.333  32.128  59.667  1.00  0.00     0.001 A 
HETATM   30  C   UNL     1       9.539  31.974  60.348  1.00  0.00     0.000 A 
HETATM   31  C   UNL     1       9.543  31.849  61.736  1.00  0.00     0.001 A 
HETATM   32  C   UNL     1       8.340  31.869  62.445  1.00  0.00     0.009 A 
ENDBRANCH  26  27
ENDBRANCH   3  26
TORSDOF 7
ENDMDL
