MODEL 1
REMARK VINA RESULT:     -10.1      0.000      0.000
REMARK  4 active torsions:
REMARK  status: ('A' for Active; 'I' for Inactive)
REMARK    1  A    between atoms: C_9  and  C_10 
REMARK       I    between atoms: C_10  and  N_11 
REMARK    2  A    between atoms: N_11  and  N_12 
REMARK       I    between atoms: N_12  and  C_13 
REMARK    3  A    between atoms: C_13  and  C_14 
REMARK    4  A    between atoms: C_14  and  C_15 
ROOT
HETATM    1  C   UNL     1       5.360  25.325  53.505  1.00  0.00     0.291 C 
HETATM    2  N   UNL     1       4.741  26.497  53.900  1.00  0.00    -0.262 N 
HETATM    3  O   UNL     1       5.042  24.724  52.479  1.00  0.00    -0.264 OA
HETATM    4  H   UNL     1       5.143  27.041  54.667  1.00  0.00     0.190 HD
ENDROOT
BRANCH   2   5
HETATM    5  N   UNL     1       3.837  27.125  53.039  1.00  0.00    -0.267 N 
HETATM    6  C   UNL     1       4.303  28.173  52.264  1.00  0.00     0.236 C 
HETATM    7  O   UNL     1       5.426  28.646  52.401  1.00  0.00    -0.272 OA
HETATM    8  H   UNL     1       3.012  26.586  52.783  1.00  0.00     0.190 HD
BRANCH   6   9
HETATM    9  C   UNL     1       3.261  28.657  51.266  1.00  0.00     0.114 C 
BRANCH   9  10
HETATM   10  C   UNL     1       3.545  28.416  49.767  1.00  0.00    -0.031 C 
HETATM   11  C   UNL     1       4.295  27.081  49.524  1.00  0.00     0.014 C 
HETATM   12  C   UNL     1       4.506  26.841  48.018  1.00  0.00    -0.013 C 
HETATM   13  C   UNL     1       5.319  28.006  47.428  1.00  0.00     0.009 C 
HETATM   14  C   UNL     1       3.140  26.770  47.317  1.00  0.00     0.009 C 
HETATM   15  C   UNL     1       4.564  29.331  47.625  1.00  0.00    -0.013 C 
HETATM   16  C   UNL     1       4.352  29.577  49.129  1.00  0.00     0.014 C 
HETATM   17  C   UNL     1       3.198  29.246  46.926  1.00  0.00     0.009 C 
HETATM   18  C   UNL     1       2.379  28.089  47.519  1.00  0.00    -0.013 C 
HETATM   19  C   UNL     1       2.179  28.331  49.024  1.00  0.00     0.014 C 
ENDBRANCH   9  10
ENDBRANCH   6   9
ENDBRANCH   2   5
BRANCH   1  20
HETATM   20  C   UNL     1       6.424  24.892  54.419  1.00  0.00     0.158 A 
HETATM   21  C   UNL     1       7.239  23.726  54.312  1.00  0.00     0.029 A 
HETATM   22  C   UNL     1       7.355  22.646  53.413  1.00  0.00     0.023 A 
HETATM   23  C   UNL     1       8.080  23.769  55.416  1.00  0.00     0.063 A 
HETATM   24  C   UNL     1       8.319  21.650  53.648  1.00  0.00    -0.061 A 
HETATM   25  C   UNL     1       8.444  20.481  52.714  1.00  0.00     0.048 C 
HETATM   26  C   UNL     1       9.139  21.727  54.780  1.00  0.00     0.009 A 
HETATM   27  C   UNL     1       9.040  22.790  55.687  1.00  0.00     0.032 A 
HETATM   28  N   UNL     1       7.738  24.909  56.088  1.00  0.00    -0.277 N 
HETATM   29  H   UNL     1       8.146  25.264  56.945  1.00  0.00     0.189 HD
HETATM   30  N   UNL     1       6.744  25.612  55.517  1.00  0.00    -0.168 NA
ENDBRANCH   1  20
TORSDOF 4
ENDMDL
MODEL 2
REMARK VINA RESULT:      -9.6      1.317      1.614
REMARK  4 active torsions:
REMARK  status: ('A' for Active; 'I' for Inactive)
REMARK    1  A    between atoms: C_9  and  C_10 
REMARK       I    between atoms: C_10  and  N_11 
REMARK    2  A    between atoms: N_11  and  N_12 
REMARK       I    between atoms: N_12  and  C_13 
REMARK    3  A    between atoms: C_13  and  C_14 
REMARK    4  A    between atoms: C_14  and  C_15 
ROOT
HETATM    1  C   UNL     1       7.012  25.804  54.895  1.00  0.00     0.291 C 
HETATM    2  N   UNL     1       5.831  25.535  54.229  1.00  0.00    -0.262 N 
HETATM    3  O   UNL     1       7.597  26.883  54.792  1.00  0.00    -0.264 OA
HETATM    4  H   UNL     1       5.304  24.692  54.469  1.00  0.00     0.190 HD
ENDROOT
BRANCH   2   5
HETATM    5  N   UNL     1       5.175  26.561  53.544  1.00  0.00    -0.267 N 
HETATM    6  C   UNL     1       5.442  26.712  52.194  1.00  0.00     0.236 C 
HETATM    7  O   UNL     1       6.316  26.073  51.619  1.00  0.00    -0.272 OA
HETATM    8  H   UNL     1       4.317  26.909  53.970  1.00  0.00     0.190 HD
BRANCH   6   9
HETATM    9  C   UNL     1       4.546  27.758  51.545  1.00  0.00     0.114 C 
BRANCH   9  10
HETATM   10  C   UNL     1       4.375  27.697  50.011  1.00  0.00    -0.031 C 
HETATM   11  C   UNL     1       4.309  26.237  49.492  1.00  0.00     0.014 C 
HETATM   12  C   UNL     1       4.075  26.212  47.970  1.00  0.00    -0.013 C 
HETATM   13  C   UNL     1       5.221  26.960  47.269  1.00  0.00     0.009 C 
HETATM   14  C   UNL     1       2.743  26.907  47.648  1.00  0.00     0.009 C 
HETATM   15  C   UNL     1       5.269  28.421  47.745  1.00  0.00    -0.013 C 
HETATM   16  C   UNL     1       5.504  28.453  49.265  1.00  0.00     0.014 C 
HETATM   17  C   UNL     1       3.931  29.104  47.424  1.00  0.00     0.009 C 
HETATM   18  C   UNL     1       2.784  28.365  48.131  1.00  0.00    -0.013 C 
HETATM   19  C   UNL     1       3.028  28.388  49.648  1.00  0.00     0.014 C 
ENDBRANCH   9  10
ENDBRANCH   6   9
ENDBRANCH   2   5
BRANCH   1  20
HETATM   20  C   UNL     1       7.478  24.689  55.729  1.00  0.00     0.158 A 
HETATM   21  C   UNL     1       7.776  23.358  55.311  1.00  0.00     0.029 A 
HETATM   22  C   UNL     1       7.754  22.646  54.095  1.00  0.00     0.023 A 
HETATM   23  C   UNL     1       8.169  22.695  56.467  1.00  0.00     0.063 A 
HETATM   24  C   UNL     1       8.136  21.293  54.078  1.00  0.00    -0.061 A 
HETATM   25  C   UNL     1       8.099  20.511  52.796  1.00  0.00     0.048 C 
HETATM   26  C   UNL     1       8.515  20.661  55.268  1.00  0.00     0.009 A 
HETATM   27  C   UNL     1       8.543  21.349  56.488  1.00  0.00     0.032 A 
HETATM   28  N   UNL     1       8.091  23.627  57.463  1.00  0.00    -0.277 N 
HETATM   29  H   UNL     1       8.305  23.497  58.445  1.00  0.00     0.189 HD
HETATM   30  N   UNL     1       7.679  24.840  57.057  1.00  0.00    -0.168 NA
ENDBRANCH   1  20
TORSDOF 4
ENDMDL
MODEL 3
REMARK VINA RESULT:      -9.2      8.945     11.539
REMARK  4 active torsions:
REMARK  status: ('A' for Active; 'I' for Inactive)
REMARK    1  A    between atoms: C_9  and  C_10 
REMARK       I    between atoms: C_10  and  N_11 
REMARK    2  A    between atoms: N_11  and  N_12 
REMARK       I    between atoms: N_12  and  C_13 
REMARK    3  A    between atoms: C_13  and  C_14 
REMARK    4  A    between atoms: C_14  and  C_15 
ROOT
HETATM    1  C   UNL     1       7.432  29.618  58.217  1.00  0.00     0.291 C 
HETATM    2  N   UNL     1       6.896  30.706  58.880  1.00  0.00    -0.262 N 
HETATM    3  O   UNL     1       8.293  28.897  58.721  1.00  0.00    -0.264 OA
HETATM    4  H   UNL     1       6.076  31.176  58.488  1.00  0.00     0.190 HD
ENDROOT
BRANCH   2   5
HETATM    5  N   UNL     1       7.205  30.916  60.227  1.00  0.00    -0.267 N 
HETATM    6  C   UNL     1       8.095  31.931  60.537  1.00  0.00     0.236 C 
HETATM    7  O   UNL     1       8.710  32.554  59.678  1.00  0.00    -0.272 OA
HETATM    8  H   UNL     1       6.533  30.559  60.903  1.00  0.00     0.190 HD
BRANCH   6   9
HETATM    9  C   UNL     1       8.216  32.148  62.038  1.00  0.00     0.114 C 
BRANCH   9  10
HETATM   10  C   UNL     1       7.078  32.920  62.741  1.00  0.00    -0.031 C 
HETATM   11  C   UNL     1       5.861  32.009  63.046  1.00  0.00     0.014 C 
HETATM   12  C   UNL     1       4.771  32.792  63.802  1.00  0.00    -0.013 C 
HETATM   13  C   UNL     1       4.322  33.989  62.947  1.00  0.00     0.009 C 
HETATM   14  C   UNL     1       5.344  33.306  65.133  1.00  0.00     0.009 C 
HETATM   15  C   UNL     1       5.513  34.922  62.675  1.00  0.00    -0.013 C 
HETATM   16  C   UNL     1       6.604  34.145  61.917  1.00  0.00     0.014 C 
HETATM   17  C   UNL     1       6.081  35.424  64.011  1.00  0.00     0.009 C 
HETATM   18  C   UNL     1       6.541  34.231  64.864  1.00  0.00    -0.013 C 
HETATM   19  C   UNL     1       7.622  33.450  64.100  1.00  0.00     0.014 C 
ENDBRANCH   9  10
ENDBRANCH   6   9
ENDBRANCH   2   5
BRANCH   1  20
HETATM   20  C   UNL     1       6.865  29.415  56.878  1.00  0.00     0.158 A 
HETATM   21  C   UNL     1       6.916  28.230  56.085  1.00  0.00     0.029 A 
HETATM   22  C   UNL     1       7.454  26.934  56.226  1.00  0.00     0.023 A 
HETATM   23  C   UNL     1       6.244  28.549  54.912  1.00  0.00     0.063 A 
HETATM   24  C   UNL     1       7.291  26.000  55.189  1.00  0.00    -0.061 A 
HETATM   25  C   UNL     1       7.876  24.622  55.311  1.00  0.00     0.048 C 
HETATM   26  C   UNL     1       6.616  26.368  54.018  1.00  0.00     0.009 A 
HETATM   27  C   UNL     1       6.075  27.650  53.857  1.00  0.00     0.032 A 
HETATM   28  N   UNL     1       5.845  29.847  55.067  1.00  0.00    -0.277 N 
HETATM   29  H   UNL     1       5.325  30.414  54.406  1.00  0.00     0.189 HD
HETATM   30  N   UNL     1       6.201  30.402  56.239  1.00  0.00    -0.168 NA
ENDBRANCH   1  20
TORSDOF 4
ENDMDL
MODEL 4
REMARK VINA RESULT:      -8.6      1.542      2.307
REMARK  4 active torsions:
REMARK  status: ('A' for Active; 'I' for Inactive)
REMARK    1  A    between atoms: C_9  and  C_10 
REMARK       I    between atoms: C_10  and  N_11 
REMARK    2  A    between atoms: N_11  and  N_12 
REMARK       I    between atoms: N_12  and  C_13 
REMARK    3  A    between atoms: C_13  and  C_14 
REMARK    4  A    between atoms: C_14  and  C_15 
ROOT
HETATM    1  C   UNL     1       6.196  25.547  54.329  1.00  0.00     0.291 C 
HETATM    2  N   UNL     1       5.555  24.875  53.305  1.00  0.00    -0.262 N 
HETATM    3  O   UNL     1       6.224  26.776  54.396  1.00  0.00    -0.264 OA
HETATM    4  H   UNL     1       5.423  23.863  53.377  1.00  0.00     0.190 HD
ENDROOT
BRANCH   2   5
HETATM    5  N   UNL     1       4.765  25.588  52.399  1.00  0.00    -0.267 N 
HETATM    6  C   UNL     1       5.331  25.941  51.185  1.00  0.00     0.236 C 
HETATM    7  O   UNL     1       6.519  25.768  50.936  1.00  0.00    -0.272 OA
HETATM    8  H   UNL     1       3.758  25.516  52.527  1.00  0.00     0.190 HD
BRANCH   6   9
HETATM    9  C   UNL     1       4.317  26.570  50.241  1.00  0.00     0.114 C 
BRANCH   9  10
HETATM   10  C   UNL     1       4.404  28.096  50.015  1.00  0.00    -0.031 C 
HETATM   11  C   UNL     1       5.142  28.447  48.697  1.00  0.00     0.014 C 
HETATM   12  C   UNL     1       5.156  29.970  48.471  1.00  0.00    -0.013 C 
HETATM   13  C   UNL     1       5.858  30.653  49.657  1.00  0.00     0.009 C 
HETATM   14  C   UNL     1       3.710  30.483  48.374  1.00  0.00     0.009 C 
HETATM   15  C   UNL     1       5.109  30.346  50.963  1.00  0.00    -0.013 C 
HETATM   16  C   UNL     1       5.094  28.825  51.196  1.00  0.00     0.014 C 
HETATM   17  C   UNL     1       3.665  30.857  50.853  1.00  0.00     0.009 C 
HETATM   18  C   UNL     1       2.955  30.170  49.675  1.00  0.00    -0.013 C 
HETATM   19  C   UNL     1       2.953  28.650  49.904  1.00  0.00     0.014 C 
ENDBRANCH   9  10
ENDBRANCH   6   9
ENDBRANCH   2   5
BRANCH   1  20
HETATM   20  C   UNL     1       6.820  24.652  55.312  1.00  0.00     0.158 A 
HETATM   21  C   UNL     1       7.395  23.369  55.074  1.00  0.00     0.029 A 
HETATM   22  C   UNL     1       7.586  22.531  53.957  1.00  0.00     0.023 A 
HETATM   23  C   UNL     1       7.840  22.936  56.317  1.00  0.00     0.063 A 
HETATM   24  C   UNL     1       8.225  21.290  54.122  1.00  0.00    -0.061 A 
HETATM   25  C   UNL     1       8.418  20.374  52.948  1.00  0.00     0.048 C 
HETATM   26  C   UNL     1       8.648  20.888  55.395  1.00  0.00     0.009 A 
HETATM   27  C   UNL     1       8.468  21.704  56.519  1.00  0.00     0.032 A 
HETATM   28  N   UNL     1       7.522  23.942  57.186  1.00  0.00    -0.277 N 
HETATM   29  H   UNL     1       7.699  23.971  58.184  1.00  0.00     0.189 HD
HETATM   30  N   UNL     1       6.907  24.992  56.616  1.00  0.00    -0.168 NA
ENDBRANCH   1  20
TORSDOF 4
ENDMDL
MODEL 5
REMARK VINA RESULT:      -8.5      1.243      1.870
REMARK  4 active torsions:
REMARK  status: ('A' for Active; 'I' for Inactive)
REMARK    1  A    between atoms: C_9  and  C_10 
REMARK       I    between atoms: C_10  and  N_11 
REMARK    2  A    between atoms: N_11  and  N_12 
REMARK       I    between atoms: N_12  and  C_13 
REMARK    3  A    between atoms: C_13  and  C_14 
REMARK    4  A    between atoms: C_14  and  C_15 
ROOT
HETATM    1  C   UNL     1       5.163  25.518  53.266  1.00  0.00     0.291 C 
HETATM    2  N   UNL     1       5.105  26.847  52.889  1.00  0.00    -0.262 N 
HETATM    3  O   UNL     1       4.352  24.683  52.867  1.00  0.00    -0.264 OA
HETATM    4  H   UNL     1       5.886  27.466  53.117  1.00  0.00     0.190 HD
ENDROOT
BRANCH   2   5
HETATM    5  N   UNL     1       4.208  27.244  51.893  1.00  0.00    -0.267 N 
HETATM    6  C   UNL     1       4.685  27.358  50.599  1.00  0.00     0.236 C 
HETATM    7  O   UNL     1       5.876  27.252  50.324  1.00  0.00    -0.272 OA
HETATM    8  H   UNL     1       3.220  27.102  52.096  1.00  0.00     0.190 HD
BRANCH   6   9
HETATM    9  C   UNL     1       3.573  27.642  49.599  1.00  0.00     0.114 C 
BRANCH   9  10
HETATM   10  C   UNL     1       3.605  29.000  48.865  1.00  0.00    -0.031 C 
HETATM   11  C   UNL     1       4.565  28.981  47.648  1.00  0.00     0.014 C 
HETATM   12  C   UNL     1       4.525  30.327  46.902  1.00  0.00    -0.013 C 
HETATM   13  C   UNL     1       4.933  31.453  47.866  1.00  0.00     0.009 C 
HETATM   14  C   UNL     1       3.097  30.586  46.395  1.00  0.00     0.009 C 
HETATM   15  C   UNL     1       3.961  31.510  49.056  1.00  0.00    -0.013 C 
HETATM   16  C   UNL     1       3.999  30.167  49.807  1.00  0.00     0.014 C 
HETATM   17  C   UNL     1       2.538  31.762  48.537  1.00  0.00     0.009 C 
HETATM   18  C   UNL     1       2.122  30.633  47.581  1.00  0.00    -0.013 C 
HETATM   19  C   UNL     1       2.172  29.292  48.330  1.00  0.00     0.014 C 
ENDBRANCH   9  10
ENDBRANCH   6   9
ENDBRANCH   2   5
BRANCH   1  20
HETATM   20  C   UNL     1       6.281  25.218  54.170  1.00  0.00     0.158 A 
HETATM   21  C   UNL     1       7.122  24.066  54.156  1.00  0.00     0.029 A 
HETATM   22  C   UNL     1       7.226  22.893  53.382  1.00  0.00     0.023 A 
HETATM   23  C   UNL     1       8.013  24.256  55.204  1.00  0.00     0.063 A 
HETATM   24  C   UNL     1       8.228  21.953  53.680  1.00  0.00    -0.061 A 
HETATM   25  C   UNL     1       8.342  20.686  52.881  1.00  0.00     0.048 C 
HETATM   26  C   UNL     1       9.099  22.179  54.754  1.00  0.00     0.009 A 
HETATM   27  C   UNL     1       9.012  23.337  55.537  1.00  0.00     0.032 A 
HETATM   28  N   UNL     1       7.671  25.458  55.757  1.00  0.00    -0.277 N 
HETATM   29  H   UNL     1       8.109  25.919  56.547  1.00  0.00     0.189 HD
HETATM   30  N   UNL     1       6.632  26.067  55.160  1.00  0.00    -0.168 NA
ENDBRANCH   1  20
TORSDOF 4
ENDMDL
MODEL 6
REMARK VINA RESULT:      -8.4      8.644     11.256
REMARK  4 active torsions:
REMARK  status: ('A' for Active; 'I' for Inactive)
REMARK    1  A    between atoms: C_9  and  C_10 
REMARK       I    between atoms: C_10  and  N_11 
REMARK    2  A    between atoms: N_11  and  N_12 
REMARK       I    between atoms: N_12  and  C_13 
REMARK    3  A    between atoms: C_13  and  C_14 
REMARK    4  A    between atoms: C_14  and  C_15 
ROOT
HETATM    1  C   UNL     1       5.715  32.499  60.222  1.00  0.00     0.291 C 
HETATM    2  N   UNL     1       6.519  31.410  59.940  1.00  0.00    -0.262 N 
HETATM    3  O   UNL     1       5.305  33.261  59.347  1.00  0.00    -0.264 OA
HETATM    4  H   UNL     1       6.702  30.720  60.673  1.00  0.00     0.190 HD
ENDROOT
BRANCH   2   5
HETATM    5  N   UNL     1       6.749  31.048  58.610  1.00  0.00    -0.267 N 
HETATM    6  C   UNL     1       7.673  30.047  58.362  1.00  0.00     0.236 C 
HETATM    7  O   UNL     1       8.380  29.569  59.243  1.00  0.00    -0.272 OA
HETATM    8  H   UNL     1       6.013  31.283  57.947  1.00  0.00     0.190 HD
BRANCH   6   9
HETATM    9  C   UNL     1       7.707  29.648  56.894  1.00  0.00     0.114 C 
BRANCH   9  10
HETATM   10  C   UNL     1       7.287  28.205  56.538  1.00  0.00    -0.031 C 
HETATM   11  C   UNL     1       8.231  27.152  57.174  1.00  0.00     0.014 C 
HETATM   12  C   UNL     1       7.749  25.725  56.855  1.00  0.00    -0.013 C 
HETATM   13  C   UNL     1       7.711  25.533  55.329  1.00  0.00     0.009 C 
HETATM   14  C   UNL     1       6.336  25.525  57.426  1.00  0.00     0.009 C 
HETATM   15  C   UNL     1       6.744  26.544  54.692  1.00  0.00    -0.013 C 
HETATM   16  C   UNL     1       7.222  27.972  55.007  1.00  0.00     0.014 C 
HETATM   17  C   UNL     1       5.338  26.339  55.275  1.00  0.00     0.009 C 
HETATM   18  C   UNL     1       5.369  26.540  56.799  1.00  0.00    -0.013 C 
HETATM   19  C   UNL     1       5.859  27.964  57.111  1.00  0.00     0.014 C 
ENDBRANCH   9  10
ENDBRANCH   6   9
ENDBRANCH   2   5
BRANCH   1  20
HETATM   20  C   UNL     1       5.403  32.637  61.651  1.00  0.00     0.158 A 
HETATM   21  C   UNL     1       5.432  33.830  62.433  1.00  0.00     0.029 A 
HETATM   22  C   UNL     1       5.728  35.189  62.204  1.00  0.00     0.023 A 
HETATM   23  C   UNL     1       5.063  33.433  63.712  1.00  0.00     0.063 A 
HETATM   24  C   UNL     1       5.636  36.106  63.266  1.00  0.00    -0.061 A 
HETATM   25  C   UNL     1       5.969  37.554  63.048  1.00  0.00     0.048 C 
HETATM   26  C   UNL     1       5.272  35.660  64.543  1.00  0.00     0.009 A 
HETATM   27  C   UNL     1       4.974  34.315  64.792  1.00  0.00     0.032 A 
HETATM   28  N   UNL     1       4.842  32.087  63.623  1.00  0.00    -0.277 N 
HETATM   29  H   UNL     1       4.556  31.460  64.367  1.00  0.00     0.189 HD
HETATM   30  N   UNL     1       5.037  31.573  62.397  1.00  0.00    -0.168 NA
ENDBRANCH   1  20
TORSDOF 4
ENDMDL
MODEL 7
REMARK VINA RESULT:      -8.2      1.754      2.722
REMARK  4 active torsions:
REMARK  status: ('A' for Active; 'I' for Inactive)
REMARK    1  A    between atoms: C_9  and  C_10 
REMARK       I    between atoms: C_10  and  N_11 
REMARK    2  A    between atoms: N_11  and  N_12 
REMARK       I    between atoms: N_12  and  C_13 
REMARK    3  A    between atoms: C_13  and  C_14 
REMARK    4  A    between atoms: C_14  and  C_15 
ROOT
HETATM    1  C   UNL     1       4.938  27.956  53.910  1.00  0.00     0.291 C 
HETATM    2  N   UNL     1       6.007  28.521  53.240  1.00  0.00    -0.262 N 
HETATM    3  O   UNL     1       3.769  28.216  53.625  1.00  0.00    -0.264 OA
HETATM    4  H   UNL     1       6.949  28.157  53.405  1.00  0.00     0.190 HD
ENDROOT
BRANCH   2   5
HETATM    5  N   UNL     1       5.778  29.284  52.092  1.00  0.00    -0.267 N 
HETATM    6  C   UNL     1       5.625  28.616  50.890  1.00  0.00     0.236 C 
HETATM    7  O   UNL     1       5.811  27.409  50.778  1.00  0.00    -0.272 OA
HETATM    8  H   UNL     1       5.410  30.222  52.242  1.00  0.00     0.190 HD
BRANCH   6   9
HETATM    9  C   UNL     1       5.226  29.553  49.758  1.00  0.00     0.114 C 
BRANCH   9  10
HETATM   10  C   UNL     1       3.836  29.346  49.118  1.00  0.00    -0.031 C 
HETATM   11  C   UNL     1       2.761  28.972  50.172  1.00  0.00     0.014 C 
HETATM   12  C   UNL     1       1.376  28.836  49.512  1.00  0.00    -0.013 C 
HETATM   13  C   UNL     1       1.438  27.749  48.426  1.00  0.00     0.009 C 
HETATM   14  C   UNL     1       0.985  30.176  48.868  1.00  0.00     0.009 C 
HETATM   15  C   UNL     1       2.470  28.130  47.352  1.00  0.00    -0.013 C 
HETATM   16  C   UNL     1       3.856  28.266  48.006  1.00  0.00     0.014 C 
HETATM   17  C   UNL     1       2.072  29.473  46.721  1.00  0.00     0.009 C 
HETATM   18  C   UNL     1       2.020  30.565  47.801  1.00  0.00    -0.013 C 
HETATM   19  C   UNL     1       3.403  30.690  48.460  1.00  0.00     0.014 C 
ENDBRANCH   9  10
ENDBRANCH   6   9
ENDBRANCH   2   5
BRANCH   1  20
HETATM   20  C   UNL     1       5.342  27.024  54.971  1.00  0.00     0.158 A 
HETATM   21  C   UNL     1       6.051  25.796  54.822  1.00  0.00     0.029 A 
HETATM   22  C   UNL     1       6.591  25.057  53.750  1.00  0.00     0.023 A 
HETATM   23  C   UNL     1       6.182  25.295  56.111  1.00  0.00     0.063 A 
HETATM   24  C   UNL     1       7.252  23.843  54.008  1.00  0.00    -0.061 A 
HETATM   25  C   UNL     1       7.815  23.030  52.878  1.00  0.00     0.048 C 
HETATM   26  C   UNL     1       7.350  23.369  55.322  1.00  0.00     0.009 A 
HETATM   27  C   UNL     1       6.821  24.087  56.402  1.00  0.00     0.032 A 
HETATM   28  N   UNL     1       5.573  26.213  56.919  1.00  0.00    -0.277 N 
HETATM   29  H   UNL     1       5.476  26.176  57.928  1.00  0.00     0.189 HD
HETATM   30  N   UNL     1       5.055  27.269  56.268  1.00  0.00    -0.168 NA
ENDBRANCH   1  20
TORSDOF 4
ENDMDL
MODEL 8
REMARK VINA RESULT:      -8.1      6.508      8.528
REMARK  4 active torsions:
REMARK  status: ('A' for Active; 'I' for Inactive)
REMARK    1  A    between atoms: C_9  and  C_10 
REMARK       I    between atoms: C_10  and  N_11 
REMARK    2  A    between atoms: N_11  and  N_12 
REMARK       I    between atoms: N_12  and  C_13 
REMARK    3  A    between atoms: C_13  and  C_14 
REMARK    4  A    between atoms: C_14  and  C_15 
ROOT
HETATM    1  C   UNL     1       5.683  31.975  57.573  1.00  0.00     0.291 C 
HETATM    2  N   UNL     1       6.059  30.664  57.349  1.00  0.00    -0.262 N 
HETATM    3  O   UNL     1       5.522  32.781  56.656  1.00  0.00    -0.264 OA
HETATM    4  H   UNL     1       6.026  29.995  58.122  1.00  0.00     0.190 HD
ENDROOT
BRANCH   2   5
HETATM    5  N   UNL     1       6.102  30.170  56.042  1.00  0.00    -0.267 N 
HETATM    6  C   UNL     1       5.054  29.372  55.616  1.00  0.00     0.236 C 
HETATM    7  O   UNL     1       4.172  28.982  56.374  1.00  0.00    -0.272 OA
HETATM    8  H   UNL     1       6.697  30.678  55.389  1.00  0.00     0.190 HD
BRANCH   6   9
HETATM    9  C   UNL     1       5.151  29.039  54.135  1.00  0.00     0.114 C 
BRANCH   9  10
HETATM   10  C   UNL     1       5.633  27.621  53.754  1.00  0.00    -0.031 C 
HETATM   11  C   UNL     1       7.163  27.574  53.511  1.00  0.00     0.014 C 
HETATM   12  C   UNL     1       7.620  26.137  53.196  1.00  0.00    -0.013 C 
HETATM   13  C   UNL     1       6.880  25.633  51.945  1.00  0.00     0.009 C 
HETATM   14  C   UNL     1       7.285  25.224  54.386  1.00  0.00     0.009 C 
HETATM   15  C   UNL     1       5.363  25.635  52.191  1.00  0.00    -0.013 C 
HETATM   16  C   UNL     1       4.900  27.069  52.504  1.00  0.00     0.014 C 
HETATM   17  C   UNL     1       5.041  24.725  53.386  1.00  0.00     0.009 C 
HETATM   18  C   UNL     1       5.769  25.231  54.640  1.00  0.00    -0.013 C 
HETATM   19  C   UNL     1       5.315  26.668  54.944  1.00  0.00     0.014 C 
ENDBRANCH   9  10
ENDBRANCH   6   9
ENDBRANCH   2   5
BRANCH   1  20
HETATM   20  C   UNL     1       5.492  32.291  58.994  1.00  0.00     0.158 A 
HETATM   21  C   UNL     1       6.479  32.291  60.023  1.00  0.00     0.029 A 
HETATM   22  C   UNL     1       7.861  32.027  60.106  1.00  0.00     0.023 A 
HETATM   23  C   UNL     1       5.798  32.651  61.179  1.00  0.00     0.063 A 
HETATM   24  C   UNL     1       8.516  32.142  61.345  1.00  0.00    -0.061 A 
HETATM   25  C   UNL     1       9.983  31.843  61.458  1.00  0.00     0.048 C 
HETATM   26  C   UNL     1       7.787  32.496  62.487  1.00  0.00     0.009 A 
HETATM   27  C   UNL     1       6.414  32.762  62.428  1.00  0.00     0.032 A 
HETATM   28  N   UNL     1       4.501  32.840  60.790  1.00  0.00    -0.277 N 
HETATM   29  H   UNL     1       3.718  33.112  61.374  1.00  0.00     0.189 HD
HETATM   30  N   UNL     1       4.279  32.633  59.481  1.00  0.00    -0.168 NA
ENDBRANCH   1  20
TORSDOF 4
ENDMDL
MODEL 9
REMARK VINA RESULT:      -8.1      7.216      9.548
REMARK  4 active torsions:
REMARK  status: ('A' for Active; 'I' for Inactive)
REMARK    1  A    between atoms: C_9  and  C_10 
REMARK       I    between atoms: C_10  and  N_11 
REMARK    2  A    between atoms: N_11  and  N_12 
REMARK       I    between atoms: N_12  and  C_13 
REMARK    3  A    between atoms: C_13  and  C_14 
REMARK    4  A    between atoms: C_14  and  C_15 
ROOT
HETATM    1  C   UNL     1       5.567  32.063  58.498  1.00  0.00     0.291 C 
HETATM    2  N   UNL     1       6.173  30.820  58.517  1.00  0.00    -0.262 N 
HETATM    3  O   UNL     1       5.733  32.864  57.578  1.00  0.00    -0.264 OA
HETATM    4  H   UNL     1       5.882  30.133  59.217  1.00  0.00     0.190 HD
ENDROOT
BRANCH   2   5
HETATM    5  N   UNL     1       6.865  30.372  57.389  1.00  0.00    -0.267 N 
HETATM    6  C   UNL     1       6.598  29.093  56.931  1.00  0.00     0.236 C 
HETATM    7  O   UNL     1       5.886  28.307  57.547  1.00  0.00    -0.272 OA
HETATM    8  H   UNL     1       7.257  31.093  56.787  1.00  0.00     0.190 HD
BRANCH   6   9
HETATM    9  C   UNL     1       7.301  28.796  55.614  1.00  0.00     0.114 C 
BRANCH   9  10
HETATM   10  C   UNL     1       7.047  27.417  54.966  1.00  0.00    -0.031 C 
HETATM   11  C   UNL     1       7.485  26.252  55.890  1.00  0.00     0.014 C 
HETATM   12  C   UNL     1       7.160  24.893  55.243  1.00  0.00    -0.013 C 
HETATM   13  C   UNL     1       7.890  24.787  53.893  1.00  0.00     0.009 C 
HETATM   14  C   UNL     1       5.644  24.789  55.009  1.00  0.00     0.009 C 
HETATM   15  C   UNL     1       7.431  25.913  52.953  1.00  0.00    -0.013 C 
HETATM   16  C   UNL     1       7.755  27.274  53.594  1.00  0.00     0.014 C 
HETATM   17  C   UNL     1       5.915  25.804  52.732  1.00  0.00     0.009 C 
HETATM   18  C   UNL     1       5.180  25.919  54.078  1.00  0.00    -0.013 C 
HETATM   19  C   UNL     1       5.515  27.275  54.721  1.00  0.00     0.014 C 
ENDBRANCH   9  10
ENDBRANCH   6   9
ENDBRANCH   2   5
BRANCH   1  20
HETATM   20  C   UNL     1       4.715  32.313  59.667  1.00  0.00     0.158 A 
HETATM   21  C   UNL     1       5.132  32.556  61.010  1.00  0.00     0.029 A 
HETATM   22  C   UNL     1       6.363  32.647  61.690  1.00  0.00     0.023 A 
HETATM   23  C   UNL     1       3.957  32.727  61.729  1.00  0.00     0.063 A 
HETATM   24  C   UNL     1       6.373  32.915  63.070  1.00  0.00    -0.061 A 
HETATM   25  C   UNL     1       7.673  32.994  63.818  1.00  0.00     0.048 C 
HETATM   26  C   UNL     1       5.164  33.069  63.759  1.00  0.00     0.009 A 
HETATM   27  C   UNL     1       3.930  32.982  63.103  1.00  0.00     0.032 A 
HETATM   28  N   UNL     1       2.950  32.586  60.816  1.00  0.00    -0.277 N 
HETATM   29  H   UNL     1       1.952  32.649  60.986  1.00  0.00     0.189 HD
HETATM   30  N   UNL     1       3.368  32.337  59.563  1.00  0.00    -0.168 NA
ENDBRANCH   1  20
TORSDOF 4
ENDMDL
MODEL 10
REMARK VINA RESULT:      -8.1     10.377     12.609
REMARK  4 active torsions:
REMARK  status: ('A' for Active; 'I' for Inactive)
REMARK    1  A    between atoms: C_9  and  C_10 
REMARK       I    between atoms: C_10  and  N_11 
REMARK    2  A    between atoms: N_11  and  N_12 
REMARK       I    between atoms: N_12  and  C_13 
REMARK    3  A    between atoms: C_13  and  C_14 
REMARK    4  A    between atoms: C_14  and  C_15 
ROOT
HETATM    1  C   UNL     1       7.249  31.602  59.493  1.00  0.00     0.291 C 
HETATM    2  N   UNL     1       7.383  31.289  60.833  1.00  0.00    -0.262 N 
HETATM    3  O   UNL     1       6.216  32.085  59.028  1.00  0.00    -0.264 OA
HETATM    4  H   UNL     1       8.306  31.041  61.198  1.00  0.00     0.190 HD
ENDROOT
BRANCH   2   5
HETATM    5  N   UNL     1       6.390  31.678  61.736  1.00  0.00    -0.267 N 
HETATM    6  C   UNL     1       6.790  32.151  62.974  1.00  0.00     0.236 C 
HETATM    7  O   UNL     1       7.958  32.117  63.347  1.00  0.00    -0.272 OA
HETATM    8  H   UNL     1       5.483  31.907  61.334  1.00  0.00     0.190 HD
BRANCH   6   9
HETATM    9  C   UNL     1       5.620  32.682  63.790  1.00  0.00     0.114 C 
BRANCH   9  10
HETATM   10  C   UNL     1       5.203  34.152  63.563  1.00  0.00    -0.031 C 
HETATM   11  C   UNL     1       4.735  34.405  62.107  1.00  0.00     0.014 C 
HETATM   12  C   UNL     1       4.267  35.861  61.931  1.00  0.00    -0.013 C 
HETATM   13  C   UNL     1       5.426  36.812  62.276  1.00  0.00     0.009 C 
HETATM   14  C   UNL     1       3.087  36.135  62.878  1.00  0.00     0.009 C 
HETATM   15  C   UNL     1       5.869  36.600  63.732  1.00  0.00    -0.013 C 
HETATM   16  C   UNL     1       6.340  35.146  63.913  1.00  0.00     0.014 C 
HETATM   17  C   UNL     1       4.682  36.869  64.669  1.00  0.00     0.009 C 
HETATM   18  C   UNL     1       3.525  35.914  64.335  1.00  0.00    -0.013 C 
HETATM   19  C   UNL     1       4.002  34.463  64.505  1.00  0.00     0.014 C 
ENDBRANCH   9  10
ENDBRANCH   6   9
ENDBRANCH   2   5
BRANCH   1  20
HETATM   20  C   UNL     1       8.452  31.311  58.703  1.00  0.00     0.158 A 
HETATM   21  C   UNL     1       8.559  30.450  57.570  1.00  0.00     0.029 A 
HETATM   22  C   UNL     1       7.683  29.631  56.830  1.00  0.00     0.023 A 
HETATM   23  C   UNL     1       9.894  30.513  57.193  1.00  0.00     0.063 A 
HETATM   24  C   UNL     1       8.175  28.908  55.729  1.00  0.00    -0.061 A 
HETATM   25  C   UNL     1       7.262  28.013  54.940  1.00  0.00     0.048 C 
HETATM   26  C   UNL     1       9.531  28.992  55.390  1.00  0.00     0.009 A 
HETATM   27  C   UNL     1      10.419  29.798  56.112  1.00  0.00     0.032 A 
HETATM   28  N   UNL     1      10.481  31.371  58.080  1.00  0.00    -0.277 N 
HETATM   29  H   UNL     1      11.454  31.656  58.108  1.00  0.00     0.189 HD
HETATM   30  N   UNL     1       9.644  31.871  59.004  1.00  0.00    -0.168 NA
ENDBRANCH   1  20
TORSDOF 4
ENDMDL
