MODEL 1
REMARK VINA RESULT:     -11.2      0.000      0.000
REMARK  2 active torsions:
REMARK  status: ('A' for Active; 'I' for Inactive)
REMARK    1  A    between atoms: C_4  and  C_5 
REMARK       I    between atoms: N_12  and  C_13 
REMARK    2  A    between atoms: C_13  and  C_14 
ROOT
HETATM    1  C   UNL     1       9.004  31.527  59.389  1.00  0.00     0.097 A 
HETATM    2  N   UNL     1      10.101  32.261  59.116  1.00  0.00    -0.173 NA
HETATM    3  N   UNL     1      10.674  31.665  58.061  1.00  0.00    -0.281 N 
HETATM    4  H   UNL     1      11.525  32.070  57.685  1.00  0.00     0.189 HD
HETATM    5  C   UNL     1       9.989  30.576  57.639  1.00  0.00     0.039 A 
HETATM    6  C   UNL     1       8.901  30.440  58.468  1.00  0.00     0.015 A 
HETATM    7  C   UNL     1       7.896  29.356  58.321  1.00  0.00     0.168 C 
HETATM    8  N   UNL     1       8.140  28.534  57.112  1.00  0.00    -0.347 N 
HETATM    9  C   UNL     1       7.149  27.583  56.863  1.00  0.00     0.226 C 
HETATM   10  O   UNL     1       6.106  27.562  57.523  1.00  0.00    -0.273 OA
HETATM   11  C   UNL     1       9.546  28.374  56.663  1.00  0.00     0.132 C 
HETATM   12  C   UNL     1      10.303  29.707  56.490  1.00  0.00     0.079 C 
ENDROOT
BRANCH   9  13
HETATM   13  C   UNL     1       7.366  26.584  55.738  1.00  0.00     0.106 C 
HETATM   14  C   UNL     1       6.062  26.318  54.997  1.00  0.00     0.190 C 
HETATM   15  O   UNL     1       6.275  25.518  53.827  1.00  0.00    -0.350 OA
HETATM   16  C   UNL     1       7.053  24.407  54.029  1.00  0.00     0.075 A 
HETATM   17  C   UNL     1       7.852  24.219  55.164  1.00  0.00    -0.024 A 
HETATM   18  C   UNL     1       7.052  23.460  53.006  1.00  0.00     0.037 A 
HETATM   19  C   UNL     1       7.867  25.239  56.268  1.00  0.00     0.057 C 
HETATM   20  C   UNL     1       8.619  23.052  55.277  1.00  0.00     0.010 A 
HETATM   21  C   UNL     1       8.609  22.101  54.255  1.00  0.00     0.001 A 
HETATM   22  C   UNL     1       7.828  22.306  53.120  1.00  0.00     0.003 A 
ENDBRANCH   9  13
BRANCH   1  23
HETATM   23  C   UNL     1       8.106  31.913  60.487  1.00  0.00    -0.005 A 
HETATM   24  C   UNL     1       8.590  31.936  61.805  1.00  0.00     0.014 A 
HETATM   25  C   UNL     1       7.765  32.314  62.869  1.00  0.00     0.001 A 
HETATM   26  C   UNL     1       6.442  32.672  62.630  1.00  0.00     0.000 A 
HETATM   27  C   UNL     1       5.942  32.643  61.330  1.00  0.00     0.001 A 
HETATM   28  C   UNL     1       6.767  32.260  60.266  1.00  0.00     0.014 A 
ENDBRANCH   1  23
TORSDOF 2
ENDMDL
MODEL 2
REMARK VINA RESULT:     -10.5      2.304      3.466
REMARK  2 active torsions:
REMARK  status: ('A' for Active; 'I' for Inactive)
REMARK    1  A    between atoms: C_4  and  C_5 
REMARK       I    between atoms: N_12  and  C_13 
REMARK    2  A    between atoms: C_13  and  C_14 
ROOT
HETATM    1  C   UNL     1       6.419  30.396  57.838  1.00  0.00     0.097 A 
HETATM    2  N   UNL     1       5.317  31.006  57.357  1.00  0.00    -0.173 NA
HETATM    3  N   UNL     1       4.711  30.090  56.588  1.00  0.00    -0.281 N 
HETATM    4  H   UNL     1       3.843  30.348  56.130  1.00  0.00     0.189 HD
HETATM    5  C   UNL     1       5.376  28.911  56.555  1.00  0.00     0.039 A 
HETATM    6  C   UNL     1       6.492  29.058  57.345  1.00  0.00     0.015 A 
HETATM    7  C   UNL     1       7.479  27.970  57.567  1.00  0.00     0.168 C 
HETATM    8  N   UNL     1       7.049  26.695  56.948  1.00  0.00    -0.347 N 
HETATM    9  C   UNL     1       7.883  25.613  57.238  1.00  0.00     0.226 C 
HETATM   10  O   UNL     1       8.796  25.716  58.062  1.00  0.00    -0.273 OA
HETATM   11  C   UNL     1       6.225  26.773  55.715  1.00  0.00     0.132 C 
HETATM   12  C   UNL     1       4.983  27.678  55.850  1.00  0.00     0.079 C 
ENDROOT
BRANCH   9  13
HETATM   13  C   UNL     1       7.625  24.289  56.539  1.00  0.00     0.106 C 
HETATM   14  C   UNL     1       8.361  23.157  57.244  1.00  0.00     0.190 C 
HETATM   15  O   UNL     1       7.995  21.878  56.710  1.00  0.00    -0.350 OA
HETATM   16  C   UNL     1       8.012  21.804  55.342  1.00  0.00     0.075 A 
HETATM   17  C   UNL     1       8.050  22.929  54.507  1.00  0.00    -0.024 A 
HETATM   18  C   UNL     1       7.945  20.524  54.793  1.00  0.00     0.037 A 
HETATM   19  C   UNL     1       8.115  24.313  55.090  1.00  0.00     0.057 C 
HETATM   20  C   UNL     1       8.059  22.751  53.118  1.00  0.00     0.010 A 
HETATM   21  C   UNL     1       8.000  21.468  52.570  1.00  0.00     0.001 A 
HETATM   22  C   UNL     1       7.940  20.356  53.408  1.00  0.00     0.003 A 
ENDBRANCH   9  13
BRANCH   1  23
HETATM   23  C   UNL     1       7.321  31.108  58.754  1.00  0.00    -0.005 A 
HETATM   24  C   UNL     1       6.788  31.822  59.840  1.00  0.00     0.014 A 
HETATM   25  C   UNL     1       7.622  32.497  60.737  1.00  0.00     0.001 A 
HETATM   26  C   UNL     1       9.002  32.469  60.560  1.00  0.00     0.000 A 
HETATM   27  C   UNL     1       9.547  31.775  59.482  1.00  0.00     0.001 A 
HETATM   28  C   UNL     1       8.712  31.105  58.581  1.00  0.00     0.014 A 
ENDBRANCH   1  23
TORSDOF 2
ENDMDL
MODEL 3
REMARK VINA RESULT:     -10.3      1.247      1.825
REMARK  2 active torsions:
REMARK  status: ('A' for Active; 'I' for Inactive)
REMARK    1  A    between atoms: C_4  and  C_5 
REMARK       I    between atoms: N_12  and  C_13 
REMARK    2  A    between atoms: C_13  and  C_14 
ROOT
HETATM    1  C   UNL     1       7.442  31.732  59.259  1.00  0.00     0.097 A 
HETATM    2  N   UNL     1       8.612  32.363  59.483  1.00  0.00    -0.173 NA
HETATM    3  N   UNL     1       9.531  31.656  58.809  1.00  0.00    -0.281 N 
HETATM    4  H   UNL     1      10.495  31.971  58.840  1.00  0.00     0.189 HD
HETATM    5  C   UNL     1       9.001  30.595  58.156  1.00  0.00     0.039 A 
HETATM    6  C   UNL     1       7.651  30.597  58.418  1.00  0.00     0.015 A 
HETATM    7  C   UNL     1       6.715  29.582  57.869  1.00  0.00     0.168 C 
HETATM    8  N   UNL     1       7.385  28.666  56.917  1.00  0.00    -0.347 N 
HETATM    9  C   UNL     1       6.519  27.776  56.280  1.00  0.00     0.226 C 
HETATM   10  O   UNL     1       5.295  27.877  56.407  1.00  0.00    -0.273 OA
HETATM   11  C   UNL     1       8.823  28.372  57.145  1.00  0.00     0.132 C 
HETATM   12  C   UNL     1       9.703  29.631  57.290  1.00  0.00     0.079 C 
ENDROOT
BRANCH   9  13
HETATM   13  C   UNL     1       7.112  26.691  55.396  1.00  0.00     0.106 C 
HETATM   14  C   UNL     1       6.580  26.807  53.973  1.00  0.00     0.190 C 
HETATM   15  O   UNL     1       7.255  25.908  53.083  1.00  0.00    -0.350 OA
HETATM   16  C   UNL     1       7.367  24.623  53.548  1.00  0.00     0.075 A 
HETATM   17  C   UNL     1       7.158  24.263  54.885  1.00  0.00    -0.024 A 
HETATM   18  C   UNL     1       7.753  23.663  52.614  1.00  0.00     0.037 A 
HETATM   19  C   UNL     1       6.749  25.293  55.901  1.00  0.00     0.057 C 
HETATM   20  C   UNL     1       7.303  22.922  55.265  1.00  0.00     0.010 A 
HETATM   21  C   UNL     1       7.680  21.961  54.326  1.00  0.00     0.001 A 
HETATM   22  C   UNL     1       7.908  22.332  53.002  1.00  0.00     0.003 A 
ENDBRANCH   9  13
BRANCH   1  23
HETATM   23  C   UNL     1       6.194  32.257  59.833  1.00  0.00    -0.005 A 
HETATM   24  C   UNL     1       5.211  32.794  58.986  1.00  0.00     0.014 A 
HETATM   25  C   UNL     1       4.008  33.287  59.500  1.00  0.00     0.001 A 
HETATM   26  C   UNL     1       3.771  33.252  60.871  1.00  0.00     0.000 A 
HETATM   27  C   UNL     1       4.741  32.734  61.727  1.00  0.00     0.001 A 
HETATM   28  C   UNL     1       5.947  32.246  61.212  1.00  0.00     0.014 A 
ENDBRANCH   1  23
TORSDOF 2
ENDMDL
MODEL 4
REMARK VINA RESULT:      -9.8      2.911      9.116
REMARK  2 active torsions:
REMARK  status: ('A' for Active; 'I' for Inactive)
REMARK    1  A    between atoms: C_4  and  C_5 
REMARK       I    between atoms: N_12  and  C_13 
REMARK    2  A    between atoms: C_13  and  C_14 
ROOT
HETATM    1  C   UNL     1       7.919  23.667  53.813  1.00  0.00     0.097 A 
HETATM    2  N   UNL     1       7.955  23.711  52.465  1.00  0.00    -0.173 NA
HETATM    3  N   UNL     1       7.686  24.985  52.145  1.00  0.00    -0.281 N 
HETATM    4  H   UNL     1       7.671  25.239  51.162  1.00  0.00     0.189 HD
HETATM    5  C   UNL     1       7.483  25.767  53.231  1.00  0.00     0.039 A 
HETATM    6  C   UNL     1       7.618  24.961  54.337  1.00  0.00     0.015 A 
HETATM    7  C   UNL     1       7.471  25.459  55.729  1.00  0.00     0.168 C 
HETATM    8  N   UNL     1       7.294  26.929  55.777  1.00  0.00    -0.347 N 
HETATM    9  C   UNL     1       7.278  27.456  57.070  1.00  0.00     0.226 C 
HETATM   10  O   UNL     1       7.545  26.753  58.048  1.00  0.00    -0.273 OA
HETATM   11  C   UNL     1       6.605  27.576  54.631  1.00  0.00     0.132 C 
HETATM   12  C   UNL     1       7.207  27.215  53.257  1.00  0.00     0.079 C 
ENDROOT
BRANCH   9  13
HETATM   13  C   UNL     1       6.954  28.930  57.249  1.00  0.00     0.106 C 
HETATM   14  C   UNL     1       7.696  29.501  58.451  1.00  0.00     0.190 C 
HETATM   15  O   UNL     1       7.544  30.924  58.536  1.00  0.00    -0.350 OA
HETATM   16  C   UNL     1       6.255  31.370  58.396  1.00  0.00     0.075 A 
HETATM   17  C   UNL     1       5.215  30.582  57.888  1.00  0.00    -0.024 A 
HETATM   18  C   UNL     1       6.021  32.698  58.753  1.00  0.00     0.037 A 
HETATM   19  C   UNL     1       5.460  29.152  57.493  1.00  0.00     0.057 C 
HETATM   20  C   UNL     1       3.931  31.130  57.777  1.00  0.00     0.010 A 
HETATM   21  C   UNL     1       3.697  32.457  58.143  1.00  0.00     0.001 A 
HETATM   22  C   UNL     1       4.742  33.241  58.628  1.00  0.00     0.003 A 
ENDBRANCH   9  13
BRANCH   1  23
HETATM   23  C   UNL     1       8.198  22.411  54.522  1.00  0.00    -0.005 A 
HETATM   24  C   UNL     1       8.479  21.246  53.788  1.00  0.00     0.014 A 
HETATM   25  C   UNL     1       8.763  20.039  54.434  1.00  0.00     0.001 A 
HETATM   26  C   UNL     1       8.768  19.978  55.825  1.00  0.00     0.000 A 
HETATM   27  C   UNL     1       8.480  21.121  56.567  1.00  0.00     0.001 A 
HETATM   28  C   UNL     1       8.190  22.327  55.920  1.00  0.00     0.014 A 
ENDBRANCH   1  23
TORSDOF 2
ENDMDL
MODEL 5
REMARK VINA RESULT:      -9.6      4.349      8.951
REMARK  2 active torsions:
REMARK  status: ('A' for Active; 'I' for Inactive)
REMARK    1  A    between atoms: C_4  and  C_5 
REMARK       I    between atoms: N_12  and  C_13 
REMARK    2  A    between atoms: C_13  and  C_14 
ROOT
HETATM    1  C   UNL     1       8.135  23.716  56.119  1.00  0.00     0.097 A 
HETATM    2  N   UNL     1       8.754  23.586  57.310  1.00  0.00    -0.173 NA
HETATM    3  N   UNL     1       8.540  24.745  57.950  1.00  0.00    -0.281 N 
HETATM    4  H   UNL     1       8.923  24.854  58.884  1.00  0.00     0.189 HD
HETATM    5  C   UNL     1       7.805  25.617  57.222  1.00  0.00     0.039 A 
HETATM    6  C   UNL     1       7.520  25.002  56.026  1.00  0.00     0.015 A 
HETATM    7  C   UNL     1       6.718  25.643  54.952  1.00  0.00     0.168 C 
HETATM    8  N   UNL     1       6.166  26.951  55.376  1.00  0.00    -0.347 N 
HETATM    9  C   UNL     1       5.303  27.531  54.446  1.00  0.00     0.226 C 
HETATM   10  O   UNL     1       4.937  26.912  53.443  1.00  0.00    -0.273 OA
HETATM   11  C   UNL     1       6.955  27.744  56.354  1.00  0.00     0.132 C 
HETATM   12  C   UNL     1       7.347  26.960  57.623  1.00  0.00     0.079 C 
ENDROOT
BRANCH   9  13
HETATM   13  C   UNL     1       4.794  28.939  54.707  1.00  0.00     0.106 C 
HETATM   14  C   UNL     1       3.799  28.947  55.859  1.00  0.00     0.190 C 
HETATM   15  O   UNL     1       3.439  30.282  56.237  1.00  0.00    -0.350 OA
HETATM   16  C   UNL     1       3.104  31.101  55.189  1.00  0.00     0.075 A 
HETATM   17  C   UNL     1       3.395  30.802  53.852  1.00  0.00    -0.024 A 
HETATM   18  C   UNL     1       2.481  32.303  55.522  1.00  0.00     0.037 A 
HETATM   19  C   UNL     1       4.074  29.513  53.485  1.00  0.00     0.057 C 
HETATM   20  C   UNL     1       3.017  31.707  52.851  1.00  0.00     0.010 A 
HETATM   21  C   UNL     1       2.385  32.906  53.185  1.00  0.00     0.001 A 
HETATM   22  C   UNL     1       2.120  33.204  54.520  1.00  0.00     0.003 A 
ENDBRANCH   9  13
BRANCH   1  23
HETATM   23  C   UNL     1       8.141  22.608  55.154  1.00  0.00    -0.005 A 
HETATM   24  C   UNL     1       8.335  21.292  55.607  1.00  0.00     0.014 A 
HETATM   25  C   UNL     1       8.331  20.215  54.715  1.00  0.00     0.001 A 
HETATM   26  C   UNL     1       8.135  20.438  53.356  1.00  0.00     0.000 A 
HETATM   27  C   UNL     1       7.954  21.738  52.888  1.00  0.00     0.001 A 
HETATM   28  C   UNL     1       7.964  22.816  53.780  1.00  0.00     0.014 A 
ENDBRANCH   1  23
TORSDOF 2
ENDMDL
MODEL 6
REMARK VINA RESULT:      -9.6      4.086      6.271
REMARK  2 active torsions:
REMARK  status: ('A' for Active; 'I' for Inactive)
REMARK    1  A    between atoms: C_4  and  C_5 
REMARK       I    between atoms: N_12  and  C_13 
REMARK    2  A    between atoms: C_13  and  C_14 
ROOT
HETATM    1  C   UNL     1       7.988  27.519  57.065  1.00  0.00     0.097 A 
HETATM    2  N   UNL     1       7.999  26.442  57.876  1.00  0.00    -0.173 NA
HETATM    3  N   UNL     1       7.216  25.536  57.273  1.00  0.00    -0.281 N 
HETATM    4  H   UNL     1       7.093  24.635  57.723  1.00  0.00     0.189 HD
HETATM    5  C   UNL     1       6.703  25.983  56.102  1.00  0.00     0.039 A 
HETATM    6  C   UNL     1       7.169  27.264  55.923  1.00  0.00     0.015 A 
HETATM    7  C   UNL     1       6.829  28.095  54.739  1.00  0.00     0.168 C 
HETATM    8  N   UNL     1       6.046  27.336  53.735  1.00  0.00    -0.347 N 
HETATM    9  C   UNL     1       5.812  28.037  52.551  1.00  0.00     0.226 C 
HETATM   10  O   UNL     1       6.354  29.125  52.337  1.00  0.00    -0.273 OA
HETATM   11  C   UNL     1       5.147  26.264  54.233  1.00  0.00     0.132 C 
HETATM   12  C   UNL     1       5.841  25.246  55.160  1.00  0.00     0.079 C 
ENDROOT
BRANCH   9  13
HETATM   13  C   UNL     1       4.896  27.418  51.509  1.00  0.00     0.106 C 
HETATM   14  C   UNL     1       5.561  26.214  50.855  1.00  0.00     0.190 C 
HETATM   15  O   UNL     1       4.652  25.511  49.997  1.00  0.00    -0.350 OA
HETATM   16  C   UNL     1       3.946  26.310  49.137  1.00  0.00     0.075 A 
HETATM   17  C   UNL     1       3.845  27.701  49.278  1.00  0.00    -0.024 A 
HETATM   18  C   UNL     1       3.273  25.659  48.103  1.00  0.00     0.037 A 
HETATM   19  C   UNL     1       4.560  28.410  50.394  1.00  0.00     0.057 C 
HETATM   20  C   UNL     1       3.094  28.431  48.349  1.00  0.00     0.010 A 
HETATM   21  C   UNL     1       2.428  27.778  47.310  1.00  0.00     0.001 A 
HETATM   22  C   UNL     1       2.516  26.392  47.189  1.00  0.00     0.003 A 
ENDBRANCH   9  13
BRANCH   1  23
HETATM   23  C   UNL     1       8.775  28.713  57.406  1.00  0.00    -0.005 A 
HETATM   24  C   UNL     1      10.007  28.939  56.771  1.00  0.00     0.014 A 
HETATM   25  C   UNL     1      10.771  30.073  57.063  1.00  0.00     0.001 A 
HETATM   26  C   UNL     1      10.314  30.998  57.998  1.00  0.00     0.000 A 
HETATM   27  C   UNL     1       9.100  30.783  58.646  1.00  0.00     0.001 A 
HETATM   28  C   UNL     1       8.338  29.645  58.357  1.00  0.00     0.014 A 
ENDBRANCH   1  23
TORSDOF 2
ENDMDL
MODEL 7
REMARK VINA RESULT:      -9.5      3.084      4.129
REMARK  2 active torsions:
REMARK  status: ('A' for Active; 'I' for Inactive)
REMARK    1  A    between atoms: C_4  and  C_5 
REMARK       I    between atoms: N_12  and  C_13 
REMARK    2  A    between atoms: C_13  and  C_14 
ROOT
HETATM    1  C   UNL     1       5.992  30.395  57.087  1.00  0.00     0.097 A 
HETATM    2  N   UNL     1       6.749  30.851  58.106  1.00  0.00    -0.173 NA
HETATM    3  N   UNL     1       7.675  29.903  58.311  1.00  0.00    -0.281 N 
HETATM    4  H   UNL     1       8.362  30.054  59.043  1.00  0.00     0.189 HD
HETATM    5  C   UNL     1       7.549  28.854  57.464  1.00  0.00     0.039 A 
HETATM    6  C   UNL     1       6.471  29.122  56.652  1.00  0.00     0.015 A 
HETATM    7  C   UNL     1       6.014  28.202  55.579  1.00  0.00     0.168 C 
HETATM    8  N   UNL     1       6.926  27.048  55.410  1.00  0.00    -0.347 N 
HETATM    9  C   UNL     1       6.607  26.224  54.329  1.00  0.00     0.226 C 
HETATM   10  O   UNL     1       5.731  26.546  53.521  1.00  0.00    -0.273 OA
HETATM   11  C   UNL     1       7.645  26.559  56.615  1.00  0.00     0.132 C 
HETATM   12  C   UNL     1       8.410  27.661  57.376  1.00  0.00     0.079 C 
ENDROOT
BRANCH   9  13
HETATM   13  C   UNL     1       7.381  24.929  54.148  1.00  0.00     0.106 C 
HETATM   14  C   UNL     1       7.141  24.350  52.760  1.00  0.00     0.190 C 
HETATM   15  O   UNL     1       7.994  23.226  52.503  1.00  0.00    -0.350 OA
HETATM   16  C   UNL     1       8.033  22.298  53.511  1.00  0.00     0.075 A 
HETATM   17  C   UNL     1       7.568  22.545  54.809  1.00  0.00    -0.024 A 
HETATM   18  C   UNL     1       8.613  21.070  53.194  1.00  0.00     0.037 A 
HETATM   19  C   UNL     1       6.949  23.868  55.162  1.00  0.00     0.057 C 
HETATM   20  C   UNL     1       7.657  21.532  55.773  1.00  0.00     0.010 A 
HETATM   21  C   UNL     1       8.230  20.300  55.451  1.00  0.00     0.001 A 
HETATM   22  C   UNL     1       8.710  20.071  54.163  1.00  0.00     0.003 A 
ENDBRANCH   9  13
BRANCH   1  23
HETATM   23  C   UNL     1       4.879  31.204  56.570  1.00  0.00    -0.005 A 
HETATM   24  C   UNL     1       3.633  30.601  56.331  1.00  0.00     0.014 A 
HETATM   25  C   UNL     1       2.551  31.348  55.854  1.00  0.00     0.001 A 
HETATM   26  C   UNL     1       2.701  32.709  55.606  1.00  0.00     0.000 A 
HETATM   27  C   UNL     1       3.933  33.320  55.825  1.00  0.00     0.001 A 
HETATM   28  C   UNL     1       5.017  32.572  56.297  1.00  0.00     0.014 A 
ENDBRANCH   1  23
TORSDOF 2
ENDMDL
MODEL 8
REMARK VINA RESULT:      -9.4      5.213      9.324
REMARK  2 active torsions:
REMARK  status: ('A' for Active; 'I' for Inactive)
REMARK    1  A    between atoms: C_4  and  C_5 
REMARK       I    between atoms: N_12  and  C_13 
REMARK    2  A    between atoms: C_13  and  C_14 
ROOT
HETATM    1  C   UNL     1       7.599  24.510  54.954  1.00  0.00     0.097 A 
HETATM    2  N   UNL     1       7.929  24.972  56.177  1.00  0.00    -0.173 NA
HETATM    3  N   UNL     1       7.652  26.283  56.148  1.00  0.00    -0.281 N 
HETATM    4  H   UNL     1       7.824  26.828  56.987  1.00  0.00     0.189 HD
HETATM    5  C   UNL     1       7.154  26.688  54.956  1.00  0.00     0.039 A 
HETATM    6  C   UNL     1       7.103  25.578  54.145  1.00  0.00     0.015 A 
HETATM    7  C   UNL     1       6.602  25.614  52.747  1.00  0.00     0.168 C 
HETATM    8  N   UNL     1       6.055  26.944  52.388  1.00  0.00    -0.347 N 
HETATM    9  C   UNL     1       5.458  26.990  51.127  1.00  0.00     0.226 C 
HETATM   10  O   UNL     1       5.285  25.962  50.466  1.00  0.00    -0.273 OA
HETATM   11  C   UNL     1       6.655  28.134  53.043  1.00  0.00     0.132 C 
HETATM   12  C   UNL     1       6.705  28.041  54.582  1.00  0.00     0.079 C 
ENDROOT
BRANCH   9  13
HETATM   13  C   UNL     1       4.995  28.334  50.591  1.00  0.00     0.106 C 
HETATM   14  C   UNL     1       3.556  28.611  51.004  1.00  0.00     0.190 C 
HETATM   15  O   UNL     1       3.155  29.944  50.661  1.00  0.00    -0.350 OA
HETATM   16  C   UNL     1       3.463  30.319  49.379  1.00  0.00     0.075 A 
HETATM   17  C   UNL     1       4.370  29.626  48.566  1.00  0.00    -0.024 A 
HETATM   18  C   UNL     1       2.850  31.482  48.914  1.00  0.00     0.037 A 
HETATM   19  C   UNL     1       5.042  28.377  49.062  1.00  0.00     0.057 C 
HETATM   20  C   UNL     1       4.624  30.093  47.270  1.00  0.00     0.010 A 
HETATM   21  C   UNL     1       4.001  31.252  46.803  1.00  0.00     0.001 A 
HETATM   22  C   UNL     1       3.117  31.947  47.626  1.00  0.00     0.003 A 
ENDBRANCH   9  13
BRANCH   1  23
HETATM   23  C   UNL     1       7.748  23.084  54.634  1.00  0.00    -0.005 A 
HETATM   24  C   UNL     1       7.986  22.689  53.307  1.00  0.00     0.014 A 
HETATM   25  C   UNL     1       8.147  21.341  52.973  1.00  0.00     0.001 A 
HETATM   26  C   UNL     1       8.071  20.366  53.963  1.00  0.00     0.000 A 
HETATM   27  C   UNL     1       7.824  20.738  55.283  1.00  0.00     0.001 A 
HETATM   28  C   UNL     1       7.657  22.087  55.615  1.00  0.00     0.014 A 
ENDBRANCH   1  23
TORSDOF 2
ENDMDL
MODEL 9
REMARK VINA RESULT:      -9.2      6.219      7.819
REMARK  2 active torsions:
REMARK  status: ('A' for Active; 'I' for Inactive)
REMARK    1  A    between atoms: C_4  and  C_5 
REMARK       I    between atoms: N_12  and  C_13 
REMARK    2  A    between atoms: C_13  and  C_14 
ROOT
HETATM    1  C   UNL     1       4.748  29.617  49.922  1.00  0.00     0.097 A 
HETATM    2  N   UNL     1       4.060  29.335  48.797  1.00  0.00    -0.173 NA
HETATM    3  N   UNL     1       3.948  27.999  48.776  1.00  0.00    -0.281 N 
HETATM    4  H   UNL     1       3.449  27.573  48.002  1.00  0.00     0.189 HD
HETATM    5  C   UNL     1       4.533  27.407  49.843  1.00  0.00     0.039 A 
HETATM    6  C   UNL     1       5.070  28.410  50.615  1.00  0.00     0.015 A 
HETATM    7  C   UNL     1       5.796  28.159  51.887  1.00  0.00     0.168 C 
HETATM    8  N   UNL     1       5.754  26.730  52.276  1.00  0.00    -0.347 N 
HETATM    9  C   UNL     1       6.314  26.466  53.527  1.00  0.00     0.226 C 
HETATM   10  O   UNL     1       6.661  27.384  54.276  1.00  0.00    -0.273 OA
HETATM   11  C   UNL     1       5.698  25.722  51.186  1.00  0.00     0.132 C 
HETATM   12  C   UNL     1       4.569  25.969  50.165  1.00  0.00     0.079 C 
ENDROOT
BRANCH   9  13
HETATM   13  C   UNL     1       6.462  25.019  53.967  1.00  0.00     0.106 C 
HETATM   14  C   UNL     1       6.998  24.942  55.390  1.00  0.00     0.190 C 
HETATM   15  O   UNL     1       6.981  23.598  55.888  1.00  0.00    -0.350 OA
HETATM   16  C   UNL     1       7.504  22.665  55.030  1.00  0.00     0.075 A 
HETATM   17  C   UNL     1       7.732  22.908  53.669  1.00  0.00    -0.024 A 
HETATM   18  C   UNL     1       7.769  21.409  55.574  1.00  0.00     0.037 A 
HETATM   19  C   UNL     1       7.442  24.257  53.074  1.00  0.00     0.057 C 
HETATM   20  C   UNL     1       8.265  21.887  52.871  1.00  0.00     0.010 A 
HETATM   21  C   UNL     1       8.537  20.633  53.419  1.00  0.00     0.001 A 
HETATM   22  C   UNL     1       8.287  20.393  54.769  1.00  0.00     0.003 A 
ENDBRANCH   9  13
BRANCH   1  23
HETATM   23  C   UNL     1       5.036  31.012  50.286  1.00  0.00    -0.005 A 
HETATM   24  C   UNL     1       4.431  31.574  51.422  1.00  0.00     0.014 A 
HETATM   25  C   UNL     1       4.696  32.893  51.802  1.00  0.00     0.001 A 
HETATM   26  C   UNL     1       5.571  33.671  51.050  1.00  0.00     0.000 A 
HETATM   27  C   UNL     1       6.171  33.134  49.913  1.00  0.00     0.001 A 
HETATM   28  C   UNL     1       5.900  31.815  49.530  1.00  0.00     0.014 A 
ENDBRANCH   1  23
TORSDOF 2
ENDMDL
MODEL 10
REMARK VINA RESULT:      -8.9      2.142      3.059
REMARK  2 active torsions:
REMARK  status: ('A' for Active; 'I' for Inactive)
REMARK    1  A    between atoms: C_4  and  C_5 
REMARK       I    between atoms: N_12  and  C_13 
REMARK    2  A    between atoms: C_13  and  C_14 
ROOT
HETATM    1  C   UNL     1       9.321  30.800  58.908  1.00  0.00     0.097 A 
HETATM    2  N   UNL     1      10.554  31.116  58.463  1.00  0.00    -0.173 NA
HETATM    3  N   UNL     1      10.635  30.585  57.235  1.00  0.00    -0.281 N 
HETATM    4  H   UNL     1      11.495  30.716  56.711  1.00  0.00     0.189 HD
HETATM    5  C   UNL     1       9.502  29.942  56.866  1.00  0.00     0.039 A 
HETATM    6  C   UNL     1       8.621  30.048  57.916  1.00  0.00     0.015 A 
HETATM    7  C   UNL     1       7.253  29.469  57.892  1.00  0.00     0.168 C 
HETATM    8  N   UNL     1       6.919  28.889  56.570  1.00  0.00    -0.347 N 
HETATM    9  C   UNL     1       5.599  28.447  56.461  1.00  0.00     0.226 C 
HETATM   10  O   UNL     1       4.775  28.676  57.351  1.00  0.00    -0.273 OA
HETATM   11  C   UNL     1       8.032  28.318  55.770  1.00  0.00     0.132 C 
HETATM   12  C   UNL     1       9.222  29.280  55.579  1.00  0.00     0.079 C 
ENDROOT
BRANCH   9  13
HETATM   13  C   UNL     1       5.185  27.700  55.204  1.00  0.00     0.106 C 
HETATM   14  C   UNL     1       5.819  26.316  55.169  1.00  0.00     0.190 C 
HETATM   15  O   UNL     1       5.306  25.528  54.085  1.00  0.00    -0.350 OA
HETATM   16  C   UNL     1       5.275  26.174  52.876  1.00  0.00     0.075 A 
HETATM   17  C   UNL     1       5.406  27.561  52.736  1.00  0.00    -0.024 A 
HETATM   18  C   UNL     1       5.058  25.372  51.756  1.00  0.00     0.037 A 
HETATM   19  C   UNL     1       5.632  28.434  53.939  1.00  0.00     0.057 C 
HETATM   20  C   UNL     1       5.356  28.129  51.456  1.00  0.00     0.010 A 
HETATM   21  C   UNL     1       5.148  27.323  50.336  1.00  0.00     0.001 A 
HETATM   22  C   UNL     1       4.996  25.946  50.486  1.00  0.00     0.003 A 
ENDBRANCH   9  13
BRANCH   1  23
HETATM   23  C   UNL     1       8.872  31.251  60.233  1.00  0.00    -0.005 A 
HETATM   24  C   UNL     1       8.140  32.445  60.350  1.00  0.00     0.014 A 
HETATM   25  C   UNL     1       7.686  32.892  61.594  1.00  0.00     0.001 A 
HETATM   26  C   UNL     1       7.960  32.154  62.741  1.00  0.00     0.000 A 
HETATM   27  C   UNL     1       8.695  30.974  62.645  1.00  0.00     0.001 A 
HETATM   28  C   UNL     1       9.154  30.530  61.400  1.00  0.00     0.014 A 
ENDBRANCH   1  23
TORSDOF 2
ENDMDL
