MODEL 1
REMARK VINA RESULT:      -9.9      0.000      0.000
REMARK  11 active torsions:
REMARK  status: ('A' for Active; 'I' for Inactive)
REMARK    1  A    between atoms: C_2  and  O_3 
REMARK    2  A    between atoms: C_2  and  C_4 
REMARK    3  A    between atoms: C_8  and  C_9 
REMARK    4  A    between atoms: C_12  and  C_13 
REMARK    5  A    between atoms: C_13  and  C_14 
REMARK    6  A    between atoms: C_14  and  N_15 
REMARK    7  A    between atoms: C_14  and  C_29 
REMARK       I    between atoms: N_15  and  C_16 
REMARK    8  A    between atoms: C_16  and  C_17 
REMARK    9  A    between atoms: C_21  and  O_22 
REMARK   10  A    between atoms: O_22  and  C_23 
REMARK   11  A    between atoms: C_29  and  N_30 
ROOT
HETATM    1  C   UNL     1       8.626  30.656  59.041  1.00  0.00     0.114 C 
ENDROOT
BRANCH   1   2
HETATM    2  C   UNL     1       7.569  30.481  57.925  1.00  0.00     0.065 C 
BRANCH   2   3
HETATM    3  C   UNL     1       7.523  29.129  57.265  1.00  0.00    -0.056 A 
HETATM    4  C   UNL     1       7.317  29.001  55.886  1.00  0.00     0.008 A 
HETATM    5  C   UNL     1       7.349  27.738  55.284  1.00  0.00     0.014 A 
HETATM    6  C   UNL     1       7.592  26.582  56.039  1.00  0.00    -0.006 A 
HETATM    7  C   UNL     1       7.768  26.717  57.421  1.00  0.00     0.014 A 
HETATM    8  C   UNL     1       7.738  27.975  58.028  1.00  0.00     0.008 A 
BRANCH   6   9
HETATM    9  C   UNL     1       7.694  25.291  55.374  1.00  0.00     0.085 A 
HETATM   10  C   UNL     1       7.625  25.069  54.014  1.00  0.00     0.130 A 
HETATM   11  N   UNL     1       7.712  23.710  53.853  1.00  0.00    -0.315 N 
HETATM   12  C   UNL     1       7.838  23.158  55.122  1.00  0.00     0.143 A 
HETATM   13  C   UNL     1       7.679  22.965  52.681  1.00  0.00     0.098 A 
HETATM   14  C   UNL     1       7.940  21.723  55.228  1.00  0.00     0.017 A 
HETATM   15  N   UNL     1       7.832  24.099  56.050  1.00  0.00    -0.228 NA
HETATM   16  C   UNL     1       7.916  21.013  54.071  1.00  0.00     0.015 A 
HETATM   17  C   UNL     1       7.777  21.630  52.761  1.00  0.00     0.018 A 
BRANCH  14  18
HETATM   18  C   UNL     1       8.089  21.035  56.576  1.00  0.00     0.150 C 
HETATM   19  C   UNL     1       9.308  20.117  56.604  1.00  0.00     0.044 C 
BRANCH  18  20
HETATM   20  O   UNL     1       8.222  21.996  57.627  1.00  0.00    -0.391 OA
HETATM   21  H   UNL     1       8.341  21.499  58.454  1.00  0.00     0.210 HD
ENDBRANCH  18  20
ENDBRANCH  14  18
ENDBRANCH   6   9
ENDBRANCH   2   3
ENDBRANCH   1   2
BRANCH   1  22
HETATM   22  N   UNL     1       7.947  31.343  60.167  1.00  0.00    -0.350 N 
HETATM   23  C   UNL     1       8.284  31.265  61.499  1.00  0.00     0.252 C 
HETATM   24  O   UNL     1       9.271  30.646  61.884  1.00  0.00    -0.268 OA
HETATM   25  H   UNL     1       6.987  31.622  59.984  1.00  0.00     0.163 HD
BRANCH  23  26
HETATM   26  C   UNL     1       7.392  31.976  62.459  1.00  0.00     0.033 A 
HETATM   27  C   UNL     1       6.032  32.081  62.159  1.00  0.00     0.043 A 
HETATM   28  C   UNL     1       5.171  32.746  63.040  1.00  0.00     0.068 A 
HETATM   29 CL   UNL     1       3.502  32.850  62.603  1.00  0.00    -0.081 Cl
HETATM   30  C   UNL     1       5.652  33.317  64.229  1.00  0.00     0.091 A 
HETATM   31  C   UNL     1       7.007  33.177  64.539  1.00  0.00     0.039 A 
HETATM   32  C   UNL     1       7.872  32.509  63.663  1.00  0.00     0.020 A 
BRANCH  30  33
HETATM   33  O   UNL     1       4.738  33.952  65.024  1.00  0.00    -0.345 OA
BRANCH  33  34
HETATM   34  C   UNL     1       5.142  35.052  65.849  1.00  0.00     0.121 C 
HETATM   35  C   UNL     1       4.594  36.365  65.296  1.00  0.00     0.040 C 
HETATM   36  C   UNL     1       4.564  34.792  67.239  1.00  0.00     0.040 C 
ENDBRANCH  33  34
ENDBRANCH  30  33
ENDBRANCH  23  26
ENDBRANCH   1  22
BRANCH   1  37
HETATM   37  C   UNL     1       9.879  31.401  58.497  1.00  0.00     0.254 C 
BRANCH  37  38
HETATM   38  N   UNL     1      10.720  30.520  57.645  1.00  0.00    -0.077 N 
HETATM   39  H   UNL     1      10.579  30.772  56.642  1.00  0.00     0.274 HD
HETATM   40  H   UNL     1      11.725  30.629  57.819  1.00  0.00     0.274 HD
HETATM   41  H   UNL     1      10.475  29.529  57.731  1.00  0.00     0.274 HD
ENDBRANCH  37  38
ENDBRANCH   1  37
TORSDOF 11
ENDMDL
MODEL 2
REMARK VINA RESULT:      -9.7      3.000     12.527
REMARK  11 active torsions:
REMARK  status: ('A' for Active; 'I' for Inactive)
REMARK    1  A    between atoms: C_2  and  O_3 
REMARK    2  A    between atoms: C_2  and  C_4 
REMARK    3  A    between atoms: C_8  and  C_9 
REMARK    4  A    between atoms: C_12  and  C_13 
REMARK    5  A    between atoms: C_13  and  C_14 
REMARK    6  A    between atoms: C_14  and  N_15 
REMARK    7  A    between atoms: C_14  and  C_29 
REMARK       I    between atoms: N_15  and  C_16 
REMARK    8  A    between atoms: C_16  and  C_17 
REMARK    9  A    between atoms: C_21  and  O_22 
REMARK   10  A    between atoms: O_22  and  C_23 
REMARK   11  A    between atoms: C_29  and  N_30 
ROOT
HETATM    1  C   UNL     1       9.034  30.557  58.355  1.00  0.00     0.114 C 
ENDROOT
BRANCH   1   2
HETATM    2  C   UNL     1       9.178  30.224  59.858  1.00  0.00     0.065 C 
BRANCH   2   3
HETATM    3  C   UNL     1       8.472  31.151  60.811  1.00  0.00    -0.056 A 
HETATM    4  C   UNL     1       7.255  31.752  60.471  1.00  0.00     0.008 A 
HETATM    5  C   UNL     1       6.582  32.554  61.399  1.00  0.00     0.014 A 
HETATM    6  C   UNL     1       7.103  32.768  62.683  1.00  0.00    -0.006 A 
HETATM    7  C   UNL     1       8.336  32.187  63.005  1.00  0.00     0.014 A 
HETATM    8  C   UNL     1       9.012  31.384  62.082  1.00  0.00     0.008 A 
BRANCH   6   9
HETATM    9  C   UNL     1       6.344  33.546  63.653  1.00  0.00     0.085 A 
HETATM   10  C   UNL     1       5.400  34.508  63.363  1.00  0.00     0.130 A 
HETATM   11  N   UNL     1       4.992  35.008  64.572  1.00  0.00    -0.315 N 
HETATM   12  C   UNL     1       5.702  34.326  65.553  1.00  0.00     0.143 A 
HETATM   13  C   UNL     1       4.065  36.008  64.838  1.00  0.00     0.098 A 
HETATM   14  C   UNL     1       5.459  34.677  66.931  1.00  0.00     0.017 A 
HETATM   15  N   UNL     1       6.519  33.438  65.015  1.00  0.00    -0.228 NA
HETATM   16  C   UNL     1       4.542  35.649  67.170  1.00  0.00     0.015 A 
HETATM   17  C   UNL     1       3.824  36.344  66.114  1.00  0.00     0.018 A 
BRANCH  14  18
HETATM   18  C   UNL     1       6.185  33.975  68.069  1.00  0.00     0.150 C 
HETATM   19  C   UNL     1       7.092  34.936  68.831  1.00  0.00     0.044 C 
BRANCH  18  20
HETATM   20  O   UNL     1       5.254  33.404  68.991  1.00  0.00    -0.391 OA
HETATM   21  H   UNL     1       4.367  33.524  68.612  1.00  0.00     0.210 HD
ENDBRANCH  18  20
ENDBRANCH  14  18
ENDBRANCH   6   9
ENDBRANCH   2   3
ENDBRANCH   1   2
BRANCH   1  22
HETATM   22  N   UNL     1       8.657  29.294  57.672  1.00  0.00    -0.350 N 
HETATM   23  C   UNL     1       7.497  29.054  56.973  1.00  0.00     0.252 C 
HETATM   24  O   UNL     1       6.662  29.932  56.779  1.00  0.00    -0.268 OA
HETATM   25  H   UNL     1       9.129  28.462  58.017  1.00  0.00     0.163 HD
BRANCH  23  26
HETATM   26  C   UNL     1       7.302  27.671  56.451  1.00  0.00     0.033 A 
HETATM   27  C   UNL     1       8.023  26.627  57.036  1.00  0.00     0.043 A 
HETATM   28  C   UNL     1       7.863  25.318  56.566  1.00  0.00     0.068 A 
HETATM   29 CL   UNL     1       8.793  24.075  57.326  1.00  0.00    -0.081 Cl
HETATM   30  C   UNL     1       6.987  25.031  55.506  1.00  0.00     0.091 A 
HETATM   31  C   UNL     1       6.244  26.076  54.951  1.00  0.00     0.039 A 
HETATM   32  C   UNL     1       6.397  27.386  55.421  1.00  0.00     0.020 A 
BRANCH  30  33
HETATM   33  O   UNL     1       6.901  23.725  55.111  1.00  0.00    -0.345 OA
BRANCH  33  34
HETATM   34  C   UNL     1       7.920  23.156  54.279  1.00  0.00     0.121 C 
HETATM   35  C   UNL     1       7.943  21.636  54.424  1.00  0.00     0.040 C 
HETATM   36  C   UNL     1       7.573  23.536  52.841  1.00  0.00     0.040 C 
ENDBRANCH  33  34
ENDBRANCH  30  33
ENDBRANCH  23  26
ENDBRANCH   1  22
BRANCH   1  37
HETATM   37  C   UNL     1      10.336  31.215  57.812  1.00  0.00     0.254 C 
BRANCH  37  38
HETATM   38  N   UNL     1      11.308  30.201  57.328  1.00  0.00    -0.077 N 
HETATM   39  H   UNL     1      11.993  29.990  58.087  1.00  0.00     0.274 HD
HETATM   40  H   UNL     1      10.872  29.304  57.090  1.00  0.00     0.274 HD
HETATM   41  H   UNL     1      11.857  30.525  56.526  1.00  0.00     0.274 HD
ENDBRANCH  37  38
ENDBRANCH   1  37
TORSDOF 11
ENDMDL
MODEL 3
REMARK VINA RESULT:      -9.7      3.019     12.491
REMARK  11 active torsions:
REMARK  status: ('A' for Active; 'I' for Inactive)
REMARK    1  A    between atoms: C_2  and  O_3 
REMARK    2  A    between atoms: C_2  and  C_4 
REMARK    3  A    between atoms: C_8  and  C_9 
REMARK    4  A    between atoms: C_12  and  C_13 
REMARK    5  A    between atoms: C_13  and  C_14 
REMARK    6  A    between atoms: C_14  and  N_15 
REMARK    7  A    between atoms: C_14  and  C_29 
REMARK       I    between atoms: N_15  and  C_16 
REMARK    8  A    between atoms: C_16  and  C_17 
REMARK    9  A    between atoms: C_21  and  O_22 
REMARK   10  A    between atoms: O_22  and  C_23 
REMARK   11  A    between atoms: C_29  and  N_30 
ROOT
HETATM    1  C   UNL     1       9.127  30.354  58.183  1.00  0.00     0.114 C 
ENDROOT
BRANCH   1   2
HETATM    2  C   UNL     1       9.280  30.042  59.690  1.00  0.00     0.065 C 
BRANCH   2   3
HETATM    3  C   UNL     1       8.619  31.009  60.635  1.00  0.00    -0.056 A 
HETATM    4  C   UNL     1       7.453  31.694  60.276  1.00  0.00     0.008 A 
HETATM    5  C   UNL     1       6.817  32.534  61.197  1.00  0.00     0.014 A 
HETATM    6  C   UNL     1       7.325  32.704  62.492  1.00  0.00    -0.006 A 
HETATM    7  C   UNL     1       8.509  32.038  62.834  1.00  0.00     0.014 A 
HETATM    8  C   UNL     1       9.147  31.197  61.919  1.00  0.00     0.008 A 
BRANCH   6   9
HETATM    9  C   UNL     1       6.601  33.525  63.453  1.00  0.00     0.085 A 
HETATM   10  C   UNL     1       6.654  33.408  64.826  1.00  0.00     0.130 A 
HETATM   11  N   UNL     1       5.778  34.342  65.315  1.00  0.00    -0.315 N 
HETATM   12  C   UNL     1       5.230  34.997  64.218  1.00  0.00     0.143 A 
HETATM   13  C   UNL     1       5.447  34.625  66.634  1.00  0.00     0.098 A 
HETATM   14  C   UNL     1       4.259  36.034  64.466  1.00  0.00     0.017 A 
HETATM   15  N   UNL     1       5.719  34.518  63.088  1.00  0.00    -0.228 NA
HETATM   16  C   UNL     1       3.957  36.303  65.762  1.00  0.00     0.015 A 
HETATM   17  C   UNL     1       4.549  35.589  66.882  1.00  0.00     0.018 A 
BRANCH  14  18
HETATM   18  C   UNL     1       3.616  36.809  63.326  1.00  0.00     0.150 C 
HETATM   19  C   UNL     1       4.581  37.827  62.726  1.00  0.00     0.044 C 
BRANCH  18  20
HETATM   20  O   UNL     1       3.187  35.925  62.287  1.00  0.00    -0.391 OA
HETATM   21  H   UNL     1       2.504  35.348  62.668  1.00  0.00     0.210 HD
ENDBRANCH  18  20
ENDBRANCH  14  18
ENDBRANCH   6   9
ENDBRANCH   2   3
ENDBRANCH   1   2
BRANCH   1  22
HETATM   22  N   UNL     1       8.731  29.086  57.522  1.00  0.00    -0.350 N 
HETATM   23  C   UNL     1       7.453  28.593  57.390  1.00  0.00     0.252 C 
HETATM   24  O   UNL     1       6.471  29.229  57.761  1.00  0.00    -0.268 OA
HETATM   25  H   UNL     1       9.468  28.388  57.457  1.00  0.00     0.163 HD
BRANCH  23  26
HETATM   26  C   UNL     1       7.315  27.246  56.766  1.00  0.00     0.033 A 
HETATM   27  C   UNL     1       7.387  27.142  55.375  1.00  0.00     0.043 A 
HETATM   28  C   UNL     1       7.258  25.891  54.760  1.00  0.00     0.068 A 
HETATM   29 CL   UNL     1       7.346  25.833  53.035  1.00  0.00    -0.081 Cl
HETATM   30  C   UNL     1       7.052  24.728  55.521  1.00  0.00     0.091 A 
HETATM   31  C   UNL     1       7.016  24.837  56.913  1.00  0.00     0.039 A 
HETATM   32  C   UNL     1       7.150  26.086  57.533  1.00  0.00     0.020 A 
BRANCH  30  33
HETATM   33  O   UNL     1       6.931  23.552  54.833  1.00  0.00    -0.345 OA
BRANCH  33  34
HETATM   34  C   UNL     1       8.036  22.643  54.762  1.00  0.00     0.121 C 
HETATM   35  C   UNL     1       7.749  21.387  55.582  1.00  0.00     0.040 C 
HETATM   36  C   UNL     1       8.206  22.274  53.290  1.00  0.00     0.040 C 
ENDBRANCH  33  34
ENDBRANCH  30  33
ENDBRANCH  23  26
ENDBRANCH   1  22
BRANCH   1  37
HETATM   37  C   UNL     1      10.431  30.990  57.620  1.00  0.00     0.254 C 
BRANCH  37  38
HETATM   38  N   UNL     1      11.434  29.959  57.249  1.00  0.00    -0.077 N 
HETATM   39  H   UNL     1      12.381  30.274  57.554  1.00  0.00     0.274 HD
HETATM   40  H   UNL     1      11.278  29.058  57.713  1.00  0.00     0.274 HD
HETATM   41  H   UNL     1      11.492  29.805  56.237  1.00  0.00     0.274 HD
ENDBRANCH  37  38
ENDBRANCH   1  37
TORSDOF 11
ENDMDL
MODEL 4
REMARK VINA RESULT:      -9.7      3.293     12.621
REMARK  11 active torsions:
REMARK  status: ('A' for Active; 'I' for Inactive)
REMARK    1  A    between atoms: C_2  and  O_3 
REMARK    2  A    between atoms: C_2  and  C_4 
REMARK    3  A    between atoms: C_8  and  C_9 
REMARK    4  A    between atoms: C_12  and  C_13 
REMARK    5  A    between atoms: C_13  and  C_14 
REMARK    6  A    between atoms: C_14  and  N_15 
REMARK    7  A    between atoms: C_14  and  C_29 
REMARK       I    between atoms: N_15  and  C_16 
REMARK    8  A    between atoms: C_16  and  C_17 
REMARK    9  A    between atoms: C_21  and  O_22 
REMARK   10  A    between atoms: O_22  and  C_23 
REMARK   11  A    between atoms: C_29  and  N_30 
ROOT
HETATM    1  C   UNL     1       7.438  29.339  57.538  1.00  0.00     0.114 C 
ENDROOT
BRANCH   1   2
HETATM    2  C   UNL     1       8.574  29.740  58.508  1.00  0.00     0.065 C 
BRANCH   2   3
HETATM    3  C   UNL     1       8.169  30.584  59.686  1.00  0.00    -0.056 A 
HETATM    4  C   UNL     1       7.031  31.397  59.640  1.00  0.00     0.008 A 
HETATM    5  C   UNL     1       6.635  32.119  60.771  1.00  0.00     0.014 A 
HETATM    6  C   UNL     1       7.358  32.040  61.970  1.00  0.00    -0.006 A 
HETATM    7  C   UNL     1       8.512  31.248  61.999  1.00  0.00     0.014 A 
HETATM    8  C   UNL     1       8.912  30.524  60.872  1.00  0.00     0.008 A 
BRANCH   6   9
HETATM    9  C   UNL     1       6.879  32.744  63.152  1.00  0.00     0.085 A 
HETATM   10  C   UNL     1       7.568  32.905  64.336  1.00  0.00     0.130 A 
HETATM   11  N   UNL     1       6.716  33.576  65.175  1.00  0.00    -0.315 N 
HETATM   12  C   UNL     1       5.542  33.802  64.465  1.00  0.00     0.143 A 
HETATM   13  C   UNL     1       6.917  33.974  66.490  1.00  0.00     0.098 A 
HETATM   14  C   UNL     1       4.469  34.493  65.137  1.00  0.00     0.017 A 
HETATM   15  N   UNL     1       5.626  33.309  63.242  1.00  0.00    -0.228 NA
HETATM   16  C   UNL     1       4.689  34.883  66.418  1.00  0.00     0.015 A 
HETATM   17  C   UNL     1       5.931  34.621  67.128  1.00  0.00     0.018 A 
BRANCH  14  18
HETATM   18  C   UNL     1       3.153  34.791  64.433  1.00  0.00     0.150 C 
HETATM   19  C   UNL     1       3.311  35.902  63.399  1.00  0.00     0.044 C 
BRANCH  18  20
HETATM   20  O   UNL     1       2.653  33.625  63.773  1.00  0.00    -0.391 OA
HETATM   21  H   UNL     1       3.227  33.465  63.005  1.00  0.00     0.210 HD
ENDBRANCH  18  20
ENDBRANCH  14  18
ENDBRANCH   6   9
ENDBRANCH   2   3
ENDBRANCH   1   2
BRANCH   1  22
HETATM   22  N   UNL     1       7.796  28.008  56.988  1.00  0.00    -0.350 N 
HETATM   23  C   UNL     1       6.931  27.081  56.453  1.00  0.00     0.252 C 
HETATM   24  O   UNL     1       5.736  27.316  56.309  1.00  0.00    -0.268 OA
HETATM   25  H   UNL     1       8.677  27.627  57.324  1.00  0.00     0.163 HD
BRANCH  23  26
HETATM   26  C   UNL     1       7.518  25.772  56.048  1.00  0.00     0.033 A 
HETATM   27  C   UNL     1       7.491  25.415  54.698  1.00  0.00     0.043 A 
HETATM   28  C   UNL     1       8.032  24.191  54.287  1.00  0.00     0.068 A 
HETATM   29 CL   UNL     1       7.955  23.805  52.604  1.00  0.00    -0.081 Cl
HETATM   30  C   UNL     1       8.604  23.304  55.215  1.00  0.00     0.091 A 
HETATM   31  C   UNL     1       8.659  23.685  56.557  1.00  0.00     0.039 A 
HETATM   32  C   UNL     1       8.124  24.911  56.972  1.00  0.00     0.020 A 
BRANCH  30  33
HETATM   33  O   UNL     1       9.102  22.129  54.722  1.00  0.00    -0.345 OA
BRANCH  33  34
HETATM   34  C   UNL     1       8.237  21.001  54.544  1.00  0.00     0.121 C 
HETATM   35  C   UNL     1       8.481  20.348  53.186  1.00  0.00     0.040 C 
HETATM   36  C   UNL     1       8.571  20.014  55.661  1.00  0.00     0.040 C 
ENDBRANCH  33  34
ENDBRANCH  30  33
ENDBRANCH  23  26
ENDBRANCH   1  22
BRANCH   1  37
HETATM   37  C   UNL     1       7.223  30.441  56.460  1.00  0.00     0.254 C 
BRANCH  37  38
HETATM   38  N   UNL     1       5.842  30.418  55.913  1.00  0.00    -0.077 N 
HETATM   39  H   UNL     1       5.240  29.819  56.520  1.00  0.00     0.274 HD
HETATM   40  H   UNL     1       5.395  31.341  55.904  1.00  0.00     0.274 HD
HETATM   41  H   UNL     1       5.792  30.017  54.971  1.00  0.00     0.274 HD
ENDBRANCH  37  38
ENDBRANCH   1  37
TORSDOF 11
ENDMDL
MODEL 5
REMARK VINA RESULT:      -9.6      5.118      8.550
REMARK  11 active torsions:
REMARK  status: ('A' for Active; 'I' for Inactive)
REMARK    1  A    between atoms: C_2  and  O_3 
REMARK    2  A    between atoms: C_2  and  C_4 
REMARK    3  A    between atoms: C_8  and  C_9 
REMARK    4  A    between atoms: C_12  and  C_13 
REMARK    5  A    between atoms: C_13  and  C_14 
REMARK    6  A    between atoms: C_14  and  N_15 
REMARK    7  A    between atoms: C_14  and  C_29 
REMARK       I    between atoms: N_15  and  C_16 
REMARK    8  A    between atoms: C_16  and  C_17 
REMARK    9  A    between atoms: C_21  and  O_22 
REMARK   10  A    between atoms: O_22  and  C_23 
REMARK   11  A    between atoms: C_29  and  N_30 
ROOT
HETATM    1  C   UNL     1       7.317  23.093  55.556  1.00  0.00     0.114 C 
ENDROOT
BRANCH   1   2
HETATM    2  C   UNL     1       7.721  23.114  54.062  1.00  0.00     0.065 C 
BRANCH   2   3
HETATM    3  C   UNL     1       7.039  24.150  53.209  1.00  0.00    -0.056 A 
HETATM    4  C   UNL     1       7.771  25.143  52.549  1.00  0.00     0.008 A 
HETATM    5  C   UNL     1       7.124  26.052  51.704  1.00  0.00     0.014 A 
HETATM    6  C   UNL     1       5.739  25.985  51.496  1.00  0.00    -0.006 A 
HETATM    7  C   UNL     1       5.010  25.007  52.183  1.00  0.00     0.014 A 
HETATM    8  C   UNL     1       5.652  24.096  53.026  1.00  0.00     0.008 A 
BRANCH   6   9
HETATM    9  C   UNL     1       5.104  26.896  50.554  1.00  0.00     0.085 A 
HETATM   10  C   UNL     1       5.303  28.259  50.481  1.00  0.00     0.130 A 
HETATM   11  N   UNL     1       4.464  28.706  49.493  1.00  0.00    -0.315 N 
HETATM   12  C   UNL     1       3.791  27.596  48.998  1.00  0.00     0.143 A 
HETATM   13  C   UNL     1       4.268  30.003  49.032  1.00  0.00     0.098 A 
HETATM   14  C   UNL     1       2.830  27.803  47.942  1.00  0.00     0.017 A 
HETATM   15  N   UNL     1       4.168  26.496  49.626  1.00  0.00    -0.228 NA
HETATM   16  C   UNL     1       2.661  29.074  47.499  1.00  0.00     0.015 A 
HETATM   17  C   UNL     1       3.382  30.212  48.048  1.00  0.00     0.018 A 
BRANCH  14  18
HETATM   18  C   UNL     1       2.055  26.643  47.336  1.00  0.00     0.150 C 
HETATM   19  C   UNL     1       0.848  27.131  46.541  1.00  0.00     0.044 C 
BRANCH  18  20
HETATM   20  O   UNL     1       2.888  25.872  46.467  1.00  0.00    -0.391 OA
HETATM   21  H   UNL     1       3.081  25.036  46.924  1.00  0.00     0.210 HD
ENDBRANCH  18  20
ENDBRANCH  14  18
ENDBRANCH   6   9
ENDBRANCH   2   3
ENDBRANCH   1   2
BRANCH   1  22
HETATM   22  N   UNL     1       7.471  24.480  56.059  1.00  0.00    -0.350 N 
HETATM   23  C   UNL     1       6.472  25.291  56.547  1.00  0.00     0.252 C 
HETATM   24  O   UNL     1       5.320  24.892  56.684  1.00  0.00    -0.268 OA
HETATM   25  H   UNL     1       8.294  24.971  55.720  1.00  0.00     0.163 HD
BRANCH  23  26
HETATM   26  C   UNL     1       6.858  26.685  56.909  1.00  0.00     0.033 A 
HETATM   27  C   UNL     1       5.850  27.638  57.073  1.00  0.00     0.043 A 
HETATM   28  C   UNL     1       6.181  28.956  57.410  1.00  0.00     0.068 A 
HETATM   29 CL   UNL     1       4.887  30.088  57.586  1.00  0.00    -0.081 Cl
HETATM   30  C   UNL     1       7.520  29.343  57.587  1.00  0.00     0.091 A 
HETATM   31  C   UNL     1       8.519  28.376  57.456  1.00  0.00     0.039 A 
HETATM   32  C   UNL     1       8.192  27.055  57.124  1.00  0.00     0.020 A 
BRANCH  30  33
HETATM   33  O   UNL     1       7.748  30.653  57.909  1.00  0.00    -0.345 OA
BRANCH  33  34
HETATM   34  C   UNL     1       8.313  30.993  59.181  1.00  0.00     0.121 C 
HETATM   35  C   UNL     1       9.660  31.688  58.999  1.00  0.00     0.040 C 
HETATM   36  C   UNL     1       7.327  31.941  59.859  1.00  0.00     0.040 C 
ENDBRANCH  33  34
ENDBRANCH  30  33
ENDBRANCH  23  26
ENDBRANCH   1  22
BRANCH   1  37
HETATM   37  C   UNL     1       8.151  22.033  56.333  1.00  0.00     0.254 C 
BRANCH  37  38
HETATM   38  N   UNL     1       8.358  22.423  57.752  1.00  0.00    -0.077 N 
HETATM   39  H   UNL     1       8.060  23.414  57.884  1.00  0.00     0.274 HD
HETATM   40  H   UNL     1       7.793  21.874  58.408  1.00  0.00     0.274 HD
HETATM   41  H   UNL     1       9.340  22.375  58.039  1.00  0.00     0.274 HD
ENDBRANCH  37  38
ENDBRANCH   1  37
TORSDOF 11
ENDMDL
MODEL 6
REMARK VINA RESULT:      -9.5      3.435     12.160
REMARK  11 active torsions:
REMARK  status: ('A' for Active; 'I' for Inactive)
REMARK    1  A    between atoms: C_2  and  O_3 
REMARK    2  A    between atoms: C_2  and  C_4 
REMARK    3  A    between atoms: C_8  and  C_9 
REMARK    4  A    between atoms: C_12  and  C_13 
REMARK    5  A    between atoms: C_13  and  C_14 
REMARK    6  A    between atoms: C_14  and  N_15 
REMARK    7  A    between atoms: C_14  and  C_29 
REMARK       I    between atoms: N_15  and  C_16 
REMARK    8  A    between atoms: C_16  and  C_17 
REMARK    9  A    between atoms: C_21  and  O_22 
REMARK   10  A    between atoms: O_22  and  C_23 
REMARK   11  A    between atoms: C_29  and  N_30 
ROOT
HETATM    1  C   UNL     1       5.499  28.695  55.778  1.00  0.00     0.114 C 
ENDROOT
BRANCH   1   2
HETATM    2  C   UNL     1       6.575  29.793  55.946  1.00  0.00     0.065 C 
BRANCH   2   3
HETATM    3  C   UNL     1       6.584  30.512  57.268  1.00  0.00    -0.056 A 
HETATM    4  C   UNL     1       5.524  31.341  57.652  1.00  0.00     0.008 A 
HETATM    5  C   UNL     1       5.521  31.943  58.915  1.00  0.00     0.014 A 
HETATM    6  C   UNL     1       6.569  31.727  59.821  1.00  0.00    -0.006 A 
HETATM    7  C   UNL     1       7.640  30.920  59.419  1.00  0.00     0.014 A 
HETATM    8  C   UNL     1       7.647  30.316  58.159  1.00  0.00     0.008 A 
BRANCH   6   9
HETATM    9  C   UNL     1       6.502  32.305  61.156  1.00  0.00     0.085 A 
HETATM   10  C   UNL     1       7.532  32.357  62.072  1.00  0.00     0.130 A 
HETATM   11  N   UNL     1       7.003  32.934  63.197  1.00  0.00    -0.315 N 
HETATM   12  C   UNL     1       5.671  33.217  62.920  1.00  0.00     0.143 A 
HETATM   13  C   UNL     1       7.618  33.203  64.414  1.00  0.00     0.098 A 
HETATM   14  C   UNL     1       4.879  33.828  63.959  1.00  0.00     0.017 A 
HETATM   15  N   UNL     1       5.355  32.847  61.692  1.00  0.00    -0.228 NA
HETATM   16  C   UNL     1       5.501  34.093  65.137  1.00  0.00     0.015 A 
HETATM   17  C   UNL     1       6.897  33.775  65.390  1.00  0.00     0.018 A 
BRANCH  14  18
HETATM   18  C   UNL     1       3.416  34.180  63.739  1.00  0.00     0.150 C 
HETATM   19  C   UNL     1       3.265  35.490  62.973  1.00  0.00     0.044 C 
BRANCH  18  20
HETATM   20  O   UNL     1       2.748  33.148  63.009  1.00  0.00    -0.391 OA
HETATM   21  H   UNL     1       3.247  33.013  62.186  1.00  0.00     0.210 HD
ENDBRANCH  18  20
ENDBRANCH  14  18
ENDBRANCH   6   9
ENDBRANCH   2   3
ENDBRANCH   1   2
BRANCH   1  22
HETATM   22  N   UNL     1       6.223  27.413  55.592  1.00  0.00    -0.350 N 
HETATM   23  C   UNL     1       6.005  26.240  56.277  1.00  0.00     0.252 C 
HETATM   24  O   UNL     1       5.095  26.124  57.092  1.00  0.00    -0.268 OA
HETATM   25  H   UNL     1       7.145  27.498  55.171  1.00  0.00     0.163 HD
BRANCH  23  26
HETATM   26  C   UNL     1       6.925  25.106  55.976  1.00  0.00     0.033 A 
HETATM   27  C   UNL     1       7.034  24.664  54.656  1.00  0.00     0.043 A 
HETATM   28  C   UNL     1       7.889  23.600  54.343  1.00  0.00     0.068 A 
HETATM   29 CL   UNL     1       7.968  23.095  52.692  1.00  0.00    -0.081 Cl
HETATM   30  C   UNL     1       8.644  22.960  55.340  1.00  0.00     0.091 A 
HETATM   31  C   UNL     1       8.555  23.432  56.652  1.00  0.00     0.039 A 
HETATM   32  C   UNL     1       7.706  24.500  56.969  1.00  0.00     0.020 A 
BRANCH  30  33
HETATM   33  O   UNL     1       9.446  21.927  54.942  1.00  0.00    -0.345 OA
BRANCH  33  34
HETATM   34  C   UNL     1       9.018  20.572  55.126  1.00  0.00     0.121 C 
HETATM   35  C   UNL     1       7.721  20.525  55.930  1.00  0.00     0.040 C 
HETATM   36  C   UNL     1       8.786  19.992  53.733  1.00  0.00     0.040 C 
ENDBRANCH  33  34
ENDBRANCH  30  33
ENDBRANCH  23  26
ENDBRANCH   1  22
BRANCH   1  37
HETATM   37  C   UNL     1       4.524  29.055  54.620  1.00  0.00     0.254 C 
BRANCH  37  38
HETATM   38  N   UNL     1       3.853  27.850  54.066  1.00  0.00    -0.077 N 
HETATM   39  H   UNL     1       4.420  27.004  54.293  1.00  0.00     0.274 HD
HETATM   40  H   UNL     1       2.927  27.681  54.473  1.00  0.00     0.274 HD
HETATM   41  H   UNL     1       3.767  27.875  53.045  1.00  0.00     0.274 HD
ENDBRANCH  37  38
ENDBRANCH   1  37
TORSDOF 11
ENDMDL
MODEL 7
REMARK VINA RESULT:      -9.4      2.461      2.868
REMARK  11 active torsions:
REMARK  status: ('A' for Active; 'I' for Inactive)
REMARK    1  A    between atoms: C_2  and  O_3 
REMARK    2  A    between atoms: C_2  and  C_4 
REMARK    3  A    between atoms: C_8  and  C_9 
REMARK    4  A    between atoms: C_12  and  C_13 
REMARK    5  A    between atoms: C_13  and  C_14 
REMARK    6  A    between atoms: C_14  and  N_15 
REMARK    7  A    between atoms: C_14  and  C_29 
REMARK       I    between atoms: N_15  and  C_16 
REMARK    8  A    between atoms: C_16  and  C_17 
REMARK    9  A    between atoms: C_21  and  O_22 
REMARK   10  A    between atoms: O_22  and  C_23 
REMARK   11  A    between atoms: C_29  and  N_30 
ROOT
HETATM    1  C   UNL     1       4.948  31.922  56.821  1.00  0.00     0.114 C 
ENDROOT
BRANCH   1   2
HETATM    2  C   UNL     1       3.892  30.833  56.517  1.00  0.00     0.065 C 
BRANCH   2   3
HETATM    3  C   UNL     1       4.429  29.487  56.111  1.00  0.00    -0.056 A 
HETATM    4  C   UNL     1       4.228  28.984  54.821  1.00  0.00     0.008 A 
HETATM    5  C   UNL     1       4.797  27.762  54.444  1.00  0.00     0.014 A 
HETATM    6  C   UNL     1       5.581  27.023  55.340  1.00  0.00    -0.006 A 
HETATM    7  C   UNL     1       5.754  27.519  56.638  1.00  0.00     0.014 A 
HETATM    8  C   UNL     1       5.188  28.739  57.019  1.00  0.00     0.008 A 
BRANCH   6   9
HETATM    9  C   UNL     1       6.223  25.793  54.897  1.00  0.00     0.085 A 
HETATM   10  C   UNL     1       6.475  25.433  53.590  1.00  0.00     0.130 A 
HETATM   11  N   UNL     1       7.036  24.183  53.648  1.00  0.00    -0.315 N 
HETATM   12  C   UNL     1       7.108  23.833  54.991  1.00  0.00     0.143 A 
HETATM   13  C   UNL     1       7.461  23.366  52.608  1.00  0.00     0.098 A 
HETATM   14  C   UNL     1       7.659  22.543  55.324  1.00  0.00     0.017 A 
HETATM   15  N   UNL     1       6.625  24.795  55.757  1.00  0.00    -0.228 NA
HETATM   16  C   UNL     1       8.079  21.764  54.295  1.00  0.00     0.015 A 
HETATM   17  C   UNL     1       7.980  22.165  52.901  1.00  0.00     0.018 A 
BRANCH  14  18
HETATM   18  C   UNL     1       7.785  22.082  56.769  1.00  0.00     0.150 C 
HETATM   19  C   UNL     1       8.657  20.835  56.885  1.00  0.00     0.044 C 
BRANCH  18  20
HETATM   20  O   UNL     1       8.353  23.110  57.584  1.00  0.00    -0.391 OA
HETATM   21  H   UNL     1       9.318  23.008  57.539  1.00  0.00     0.210 HD
ENDBRANCH  18  20
ENDBRANCH  14  18
ENDBRANCH   6   9
ENDBRANCH   2   3
ENDBRANCH   1   2
BRANCH   1  22
HETATM   22  N   UNL     1       4.890  32.177  58.281  1.00  0.00    -0.350 N 
HETATM   23  C   UNL     1       5.962  32.302  59.135  1.00  0.00     0.252 C 
HETATM   24  O   UNL     1       7.120  32.288  58.729  1.00  0.00    -0.268 OA
HETATM   25  H   UNL     1       4.015  31.917  58.729  1.00  0.00     0.163 HD
BRANCH  23  26
HETATM   26  C   UNL     1       5.650  32.465  60.584  1.00  0.00     0.033 A 
HETATM   27  C   UNL     1       6.709  32.569  61.489  1.00  0.00     0.043 A 
HETATM   28  C   UNL     1       6.447  32.719  62.856  1.00  0.00     0.068 A 
HETATM   29 CL   UNL     1       7.802  32.830  63.924  1.00  0.00    -0.081 Cl
HETATM   30  C   UNL     1       5.129  32.766  63.340  1.00  0.00     0.091 A 
HETATM   31  C   UNL     1       4.077  32.696  62.424  1.00  0.00     0.039 A 
HETATM   32  C   UNL     1       4.334  32.551  61.055  1.00  0.00     0.020 A 
BRANCH  30  33
HETATM   33  O   UNL     1       4.971  32.908  64.691  1.00  0.00    -0.345 OA
BRANCH  33  34
HETATM   34  C   UNL     1       4.904  34.216  65.274  1.00  0.00     0.121 C 
HETATM   35  C   UNL     1       3.454  34.682  65.378  1.00  0.00     0.040 C 
HETATM   36  C   UNL     1       5.515  34.105  66.669  1.00  0.00     0.040 C 
ENDBRANCH  33  34
ENDBRANCH  30  33
ENDBRANCH  23  26
ENDBRANCH   1  22
BRANCH   1  37
HETATM   37  C   UNL     1       4.703  33.182  55.940  1.00  0.00     0.254 C 
BRANCH  37  38
HETATM   38  N   UNL     1       4.991  32.920  54.506  1.00  0.00    -0.077 N 
HETATM   39  H   UNL     1       5.534  32.033  54.420  1.00  0.00     0.274 HD
HETATM   40  H   UNL     1       4.145  32.783  53.943  1.00  0.00     0.274 HD
HETATM   41  H   UNL     1       5.562  33.652  54.073  1.00  0.00     0.274 HD
ENDBRANCH  37  38
ENDBRANCH   1  37
TORSDOF 11
ENDMDL
MODEL 8
REMARK VINA RESULT:      -9.2      3.293     12.269
REMARK  11 active torsions:
REMARK  status: ('A' for Active; 'I' for Inactive)
REMARK    1  A    between atoms: C_2  and  O_3 
REMARK    2  A    between atoms: C_2  and  C_4 
REMARK    3  A    between atoms: C_8  and  C_9 
REMARK    4  A    between atoms: C_12  and  C_13 
REMARK    5  A    between atoms: C_13  and  C_14 
REMARK    6  A    between atoms: C_14  and  N_15 
REMARK    7  A    between atoms: C_14  and  C_29 
REMARK       I    between atoms: N_15  and  C_16 
REMARK    8  A    between atoms: C_16  and  C_17 
REMARK    9  A    between atoms: C_21  and  O_22 
REMARK   10  A    between atoms: O_22  and  C_23 
REMARK   11  A    between atoms: C_29  and  N_30 
ROOT
HETATM    1  C   UNL     1       4.637  28.691  54.993  1.00  0.00     0.114 C 
ENDROOT
BRANCH   1   2
HETATM    2  C   UNL     1       5.586  29.911  54.949  1.00  0.00     0.065 C 
BRANCH   2   3
HETATM    3  C   UNL     1       5.881  30.566  56.272  1.00  0.00    -0.056 A 
HETATM    4  C   UNL     1       5.037  31.549  56.799  1.00  0.00     0.008 A 
HETATM    5  C   UNL     1       5.292  32.094  58.063  1.00  0.00     0.014 A 
HETATM    6  C   UNL     1       6.387  31.666  58.827  1.00  0.00    -0.006 A 
HETATM    7  C   UNL     1       7.244  30.703  58.279  1.00  0.00     0.014 A 
HETATM    8  C   UNL     1       6.993  30.156  57.018  1.00  0.00     0.008 A 
BRANCH   6   9
HETATM    9  C   UNL     1       6.585  32.195  60.169  1.00  0.00     0.085 A 
HETATM   10  C   UNL     1       7.476  31.718  61.108  1.00  0.00     0.130 A 
HETATM   11  N   UNL     1       7.279  32.480  62.231  1.00  0.00    -0.315 N 
HETATM   12  C   UNL     1       6.279  33.397  61.928  1.00  0.00     0.143 A 
HETATM   13  C   UNL     1       7.912  32.399  63.465  1.00  0.00     0.098 A 
HETATM   14  C   UNL     1       5.875  34.321  62.959  1.00  0.00     0.017 A 
HETATM   15  N   UNL     1       5.853  33.240  60.687  1.00  0.00    -0.228 NA
HETATM   16  C   UNL     1       6.512  34.233  64.155  1.00  0.00     0.015 A 
HETATM   17  C   UNL     1       7.551  33.254  64.433  1.00  0.00     0.018 A 
BRANCH  14  18
HETATM   18  C   UNL     1       4.795  35.364  62.713  1.00  0.00     0.150 C 
HETATM   19  C   UNL     1       4.818  36.456  63.778  1.00  0.00     0.044 C 
BRANCH  18  20
HETATM   20  O   UNL     1       4.962  35.976  61.432  1.00  0.00    -0.391 OA
HETATM   21  H   UNL     1       5.904  36.200  61.343  1.00  0.00     0.210 HD
ENDBRANCH  18  20
ENDBRANCH  14  18
ENDBRANCH   6   9
ENDBRANCH   2   3
ENDBRANCH   1   2
BRANCH   1  22
HETATM   22  N   UNL     1       5.491  27.482  54.889  1.00  0.00    -0.350 N 
HETATM   23  C   UNL     1       6.339  27.163  53.853  1.00  0.00     0.252 C 
HETATM   24  O   UNL     1       6.528  27.926  52.911  1.00  0.00    -0.268 OA
HETATM   25  H   UNL     1       5.188  26.691  55.452  1.00  0.00     0.163 HD
BRANCH  23  26
HETATM   26  C   UNL     1       7.027  25.843  53.931  1.00  0.00     0.033 A 
HETATM   27  C   UNL     1       7.345  25.327  55.189  1.00  0.00     0.043 A 
HETATM   28  C   UNL     1       7.993  24.090  55.294  1.00  0.00     0.068 A 
HETATM   29 CL   UNL     1       8.369  23.515  56.880  1.00  0.00    -0.081 Cl
HETATM   30  C   UNL     1       8.336  23.353  54.149  1.00  0.00     0.091 A 
HETATM   31  C   UNL     1       7.982  23.860  52.896  1.00  0.00     0.039 A 
HETATM   32  C   UNL     1       7.329  25.094  52.786  1.00  0.00     0.020 A 
BRANCH  30  33
HETATM   33  O   UNL     1       8.973  22.159  54.349  1.00  0.00    -0.345 OA
BRANCH  33  34
HETATM   34  C   UNL     1       8.251  20.928  54.220  1.00  0.00     0.121 C 
HETATM   35  C   UNL     1       8.510  20.297  52.854  1.00  0.00     0.040 C 
HETATM   36  C   UNL     1       8.762  20.004  55.323  1.00  0.00     0.040 C 
ENDBRANCH  33  34
ENDBRANCH  30  33
ENDBRANCH  23  26
ENDBRANCH   1  22
BRANCH   1  37
HETATM   37  C   UNL     1       3.548  28.804  53.887  1.00  0.00     0.254 C 
BRANCH  37  38
HETATM   38  N   UNL     1       3.342  27.514  53.179  1.00  0.00    -0.077 N 
HETATM   39  H   UNL     1       2.370  27.175  53.354  1.00  0.00     0.274 HD
HETATM   40  H   UNL     1       3.428  27.593  52.160  1.00  0.00     0.274 HD
HETATM   41  H   UNL     1       3.970  26.773  53.508  1.00  0.00     0.274 HD
ENDBRANCH  37  38
ENDBRANCH   1  37
TORSDOF 11
ENDMDL
MODEL 9
REMARK VINA RESULT:      -9.1      4.336     10.614
REMARK  11 active torsions:
REMARK  status: ('A' for Active; 'I' for Inactive)
REMARK    1  A    between atoms: C_2  and  O_3 
REMARK    2  A    between atoms: C_2  and  C_4 
REMARK    3  A    between atoms: C_8  and  C_9 
REMARK    4  A    between atoms: C_12  and  C_13 
REMARK    5  A    between atoms: C_13  and  C_14 
REMARK    6  A    between atoms: C_14  and  N_15 
REMARK    7  A    between atoms: C_14  and  C_29 
REMARK       I    between atoms: N_15  and  C_16 
REMARK    8  A    between atoms: C_16  and  C_17 
REMARK    9  A    between atoms: C_21  and  O_22 
REMARK   10  A    between atoms: O_22  and  C_23 
REMARK   11  A    between atoms: C_29  and  N_30 
ROOT
HETATM    1  C   UNL     1       7.995  22.230  54.183  1.00  0.00     0.114 C 
ENDROOT
BRANCH   1   2
HETATM    2  C   UNL     1       7.995  22.338  55.726  1.00  0.00     0.065 C 
BRANCH   2   3
HETATM    3  C   UNL     1       7.768  23.715  56.291  1.00  0.00    -0.056 A 
HETATM    4  C   UNL     1       8.837  24.584  56.535  1.00  0.00     0.008 A 
HETATM    5  C   UNL     1       8.597  25.885  56.994  1.00  0.00     0.014 A 
HETATM    6  C   UNL     1       7.291  26.345  57.211  1.00  0.00    -0.006 A 
HETATM    7  C   UNL     1       6.229  25.460  56.992  1.00  0.00     0.014 A 
HETATM    8  C   UNL     1       6.463  24.161  56.534  1.00  0.00     0.008 A 
BRANCH   6   9
HETATM    9  C   UNL     1       7.068  27.727  57.616  1.00  0.00     0.085 A 
HETATM   10  C   UNL     1       6.038  28.541  57.196  1.00  0.00     0.130 A 
HETATM   11  N   UNL     1       6.259  29.758  57.786  1.00  0.00    -0.315 N 
HETATM   12  C   UNL     1       7.414  29.635  58.549  1.00  0.00     0.143 A 
HETATM   13  C   UNL     1       5.520  30.930  57.678  1.00  0.00     0.098 A 
HETATM   14  C   UNL     1       7.873  30.795  59.273  1.00  0.00     0.017 A 
HETATM   15  N   UNL     1       7.912  28.414  58.460  1.00  0.00    -0.228 NA
HETATM   16  C   UNL     1       7.131  31.927  59.164  1.00  0.00     0.015 A 
HETATM   17  C   UNL     1       5.930  32.017  58.349  1.00  0.00     0.018 A 
BRANCH  14  18
HETATM   18  C   UNL     1       9.122  30.747  60.140  1.00  0.00     0.150 C 
HETATM   19  C   UNL     1       9.629  32.148  60.469  1.00  0.00     0.044 C 
BRANCH  18  20
HETATM   20  O   UNL     1       8.865  30.059  61.366  1.00  0.00    -0.391 OA
HETATM   21  H   UNL     1       8.032  29.573  61.251  1.00  0.00     0.210 HD
ENDBRANCH  18  20
ENDBRANCH  14  18
ENDBRANCH   6   9
ENDBRANCH   2   3
ENDBRANCH   1   2
BRANCH   1  22
HETATM   22  N   UNL     1       7.177  23.358  53.676  1.00  0.00    -0.350 N 
HETATM   23  C   UNL     1       7.594  24.357  52.825  1.00  0.00     0.252 C 
HETATM   24  O   UNL     1       8.715  24.360  52.328  1.00  0.00    -0.268 OA
HETATM   25  H   UNL     1       6.366  23.591  54.244  1.00  0.00     0.163 HD
BRANCH  23  26
HETATM   26  C   UNL     1       6.611  25.439  52.529  1.00  0.00     0.033 A 
HETATM   27  C   UNL     1       6.077  25.524  51.241  1.00  0.00     0.043 A 
HETATM   28  C   UNL     1       5.155  26.531  50.932  1.00  0.00     0.068 A 
HETATM   29 CL   UNL     1       4.541  26.587  49.317  1.00  0.00    -0.081 Cl
HETATM   30  C   UNL     1       4.754  27.467  51.899  1.00  0.00     0.091 A 
HETATM   31  C   UNL     1       5.266  27.353  53.193  1.00  0.00     0.039 A 
HETATM   32  C   UNL     1       6.186  26.344  53.509  1.00  0.00     0.020 A 
BRANCH  30  33
HETATM   33  O   UNL     1       3.854  28.418  51.503  1.00  0.00    -0.345 OA
BRANCH  33  34
HETATM   34  C   UNL     1       4.162  29.809  51.657  1.00  0.00     0.121 C 
HETATM   35  C   UNL     1       5.271  30.221  50.691  1.00  0.00     0.040 C 
HETATM   36  C   UNL     1       2.883  30.579  51.336  1.00  0.00     0.040 C 
ENDBRANCH  33  34
ENDBRANCH  30  33
ENDBRANCH  23  26
ENDBRANCH   1  22
BRANCH   1  37
HETATM   37  C   UNL     1       7.498  20.825  53.733  1.00  0.00     0.254 C 
BRANCH  37  38
HETATM   38  N   UNL     1       8.242  20.329  52.546  1.00  0.00    -0.077 N 
HETATM   39  H   UNL     1       9.200  20.035  52.837  1.00  0.00     0.274 HD
HETATM   40  H   UNL     1       7.815  19.499  52.119  1.00  0.00     0.274 HD
HETATM   41  H   UNL     1       8.366  21.046  51.824  1.00  0.00     0.274 HD
ENDBRANCH  37  38
ENDBRANCH   1  37
TORSDOF 11
ENDMDL
MODEL 10
REMARK VINA RESULT:      -9.1      3.839     11.356
REMARK  11 active torsions:
REMARK  status: ('A' for Active; 'I' for Inactive)
REMARK    1  A    between atoms: C_2  and  O_3 
REMARK    2  A    between atoms: C_2  and  C_4 
REMARK    3  A    between atoms: C_8  and  C_9 
REMARK    4  A    between atoms: C_12  and  C_13 
REMARK    5  A    between atoms: C_13  and  C_14 
REMARK    6  A    between atoms: C_14  and  N_15 
REMARK    7  A    between atoms: C_14  and  C_29 
REMARK       I    between atoms: N_15  and  C_16 
REMARK    8  A    between atoms: C_16  and  C_17 
REMARK    9  A    between atoms: C_21  and  O_22 
REMARK   10  A    between atoms: O_22  and  C_23 
REMARK   11  A    between atoms: C_29  and  N_30 
ROOT
HETATM    1  C   UNL     1       4.388  28.701  51.491  1.00  0.00     0.114 C 
ENDROOT
BRANCH   1   2
HETATM    2  C   UNL     1       3.337  29.116  52.549  1.00  0.00     0.065 C 
BRANCH   2   3
HETATM    3  C   UNL     1       3.880  29.715  53.819  1.00  0.00    -0.056 A 
HETATM    4  C   UNL     1       3.826  31.093  54.052  1.00  0.00     0.008 A 
HETATM    5  C   UNL     1       4.272  31.620  55.270  1.00  0.00     0.014 A 
HETATM    6  C   UNL     1       4.772  30.784  56.279  1.00  0.00    -0.006 A 
HETATM    7  C   UNL     1       4.849  29.410  56.026  1.00  0.00     0.014 A 
HETATM    8  C   UNL     1       4.405  28.879  54.812  1.00  0.00     0.008 A 
BRANCH   6   9
HETATM    9  C   UNL     1       5.159  31.352  57.564  1.00  0.00     0.085 A 
HETATM   10  C   UNL     1       4.415  32.234  58.319  1.00  0.00     0.130 A 
HETATM   11  N   UNL     1       5.189  32.536  59.410  1.00  0.00    -0.315 N 
HETATM   12  C   UNL     1       6.373  31.820  59.277  1.00  0.00     0.143 A 
HETATM   13  C   UNL     1       4.912  33.390  60.470  1.00  0.00     0.098 A 
HETATM   14  C   UNL     1       7.374  31.973  60.305  1.00  0.00     0.017 A 
HETATM   15  N   UNL     1       6.369  31.098  58.171  1.00  0.00    -0.228 NA
HETATM   16  C   UNL     1       7.079  32.803  61.338  1.00  0.00     0.015 A 
HETATM   17  C   UNL     1       5.829  33.540  61.436  1.00  0.00     0.018 A 
BRANCH  14  18
HETATM   18  C   UNL     1       8.694  31.221  60.246  1.00  0.00     0.150 C 
HETATM   19  C   UNL     1       9.454  31.319  61.565  1.00  0.00     0.044 C 
BRANCH  18  20
HETATM   20  O   UNL     1       8.481  29.839  59.947  1.00  0.00    -0.391 OA
HETATM   21  H   UNL     1       8.219  29.787  59.013  1.00  0.00     0.210 HD
ENDBRANCH  18  20
ENDBRANCH  14  18
ENDBRANCH   6   9
ENDBRANCH   2   3
ENDBRANCH   1   2
BRANCH   1  22
HETATM   22  N   UNL     1       5.220  27.641  52.111  1.00  0.00    -0.350 N 
HETATM   23  C   UNL     1       5.493  26.399  51.584  1.00  0.00     0.252 C 
HETATM   24  O   UNL     1       5.113  26.071  50.464  1.00  0.00    -0.268 OA
HETATM   25  H   UNL     1       5.322  27.709  53.120  1.00  0.00     0.163 HD
BRANCH  23  26
HETATM   26  C   UNL     1       6.282  25.466  52.438  1.00  0.00     0.033 A 
HETATM   27  C   UNL     1       5.988  25.396  53.802  1.00  0.00     0.043 A 
HETATM   28  C   UNL     1       6.714  24.531  54.630  1.00  0.00     0.068 A 
HETATM   29 CL   UNL     1       6.307  24.501  56.310  1.00  0.00    -0.081 Cl
HETATM   30  C   UNL     1       7.744  23.728  54.113  1.00  0.00     0.091 A 
HETATM   31  C   UNL     1       8.008  23.779  52.742  1.00  0.00     0.039 A 
HETATM   32  C   UNL     1       7.281  24.639  51.908  1.00  0.00     0.020 A 
BRANCH  30  33
HETATM   33  O   UNL     1       8.402  22.920  54.998  1.00  0.00    -0.345 OA
BRANCH  33  34
HETATM   34  C   UNL     1       7.921  21.596  55.258  1.00  0.00     0.121 C 
HETATM   35  C   UNL     1       8.498  20.609  54.247  1.00  0.00     0.040 C 
HETATM   36  C   UNL     1       8.388  21.229  56.665  1.00  0.00     0.040 C 
ENDBRANCH  33  34
ENDBRANCH  30  33
ENDBRANCH  23  26
ENDBRANCH   1  22
BRANCH   1  37
HETATM   37  C   UNL     1       5.190  29.941  51.001  1.00  0.00     0.254 C 
BRANCH  37  38
HETATM   38  N   UNL     1       5.801  29.712  49.665  1.00  0.00    -0.077 N 
HETATM   39  H   UNL     1       6.738  30.170  49.632  1.00  0.00     0.274 HD
HETATM   40  H   UNL     1       5.968  28.721  49.462  1.00  0.00     0.274 HD
HETATM   41  H   UNL     1       5.253  30.119  48.901  1.00  0.00     0.274 HD
ENDBRANCH  37  38
ENDBRANCH   1  37
TORSDOF 11
ENDMDL
