MODEL 1
REMARK VINA RESULT:      -9.7      0.000      0.000
REMARK  6 active torsions:
REMARK  status: ('A' for Active; 'I' for Inactive)
REMARK    1  A    between atoms: C_2  and  O_3 
REMARK    2  A    between atoms: O_3  and  C_4 
REMARK    3  A    between atoms: C_4  and  C_5 
REMARK    4  A    between atoms: C_10  and  N_11 
REMARK       I    between atoms: N_11  and  C_12 
REMARK    5  A    between atoms: C_12  and  C_13 
REMARK    6  A    between atoms: C_13  and  N_14 
ROOT
HETATM    1  N   UNL     1       7.008  25.300  53.985  1.00  0.00    -0.322 N 
HETATM    2  C   UNL     1       5.831  25.371  53.270  1.00  0.00     0.253 C 
HETATM    3  O   UNL     1       4.825  24.695  53.470  1.00  0.00    -0.271 OA
HETATM    4  H   UNL     1       7.544  26.156  54.134  1.00  0.00     0.169 HD
ENDROOT
BRANCH   2   5
HETATM    5  C   UNL     1       5.836  26.471  52.184  1.00  0.00     0.275 C 
HETATM    6  C   UNL     1       5.091  25.995  50.946  1.00  0.00     0.050 C 
BRANCH   5   7
HETATM    7  N   UNL     1       5.308  27.840  52.696  1.00  0.00    -0.058 N 
HETATM    8  H   UNL     1       5.715  27.835  53.644  1.00  0.00     0.281 HD
HETATM    9  C   UNL     1       5.970  29.038  52.046  1.00  0.00     0.246 C 
HETATM   10  C   UNL     1       5.010  30.009  51.348  1.00  0.00     0.062 C 
HETATM   11  C   UNL     1       3.864  30.331  52.292  1.00  0.00     0.020 C 
HETATM   12  C   UNL     1       4.530  29.458  50.017  1.00  0.00     0.020 A 
HETATM   13  C   UNL     1       3.038  29.068  52.448  1.00  0.00     0.031 C 
HETATM   14  C   UNL     1       2.419  28.705  51.099  1.00  0.00     0.138 C 
HETATM   15  C   UNL     1       3.825  27.897  53.041  1.00  0.00     0.242 C 
HETATM   16  N   UNL     1       3.335  28.738  49.967  1.00  0.00    -0.317 N 
HETATM   17  C   UNL     1       2.843  28.182  48.777  1.00  0.00     0.247 A 
HETATM   18  O   UNL     1       1.792  27.552  48.697  1.00  0.00    -0.268 OA
HETATM   19  C   UNL     1       3.674  28.373  47.565  1.00  0.00     0.074 A 
HETATM   20  C   UNL     1       4.809  29.077  47.639  1.00  0.00     0.007 A 
HETATM   21  C   UNL     1       5.246  29.637  48.891  1.00  0.00     0.026 A 
ENDBRANCH   5   7
ENDBRANCH   2   5
BRANCH   1  22
HETATM   22  C   UNL     1       7.357  24.260  54.839  1.00  0.00     0.080 A 
HETATM   23  C   UNL     1       7.529  24.468  56.198  1.00  0.00     0.137 A 
HETATM   24  N   UNL     1       7.901  23.264  56.747  1.00  0.00    -0.349 N 
HETATM   25  H   UNL     1       8.084  23.118  57.731  1.00  0.00     0.166 HD
HETATM   26  C   UNL     1       8.023  22.301  55.773  1.00  0.00     0.045 A 
HETATM   27  C   UNL     1       7.669  22.893  54.557  1.00  0.00     0.023 A 
HETATM   28  C   UNL     1       8.432  20.966  55.886  1.00  0.00     0.033 A 
HETATM   29  C   UNL     1       7.752  22.104  53.391  1.00  0.00     0.058 A 
HETATM   30  C   UNL     1       8.163  20.775  53.494  1.00  0.00     0.117 A 
HETATM   31  C   UNL     1       8.498  20.208  54.715  1.00  0.00     0.044 A 
HETATM   32  F   UNL     1       8.248  20.034  52.382  1.00  0.00    -0.206 F 
BRANCH  23  33
HETATM   33  C   UNL     1       7.318  25.685  56.942  1.00  0.00     0.312 C 
HETATM   34  O   UNL     1       8.096  26.107  57.791  1.00  0.00    -0.258 OA
BRANCH  33  35
HETATM   35  O   UNL     1       6.169  26.288  56.535  1.00  0.00    -0.317 OA
BRANCH  35  36
HETATM   36  C   UNL     1       6.001  27.654  56.945  1.00  0.00     0.175 C 
HETATM   37  C   UNL     1       6.556  28.589  55.884  1.00  0.00     0.034 C 
ENDBRANCH  35  36
ENDBRANCH  33  35
ENDBRANCH  23  33
ENDBRANCH   1  22
TORSDOF 6
ENDMDL
MODEL 2
REMARK VINA RESULT:      -9.1      1.466      2.414
REMARK  6 active torsions:
REMARK  status: ('A' for Active; 'I' for Inactive)
REMARK    1  A    between atoms: C_2  and  O_3 
REMARK    2  A    between atoms: O_3  and  C_4 
REMARK    3  A    between atoms: C_4  and  C_5 
REMARK    4  A    between atoms: C_10  and  N_11 
REMARK       I    between atoms: N_11  and  C_12 
REMARK    5  A    between atoms: C_12  and  C_13 
REMARK    6  A    between atoms: C_13  and  N_14 
ROOT
HETATM    1  N   UNL     1       5.911  26.501  54.272  1.00  0.00    -0.322 N 
HETATM    2  C   UNL     1       4.886  26.073  53.455  1.00  0.00     0.253 C 
HETATM    3  O   UNL     1       4.414  24.940  53.427  1.00  0.00    -0.271 OA
HETATM    4  H   UNL     1       5.893  27.461  54.620  1.00  0.00     0.169 HD
ENDROOT
BRANCH   2   5
HETATM    5  C   UNL     1       4.289  27.196  52.577  1.00  0.00     0.275 C 
HETATM    6  C   UNL     1       3.666  28.275  53.448  1.00  0.00     0.050 C 
BRANCH   5   7
HETATM    7  N   UNL     1       5.305  27.781  51.556  1.00  0.00    -0.058 N 
HETATM    8  H   UNL     1       6.174  27.668  52.099  1.00  0.00     0.281 HD
HETATM    9  C   UNL     1       5.540  26.898  50.347  1.00  0.00     0.246 C 
HETATM   10  C   UNL     1       5.255  27.563  48.994  1.00  0.00     0.062 C 
HETATM   11  C   UNL     1       5.944  28.917  48.957  1.00  0.00     0.020 C 
HETATM   12  C   UNL     1       3.764  27.662  48.725  1.00  0.00     0.020 A 
HETATM   13  C   UNL     1       5.231  29.815  49.950  1.00  0.00     0.031 C 
HETATM   14  C   UNL     1       3.792  30.032  49.485  1.00  0.00     0.138 C 
HETATM   15  C   UNL     1       5.287  29.295  51.388  1.00  0.00     0.242 C 
HETATM   16  N   UNL     1       3.081  28.825  49.084  1.00  0.00    -0.317 N 
HETATM   17  C   UNL     1       1.701  28.977  48.886  1.00  0.00     0.247 A 
HETATM   18  O   UNL     1       1.072  29.989  49.182  1.00  0.00    -0.268 OA
HETATM   19  C   UNL     1       0.987  27.820  48.295  1.00  0.00     0.074 A 
HETATM   20  C   UNL     1       1.668  26.722  47.950  1.00  0.00     0.007 A 
HETATM   21  C   UNL     1       3.090  26.641  48.164  1.00  0.00     0.026 A 
ENDBRANCH   5   7
ENDBRANCH   2   5
BRANCH   1  22
HETATM   22  C   UNL     1       6.774  25.664  54.970  1.00  0.00     0.080 A 
HETATM   23  C   UNL     1       7.245  26.001  56.230  1.00  0.00     0.137 A 
HETATM   24  N   UNL     1       8.091  24.994  56.626  1.00  0.00    -0.349 N 
HETATM   25  H   UNL     1       8.574  24.971  57.516  1.00  0.00     0.166 HD
HETATM   26  C   UNL     1       8.218  24.046  55.639  1.00  0.00     0.045 A 
HETATM   27  C   UNL     1       7.384  24.430  54.585  1.00  0.00     0.023 A 
HETATM   28  C   UNL     1       9.017  22.895  55.604  1.00  0.00     0.033 A 
HETATM   29  C   UNL     1       7.371  23.624  53.428  1.00  0.00     0.058 A 
HETATM   30  C   UNL     1       8.167  22.480  53.383  1.00  0.00     0.117 A 
HETATM   31  C   UNL     1       8.978  22.114  54.448  1.00  0.00     0.044 A 
HETATM   32  F   UNL     1       8.156  21.724  52.278  1.00  0.00    -0.206 F 
BRANCH  23  33
HETATM   33  C   UNL     1       6.898  27.151  57.027  1.00  0.00     0.312 C 
HETATM   34  O   UNL     1       5.808  27.711  56.976  1.00  0.00    -0.258 OA
BRANCH  33  35
HETATM   35  O   UNL     1       7.931  27.479  57.847  1.00  0.00    -0.317 OA
BRANCH  35  36
HETATM   36  C   UNL     1       8.301  28.867  57.862  1.00  0.00     0.175 C 
HETATM   37  C   UNL     1       9.113  29.204  56.623  1.00  0.00     0.034 C 
ENDBRANCH  35  36
ENDBRANCH  33  35
ENDBRANCH  23  33
ENDBRANCH   1  22
TORSDOF 6
ENDMDL
MODEL 3
REMARK VINA RESULT:      -8.9      1.729      2.733
REMARK  6 active torsions:
REMARK  status: ('A' for Active; 'I' for Inactive)
REMARK    1  A    between atoms: C_2  and  O_3 
REMARK    2  A    between atoms: O_3  and  C_4 
REMARK    3  A    between atoms: C_4  and  C_5 
REMARK    4  A    between atoms: C_10  and  N_11 
REMARK       I    between atoms: N_11  and  C_12 
REMARK    5  A    between atoms: C_12  and  C_13 
REMARK    6  A    between atoms: C_13  and  N_14 
ROOT
HETATM    1  N   UNL     1       5.145  26.476  53.434  1.00  0.00    -0.322 N 
HETATM    2  C   UNL     1       5.473  27.674  52.834  1.00  0.00     0.253 C 
HETATM    3  O   UNL     1       6.584  28.196  52.831  1.00  0.00    -0.271 OA
HETATM    4  H   UNL     1       4.445  25.881  52.990  1.00  0.00     0.169 HD
ENDROOT
BRANCH   2   5
HETATM    5  C   UNL     1       4.299  28.317  52.061  1.00  0.00     0.275 C 
HETATM    6  C   UNL     1       3.307  28.942  53.029  1.00  0.00     0.050 C 
BRANCH   5   7
HETATM    7  N   UNL     1       4.764  29.320  50.967  1.00  0.00    -0.058 N 
HETATM    8  H   UNL     1       5.356  29.937  51.544  1.00  0.00     0.281 HD
HETATM    9  C   UNL     1       5.745  28.735  49.972  1.00  0.00     0.246 C 
HETATM   10  C   UNL     1       5.305  28.815  48.505  1.00  0.00     0.062 C 
HETATM   11  C   UNL     1       4.841  30.231  48.207  1.00  0.00     0.020 C 
HETATM   12  C   UNL     1       4.245  27.776  48.184  1.00  0.00     0.020 A 
HETATM   13  C   UNL     1       3.552  30.455  48.976  1.00  0.00     0.031 C 
HETATM   14  C   UNL     1       2.478  29.509  48.440  1.00  0.00     0.138 C 
HETATM   15  C   UNL     1       3.718  30.320  50.491  1.00  0.00     0.242 C 
HETATM   16  N   UNL     1       2.897  28.123  48.278  1.00  0.00    -0.317 N 
HETATM   17  C   UNL     1       1.865  27.209  48.018  1.00  0.00     0.247 A 
HETATM   18  O   UNL     1       0.671  27.485  48.084  1.00  0.00    -0.268 OA
HETATM   19  C   UNL     1       2.279  25.832  47.660  1.00  0.00     0.074 A 
HETATM   20  C   UNL     1       3.578  25.528  47.566  1.00  0.00     0.007 A 
HETATM   21  C   UNL     1       4.586  26.523  47.828  1.00  0.00     0.026 A 
ENDBRANCH   5   7
ENDBRANCH   2   5
BRANCH   1  22
HETATM   22  C   UNL     1       5.925  25.820  54.378  1.00  0.00     0.080 A 
HETATM   23  C   UNL     1       6.119  26.345  55.646  1.00  0.00     0.137 A 
HETATM   24  N   UNL     1       6.956  25.485  56.316  1.00  0.00    -0.349 N 
HETATM   25  H   UNL     1       7.261  25.614  57.272  1.00  0.00     0.166 HD
HETATM   26  C   UNL     1       7.347  24.450  55.499  1.00  0.00     0.045 A 
HETATM   27  C   UNL     1       6.699  24.622  54.272  1.00  0.00     0.023 A 
HETATM   28  C   UNL     1       8.232  23.395  55.758  1.00  0.00     0.033 A 
HETATM   29  C   UNL     1       6.973  23.694  53.247  1.00  0.00     0.058 A 
HETATM   30  C   UNL     1       7.856  22.642  53.495  1.00  0.00     0.117 A 
HETATM   31  C   UNL     1       8.478  22.488  54.725  1.00  0.00     0.044 A 
HETATM   32  F   UNL     1       8.118  21.770  52.514  1.00  0.00    -0.206 F 
BRANCH  23  33
HETATM   33  C   UNL     1       5.532  27.534  56.212  1.00  0.00     0.312 C 
HETATM   34  O   UNL     1       4.339  27.808  56.133  1.00  0.00    -0.258 OA
BRANCH  33  35
HETATM   35  O   UNL     1       6.481  28.261  56.860  1.00  0.00    -0.317 OA
BRANCH  35  36
HETATM   36  C   UNL     1       7.014  29.381  56.135  1.00  0.00     0.175 C 
HETATM   37  C   UNL     1       8.486  29.158  55.836  1.00  0.00     0.034 C 
ENDBRANCH  35  36
ENDBRANCH  33  35
ENDBRANCH  23  33
ENDBRANCH   1  22
TORSDOF 6
ENDMDL
MODEL 4
REMARK VINA RESULT:      -8.9      2.819      5.175
REMARK  6 active torsions:
REMARK  status: ('A' for Active; 'I' for Inactive)
REMARK    1  A    between atoms: C_2  and  O_3 
REMARK    2  A    between atoms: O_3  and  C_4 
REMARK    3  A    between atoms: C_4  and  C_5 
REMARK    4  A    between atoms: C_10  and  N_11 
REMARK       I    between atoms: N_11  and  C_12 
REMARK    5  A    between atoms: C_12  and  C_13 
REMARK    6  A    between atoms: C_13  and  N_14 
ROOT
HETATM    1  N   UNL     1       5.801  27.548  52.756  1.00  0.00    -0.322 N 
HETATM    2  C   UNL     1       4.482  27.948  52.745  1.00  0.00     0.253 C 
HETATM    3  O   UNL     1       3.784  28.155  53.734  1.00  0.00    -0.271 OA
HETATM    4  H   UNL     1       6.424  27.891  52.024  1.00  0.00     0.169 HD
ENDROOT
BRANCH   2   5
HETATM    5  C   UNL     1       3.927  28.201  51.325  1.00  0.00     0.275 C 
HETATM    6  C   UNL     1       3.587  29.671  51.144  1.00  0.00     0.050 C 
BRANCH   5   7
HETATM    7  N   UNL     1       4.861  27.672  50.200  1.00  0.00    -0.058 N 
HETATM    8  H   UNL     1       5.643  27.329  50.777  1.00  0.00     0.281 HD
HETATM    9  C   UNL     1       4.357  26.413  49.523  1.00  0.00     0.246 C 
HETATM   10  C   UNL     1       4.174  26.524  48.004  1.00  0.00     0.062 C 
HETATM   11  C   UNL     1       5.430  27.131  47.400  1.00  0.00     0.020 C 
HETATM   12  C   UNL     1       2.922  27.305  47.649  1.00  0.00     0.020 A 
HETATM   13  C   UNL     1       5.496  28.576  47.855  1.00  0.00     0.031 C 
HETATM   14  C   UNL     1       4.306  29.339  47.274  1.00  0.00     0.138 C 
HETATM   15  C   UNL     1       5.579  28.732  49.375  1.00  0.00     0.242 C 
HETATM   16  N   UNL     1       3.016  28.678  47.419  1.00  0.00    -0.317 N 
HETATM   17  C   UNL     1       1.898  29.466  47.109  1.00  0.00     0.247 A 
HETATM   18  O   UNL     1       1.947  30.674  46.893  1.00  0.00    -0.268 OA
HETATM   19  C   UNL     1       0.591  28.769  47.061  1.00  0.00     0.074 A 
HETATM   20  C   UNL     1       0.531  27.450  47.274  1.00  0.00     0.007 A 
HETATM   21  C   UNL     1       1.723  26.698  47.569  1.00  0.00     0.026 A 
ENDBRANCH   5   7
ENDBRANCH   2   5
BRANCH   1  22
HETATM   22  C   UNL     1       6.465  27.026  53.861  1.00  0.00     0.080 A 
HETATM   23  C   UNL     1       6.752  25.674  53.958  1.00  0.00     0.137 A 
HETATM   24  N   UNL     1       7.373  25.479  55.168  1.00  0.00    -0.349 N 
HETATM   25  H   UNL     1       7.706  24.584  55.502  1.00  0.00     0.166 HD
HETATM   26  C   UNL     1       7.446  26.657  55.874  1.00  0.00     0.045 A 
HETATM   27  C   UNL     1       6.897  27.659  55.068  1.00  0.00     0.023 A 
HETATM   28  C   UNL     1       7.944  26.896  57.162  1.00  0.00     0.033 A 
HETATM   29  C   UNL     1       6.826  28.965  55.596  1.00  0.00     0.058 A 
HETATM   30  C   UNL     1       7.315  29.210  56.879  1.00  0.00     0.117 A 
HETATM   31  C   UNL     1       7.865  28.200  57.655  1.00  0.00     0.044 A 
HETATM   32  F   UNL     1       7.236  30.450  57.378  1.00  0.00    -0.206 F 
BRANCH  23  33
HETATM   33  C   UNL     1       6.512  24.644  52.978  1.00  0.00     0.312 C 
HETATM   34  O   UNL     1       5.422  24.449  52.449  1.00  0.00    -0.258 OA
BRANCH  33  35
HETATM   35  O   UNL     1       7.663  23.970  52.717  1.00  0.00    -0.317 OA
BRANCH  35  36
HETATM   36  C   UNL     1       7.631  22.556  52.973  1.00  0.00     0.175 C 
HETATM   37  C   UNL     1       8.736  22.177  53.944  1.00  0.00     0.034 C 
ENDBRANCH  35  36
ENDBRANCH  33  35
ENDBRANCH  23  33
ENDBRANCH   1  22
TORSDOF 6
ENDMDL
MODEL 5
REMARK VINA RESULT:      -8.7      2.000      3.518
REMARK  6 active torsions:
REMARK  status: ('A' for Active; 'I' for Inactive)
REMARK    1  A    between atoms: C_2  and  O_3 
REMARK    2  A    between atoms: O_3  and  C_4 
REMARK    3  A    between atoms: C_4  and  C_5 
REMARK    4  A    between atoms: C_10  and  N_11 
REMARK       I    between atoms: N_11  and  C_12 
REMARK    5  A    between atoms: C_12  and  C_13 
REMARK    6  A    between atoms: C_13  and  N_14 
ROOT
HETATM    1  N   UNL     1       5.954  27.585  52.930  1.00  0.00    -0.322 N 
HETATM    2  C   UNL     1       4.602  27.655  52.666  1.00  0.00     0.253 C 
HETATM    3  O   UNL     1       3.702  27.314  53.428  1.00  0.00    -0.271 OA
HETATM    4  H   UNL     1       6.566  28.308  52.549  1.00  0.00     0.169 HD
ENDROOT
BRANCH   2   5
HETATM    5  C   UNL     1       4.274  28.294  51.298  1.00  0.00     0.275 C 
HETATM    6  C   UNL     1       4.327  29.811  51.395  1.00  0.00     0.050 C 
BRANCH   5   7
HETATM    7  N   UNL     1       5.158  27.750  50.140  1.00  0.00    -0.058 N 
HETATM    8  H   UNL     1       5.980  27.447  50.684  1.00  0.00     0.281 HD
HETATM    9  C   UNL     1       4.651  26.456  49.535  1.00  0.00     0.246 C 
HETATM   10  C   UNL     1       4.382  26.509  48.026  1.00  0.00     0.062 C 
HETATM   11  C   UNL     1       5.586  27.125  47.333  1.00  0.00     0.020 C 
HETATM   12  C   UNL     1       3.091  27.247  47.716  1.00  0.00     0.020 A 
HETATM   13  C   UNL     1       5.639  28.587  47.734  1.00  0.00     0.031 C 
HETATM   14  C   UNL     1       4.398  29.300  47.196  1.00  0.00     0.138 C 
HETATM   15  C   UNL     1       5.801  28.798  49.241  1.00  0.00     0.242 C 
HETATM   16  N   UNL     1       3.136  28.613  47.436  1.00  0.00    -0.317 N 
HETATM   17  C   UNL     1       1.982  29.362  47.162  1.00  0.00     0.247 A 
HETATM   18  O   UNL     1       1.988  30.562  46.904  1.00  0.00    -0.268 OA
HETATM   19  C   UNL     1       0.694  28.631  47.212  1.00  0.00     0.074 A 
HETATM   20  C   UNL     1       0.680  27.319  47.471  1.00  0.00     0.007 A 
HETATM   21  C   UNL     1       1.907  26.608  47.724  1.00  0.00     0.026 A 
ENDBRANCH   5   7
ENDBRANCH   2   5
BRANCH   1  22
HETATM   22  C   UNL     1       6.525  26.847  53.960  1.00  0.00     0.080 A 
HETATM   23  C   UNL     1       6.898  27.442  55.154  1.00  0.00     0.137 A 
HETATM   24  N   UNL     1       7.456  26.461  55.938  1.00  0.00    -0.349 N 
HETATM   25  H   UNL     1       7.809  26.610  56.874  1.00  0.00     0.166 HD
HETATM   26  C   UNL     1       7.500  25.264  55.263  1.00  0.00     0.045 A 
HETATM   27  C   UNL     1       6.903  25.468  54.015  1.00  0.00     0.023 A 
HETATM   28  C   UNL     1       8.034  24.032  55.664  1.00  0.00     0.033 A 
HETATM   29  C   UNL     1       6.861  24.382  53.118  1.00  0.00     0.058 A 
HETATM   30  C   UNL     1       7.396  23.153  53.507  1.00  0.00     0.117 A 
HETATM   31  C   UNL     1       7.973  22.973  54.756  1.00  0.00     0.044 A 
HETATM   32  F   UNL     1       7.361  22.128  52.647  1.00  0.00    -0.206 F 
BRANCH  23  33
HETATM   33  C   UNL     1       6.708  28.813  55.559  1.00  0.00     0.312 C 
HETATM   34  O   UNL     1       7.630  29.587  55.796  1.00  0.00    -0.258 OA
BRANCH  33  35
HETATM   35  O   UNL     1       5.381  29.109  55.596  1.00  0.00    -0.317 OA
BRANCH  35  36
HETATM   36  C   UNL     1       5.051  30.448  55.998  1.00  0.00     0.175 C 
HETATM   37  C   UNL     1       4.494  30.447  57.411  1.00  0.00     0.034 C 
ENDBRANCH  35  36
ENDBRANCH  33  35
ENDBRANCH  23  33
ENDBRANCH   1  22
TORSDOF 6
ENDMDL
MODEL 6
REMARK VINA RESULT:      -8.6      5.783      9.356
REMARK  6 active torsions:
REMARK  status: ('A' for Active; 'I' for Inactive)
REMARK    1  A    between atoms: C_2  and  O_3 
REMARK    2  A    between atoms: O_3  and  C_4 
REMARK    3  A    between atoms: C_4  and  C_5 
REMARK    4  A    between atoms: C_10  and  N_11 
REMARK       I    between atoms: N_11  and  C_12 
REMARK    5  A    between atoms: C_12  and  C_13 
REMARK    6  A    between atoms: C_13  and  N_14 
ROOT
HETATM    1  N   UNL     1       6.635  30.766  59.003  1.00  0.00    -0.322 N 
HETATM    2  C   UNL     1       7.827  30.773  58.311  1.00  0.00     0.253 C 
HETATM    3  O   UNL     1       8.703  31.631  58.394  1.00  0.00    -0.271 OA
HETATM    4  H   UNL     1       6.242  29.871  59.295  1.00  0.00     0.169 HD
ENDROOT
BRANCH   2   5
HETATM    5  C   UNL     1       8.033  29.523  57.426  1.00  0.00     0.275 C 
HETATM    6  C   UNL     1       7.580  28.273  58.164  1.00  0.00     0.050 C 
BRANCH   5   7
HETATM    7  N   UNL     1       7.371  29.649  56.025  1.00  0.00    -0.058 N 
HETATM    8  H   UNL     1       7.605  30.631  55.815  1.00  0.00     0.281 HD
HETATM    9  C   UNL     1       8.092  28.885  54.933  1.00  0.00     0.246 C 
HETATM   10  C   UNL     1       7.233  27.854  54.189  1.00  0.00     0.062 C 
HETATM   11  C   UNL     1       5.927  28.510  53.772  1.00  0.00     0.020 C 
HETATM   12  C   UNL     1       7.017  26.604  55.023  1.00  0.00     0.020 A 
HETATM   13  C   UNL     1       5.136  28.783  55.037  1.00  0.00     0.031 C 
HETATM   14  C   UNL     1       4.778  27.454  55.701  1.00  0.00     0.138 C 
HETATM   15  C   UNL     1       5.850  29.725  56.009  1.00  0.00     0.242 C 
HETATM   16  N   UNL     1       5.878  26.506  55.824  1.00  0.00    -0.317 N 
HETATM   17  C   UNL     1       5.624  25.391  56.636  1.00  0.00     0.247 A 
HETATM   18  O   UNL     1       4.628  25.271  57.344  1.00  0.00    -0.268 OA
HETATM   19  C   UNL     1       6.647  24.320  56.626  1.00  0.00     0.074 A 
HETATM   20  C   UNL     1       7.724  24.434  55.841  1.00  0.00     0.007 A 
HETATM   21  C   UNL     1       7.912  25.599  55.016  1.00  0.00     0.026 A 
ENDBRANCH   5   7
ENDBRANCH   2   5
BRANCH   1  22
HETATM   22  C   UNL     1       6.096  31.861  59.668  1.00  0.00     0.080 A 
HETATM   23  C   UNL     1       5.157  32.683  59.064  1.00  0.00     0.137 A 
HETATM   24  N   UNL     1       4.856  33.680  59.962  1.00  0.00    -0.349 N 
HETATM   25  H   UNL     1       4.188  34.420  59.790  1.00  0.00     0.166 HD
HETATM   26  C   UNL     1       5.611  33.552  61.104  1.00  0.00     0.045 A 
HETATM   27  C   UNL     1       6.393  32.402  60.959  1.00  0.00     0.023 A 
HETATM   28  C   UNL     1       5.662  34.376  62.236  1.00  0.00     0.033 A 
HETATM   29  C   UNL     1       7.288  32.078  61.999  1.00  0.00     0.058 A 
HETATM   30  C   UNL     1       7.349  32.896  63.128  1.00  0.00     0.117 A 
HETATM   31  C   UNL     1       6.554  34.026  63.252  1.00  0.00     0.044 A 
HETATM   32  F   UNL     1       8.207  32.587  64.108  1.00  0.00    -0.206 F 
BRANCH  23  33
HETATM   33  C   UNL     1       4.548  32.529  57.767  1.00  0.00     0.312 C 
HETATM   34  O   UNL     1       3.418  32.085  57.594  1.00  0.00    -0.258 OA
BRANCH  33  35
HETATM   35  O   UNL     1       5.392  32.977  56.799  1.00  0.00    -0.317 OA
BRANCH  35  36
HETATM   36  C   UNL     1       4.831  33.914  55.866  1.00  0.00     0.175 C 
HETATM   37  C   UNL     1       4.766  35.297  56.490  1.00  0.00     0.034 C 
ENDBRANCH  35  36
ENDBRANCH  33  35
ENDBRANCH  23  33
ENDBRANCH   1  22
TORSDOF 6
ENDMDL
MODEL 7
REMARK VINA RESULT:      -8.6      5.615      9.073
REMARK  6 active torsions:
REMARK  status: ('A' for Active; 'I' for Inactive)
REMARK    1  A    between atoms: C_2  and  O_3 
REMARK    2  A    between atoms: O_3  and  C_4 
REMARK    3  A    between atoms: C_4  and  C_5 
REMARK    4  A    between atoms: C_10  and  N_11 
REMARK       I    between atoms: N_11  and  C_12 
REMARK    5  A    between atoms: C_12  and  C_13 
REMARK    6  A    between atoms: C_13  and  N_14 
ROOT
HETATM    1  N   UNL     1       6.149  30.872  58.713  1.00  0.00    -0.322 N 
HETATM    2  C   UNL     1       7.391  30.699  58.141  1.00  0.00     0.253 C 
HETATM    3  O   UNL     1       8.408  31.325  58.424  1.00  0.00    -0.271 OA
HETATM    4  H   UNL     1       5.548  30.057  58.836  1.00  0.00     0.169 HD
ENDROOT
BRANCH   2   5
HETATM    5  C   UNL     1       7.439  29.548  57.109  1.00  0.00     0.275 C 
HETATM    6  C   UNL     1       8.862  29.333  56.621  1.00  0.00     0.050 C 
BRANCH   5   7
HETATM    7  N   UNL     1       6.791  28.234  57.628  1.00  0.00    -0.058 N 
HETATM    8  H   UNL     1       6.779  28.439  58.639  1.00  0.00     0.281 HD
HETATM    9  C   UNL     1       5.320  28.096  57.289  1.00  0.00     0.246 C 
HETATM   10  C   UNL     1       4.954  26.837  56.494  1.00  0.00     0.062 C 
HETATM   11  C   UNL     1       5.583  25.629  57.168  1.00  0.00     0.020 C 
HETATM   12  C   UNL     1       5.355  26.963  55.035  1.00  0.00     0.020 A 
HETATM   13  C   UNL     1       7.085  25.740  56.983  1.00  0.00     0.031 C 
HETATM   14  C   UNL     1       7.415  25.644  55.494  1.00  0.00     0.138 C 
HETATM   15  C   UNL     1       7.683  26.999  57.614  1.00  0.00     0.242 C 
HETATM   16  N   UNL     1       6.597  26.478  54.623  1.00  0.00    -0.317 N 
HETATM   17  C   UNL     1       7.042  26.581  53.297  1.00  0.00     0.247 A 
HETATM   18  O   UNL     1       8.124  26.157  52.901  1.00  0.00    -0.268 OA
HETATM   19  C   UNL     1       6.131  27.261  52.346  1.00  0.00     0.074 A 
HETATM   20  C   UNL     1       4.942  27.706  52.764  1.00  0.00     0.007 A 
HETATM   21  C   UNL     1       4.540  27.550  54.139  1.00  0.00     0.026 A 
ENDBRANCH   5   7
ENDBRANCH   2   5
BRANCH   1  22
HETATM   22  C   UNL     1       5.772  31.972  59.476  1.00  0.00     0.080 A 
HETATM   23  C   UNL     1       4.900  32.929  58.981  1.00  0.00     0.137 A 
HETATM   24  N   UNL     1       4.761  33.889  59.954  1.00  0.00    -0.349 N 
HETATM   25  H   UNL     1       4.171  34.707  59.869  1.00  0.00     0.166 HD
HETATM   26  C   UNL     1       5.556  33.604  61.039  1.00  0.00     0.045 A 
HETATM   27  C   UNL     1       6.196  32.388  60.777  1.00  0.00     0.023 A 
HETATM   28  C   UNL     1       5.760  34.339  62.214  1.00  0.00     0.033 A 
HETATM   29  C   UNL     1       7.103  31.899  61.739  1.00  0.00     0.058 A 
HETATM   30  C   UNL     1       7.315  32.628  62.909  1.00  0.00     0.117 A 
HETATM   31  C   UNL     1       6.659  33.826  63.151  1.00  0.00     0.044 A 
HETATM   32  F   UNL     1       8.185  32.163  63.815  1.00  0.00    -0.206 F 
BRANCH  23  33
HETATM   33  C   UNL     1       4.210  32.929  57.715  1.00  0.00     0.312 C 
HETATM   34  O   UNL     1       2.991  33.014  57.606  1.00  0.00    -0.258 OA
BRANCH  33  35
HETATM   35  O   UNL     1       5.105  32.861  56.695  1.00  0.00    -0.317 OA
BRANCH  35  36
HETATM   36  C   UNL     1       4.553  32.590  55.396  1.00  0.00     0.175 C 
HETATM   37  C   UNL     1       4.636  31.104  55.093  1.00  0.00     0.034 C 
ENDBRANCH  35  36
ENDBRANCH  33  35
ENDBRANCH  23  33
ENDBRANCH   1  22
TORSDOF 6
ENDMDL
MODEL 8
REMARK VINA RESULT:      -8.4      1.782      2.721
REMARK  6 active torsions:
REMARK  status: ('A' for Active; 'I' for Inactive)
REMARK    1  A    between atoms: C_2  and  O_3 
REMARK    2  A    between atoms: O_3  and  C_4 
REMARK    3  A    between atoms: C_4  and  C_5 
REMARK    4  A    between atoms: C_10  and  N_11 
REMARK       I    between atoms: N_11  and  C_12 
REMARK    5  A    between atoms: C_12  and  C_13 
REMARK    6  A    between atoms: C_13  and  N_14 
ROOT
HETATM    1  N   UNL     1       6.846  26.360  54.652  1.00  0.00    -0.322 N 
HETATM    2  C   UNL     1       5.617  26.320  54.028  1.00  0.00     0.253 C 
HETATM    3  O   UNL     1       4.797  25.409  54.110  1.00  0.00    -0.271 OA
HETATM    4  H   UNL     1       7.204  27.260  54.972  1.00  0.00     0.169 HD
ENDROOT
BRANCH   2   5
HETATM    5  C   UNL     1       5.290  27.602  53.230  1.00  0.00     0.275 C 
HETATM    6  C   UNL     1       6.567  28.238  52.704  1.00  0.00     0.050 C 
BRANCH   5   7
HETATM    7  N   UNL     1       4.242  27.372  52.104  1.00  0.00    -0.058 N 
HETATM    8  H   UNL     1       3.912  26.432  52.371  1.00  0.00     0.281 HD
HETATM    9  C   UNL     1       2.997  28.224  52.238  1.00  0.00     0.246 C 
HETATM   10  C   UNL     1       2.689  29.115  51.028  1.00  0.00     0.062 C 
HETATM   11  C   UNL     1       2.770  28.274  49.765  1.00  0.00     0.020 C 
HETATM   12  C   UNL     1       3.603  30.327  50.981  1.00  0.00     0.020 A 
HETATM   13  C   UNL     1       4.226  27.899  49.565  1.00  0.00     0.031 C 
HETATM   14  C   UNL     1       5.041  29.167  49.313  1.00  0.00     0.138 C 
HETATM   15  C   UNL     1       4.805  27.076  50.719  1.00  0.00     0.242 C 
HETATM   16  N   UNL     1       4.781  30.264  50.235  1.00  0.00    -0.317 N 
HETATM   17  C   UNL     1       5.683  31.336  50.164  1.00  0.00     0.247 A 
HETATM   18  O   UNL     1       6.722  31.317  49.512  1.00  0.00    -0.268 OA
HETATM   19  C   UNL     1       5.335  32.544  50.949  1.00  0.00     0.074 A 
HETATM   20  C   UNL     1       4.194  32.582  51.646  1.00  0.00     0.007 A 
HETATM   21  C   UNL     1       3.304  31.450  51.659  1.00  0.00     0.026 A 
ENDBRANCH   5   7
ENDBRANCH   2   5
BRANCH   1  22
HETATM   22  C   UNL     1       7.484  25.264  55.223  1.00  0.00     0.080 A 
HETATM   23  C   UNL     1       8.001  25.317  56.507  1.00  0.00     0.137 A 
HETATM   24  N   UNL     1       8.589  24.101  56.756  1.00  0.00    -0.349 N 
HETATM   25  H   UNL     1       9.041  23.852  57.627  1.00  0.00     0.166 HD
HETATM   26  C   UNL     1       8.511  23.286  55.651  1.00  0.00     0.045 A 
HETATM   27  C   UNL     1       7.802  23.984  54.669  1.00  0.00     0.023 A 
HETATM   28  C   UNL     1       9.026  21.998  55.455  1.00  0.00     0.033 A 
HETATM   29  C   UNL     1       7.621  23.360  53.418  1.00  0.00     0.058 A 
HETATM   30  C   UNL     1       8.135  22.080  53.212  1.00  0.00     0.117 A 
HETATM   31  C   UNL     1       8.826  21.404  54.207  1.00  0.00     0.044 A 
HETATM   32  F   UNL     1       7.968  21.498  52.018  1.00  0.00    -0.206 F 
BRANCH  23  33
HETATM   33  C   UNL     1       7.914  26.402  57.453  1.00  0.00     0.312 C 
HETATM   34  O   UNL     1       7.725  26.243  58.655  1.00  0.00    -0.258 OA
BRANCH  33  35
HETATM   35  O   UNL     1       8.108  27.590  56.821  1.00  0.00    -0.317 OA
BRANCH  35  36
HETATM   36  C   UNL     1       8.496  28.689  57.661  1.00  0.00     0.175 C 
HETATM   37  C   UNL     1       7.335  29.655  57.826  1.00  0.00     0.034 C 
ENDBRANCH  35  36
ENDBRANCH  33  35
ENDBRANCH  23  33
ENDBRANCH   1  22
TORSDOF 6
ENDMDL
MODEL 9
REMARK VINA RESULT:      -8.4      2.204      3.379
REMARK  6 active torsions:
REMARK  status: ('A' for Active; 'I' for Inactive)
REMARK    1  A    between atoms: C_2  and  O_3 
REMARK    2  A    between atoms: O_3  and  C_4 
REMARK    3  A    between atoms: C_4  and  C_5 
REMARK    4  A    between atoms: C_10  and  N_11 
REMARK       I    between atoms: N_11  and  C_12 
REMARK    5  A    between atoms: C_12  and  C_13 
REMARK    6  A    between atoms: C_13  and  N_14 
ROOT
HETATM    1  N   UNL     1       5.034  27.067  53.196  1.00  0.00    -0.322 N 
HETATM    2  C   UNL     1       5.683  28.154  52.651  1.00  0.00     0.253 C 
HETATM    3  O   UNL     1       6.874  28.422  52.783  1.00  0.00    -0.271 OA
HETATM    4  H   UNL     1       4.277  26.631  52.667  1.00  0.00     0.169 HD
ENDROOT
BRANCH   2   5
HETATM    5  C   UNL     1       4.776  29.025  51.752  1.00  0.00     0.275 C 
HETATM    6  C   UNL     1       5.617  29.843  50.785  1.00  0.00     0.050 C 
BRANCH   5   7
HETATM    7  N   UNL     1       3.671  28.209  51.023  1.00  0.00    -0.058 N 
HETATM    8  H   UNL     1       3.602  27.406  51.666  1.00  0.00     0.281 HD
HETATM    9  C   UNL     1       2.292  28.832  51.102  1.00  0.00     0.246 C 
HETATM   10  C   UNL     1       1.633  29.120  49.747  1.00  0.00     0.062 C 
HETATM   11  C   UNL     1       1.740  27.881  48.874  1.00  0.00     0.020 C 
HETATM   12  C   UNL     1       2.232  30.350  49.087  1.00  0.00     0.020 A 
HETATM   13  C   UNL     1       3.204  27.700  48.524  1.00  0.00     0.031 C 
HETATM   14  C   UNL     1       3.667  28.885  47.677  1.00  0.00     0.138 C 
HETATM   15  C   UNL     1       4.101  27.495  49.747  1.00  0.00     0.242 C 
HETATM   16  N   UNL     1       3.286  30.196  48.185  1.00  0.00    -0.317 N 
HETATM   17  C   UNL     1       3.901  31.288  47.555  1.00  0.00     0.247 A 
HETATM   18  O   UNL     1       4.823  31.186  46.751  1.00  0.00    -0.268 OA
HETATM   19  C   UNL     1       3.392  32.631  47.917  1.00  0.00     0.074 A 
HETATM   20  C   UNL     1       2.373  32.750  48.776  1.00  0.00     0.007 A 
HETATM   21  C   UNL     1       1.775  31.583  49.371  1.00  0.00     0.026 A 
ENDBRANCH   5   7
ENDBRANCH   2   5
BRANCH   1  22
HETATM   22  C   UNL     1       5.537  26.272  54.219  1.00  0.00     0.080 A 
HETATM   23  C   UNL     1       5.475  26.674  55.544  1.00  0.00     0.137 A 
HETATM   24  N   UNL     1       6.082  25.693  56.292  1.00  0.00    -0.349 N 
HETATM   25  H   UNL     1       6.172  25.718  57.300  1.00  0.00     0.166 HD
HETATM   26  C   UNL     1       6.577  24.698  55.483  1.00  0.00     0.045 A 
HETATM   27  C   UNL     1       6.234  25.024  54.167  1.00  0.00     0.023 A 
HETATM   28  C   UNL     1       7.309  23.553  55.824  1.00  0.00     0.033 A 
HETATM   29  C   UNL     1       6.670  24.161  53.140  1.00  0.00     0.058 A 
HETATM   30  C   UNL     1       7.403  23.022  53.470  1.00  0.00     0.117 A 
HETATM   31  C   UNL     1       7.721  22.715  54.785  1.00  0.00     0.044 A 
HETATM   32  F   UNL     1       7.821  22.212  52.489  1.00  0.00    -0.206 F 
BRANCH  23  33
HETATM   33  C   UNL     1       4.856  27.859  56.082  1.00  0.00     0.312 C 
HETATM   34  O   UNL     1       3.843  28.369  55.616  1.00  0.00    -0.258 OA
BRANCH  33  35
HETATM   35  O   UNL     1       5.536  28.285  57.179  1.00  0.00    -0.317 OA
BRANCH  35  36
HETATM   36  C   UNL     1       6.629  29.182  56.928  1.00  0.00     0.175 C 
HETATM   37  C   UNL     1       6.569  30.359  57.887  1.00  0.00     0.034 C 
ENDBRANCH  35  36
ENDBRANCH  33  35
ENDBRANCH  23  33
ENDBRANCH   1  22
TORSDOF 6
ENDMDL
MODEL 10
REMARK VINA RESULT:      -8.2      5.765      9.348
REMARK  6 active torsions:
REMARK  status: ('A' for Active; 'I' for Inactive)
REMARK    1  A    between atoms: C_2  and  O_3 
REMARK    2  A    between atoms: O_3  and  C_4 
REMARK    3  A    between atoms: C_4  and  C_5 
REMARK    4  A    between atoms: C_10  and  N_11 
REMARK       I    between atoms: N_11  and  C_12 
REMARK    5  A    between atoms: C_12  and  C_13 
REMARK    6  A    between atoms: C_13  and  N_14 
ROOT
HETATM    1  N   UNL     1       6.689  30.826  58.788  1.00  0.00    -0.322 N 
HETATM    2  C   UNL     1       7.929  30.782  58.188  1.00  0.00     0.253 C 
HETATM    3  O   UNL     1       8.811  31.630  58.296  1.00  0.00    -0.271 OA
HETATM    4  H   UNL     1       6.259  29.951  59.091  1.00  0.00     0.169 HD
ENDROOT
BRANCH   2   5
HETATM    5  C   UNL     1       8.177  29.487  57.381  1.00  0.00     0.275 C 
HETATM    6  C   UNL     1       7.663  28.279  58.147  1.00  0.00     0.050 C 
BRANCH   5   7
HETATM    7  N   UNL     1       7.610  29.550  55.934  1.00  0.00    -0.058 N 
HETATM    8  H   UNL     1       7.882  30.513  55.688  1.00  0.00     0.281 HD
HETATM    9  C   UNL     1       8.380  28.710  54.935  1.00  0.00     0.246 C 
HETATM   10  C   UNL     1       7.544  27.658  54.194  1.00  0.00     0.062 C 
HETATM   11  C   UNL     1       6.285  28.318  53.658  1.00  0.00     0.020 C 
HETATM   12  C   UNL     1       7.243  26.462  55.079  1.00  0.00     0.020 A 
HETATM   13  C   UNL     1       5.421  28.679  54.852  1.00  0.00     0.031 C 
HETATM   14  C   UNL     1       4.988  27.397  55.562  1.00  0.00     0.138 C 
HETATM   15  C   UNL     1       6.095  29.658  55.816  1.00  0.00     0.242 C 
HETATM   16  N   UNL     1       6.053  26.434  55.808  1.00  0.00    -0.317 N 
HETATM   17  C   UNL     1       5.719  25.372  56.661  1.00  0.00     0.247 A 
HETATM   18  O   UNL     1       4.678  25.313  57.309  1.00  0.00    -0.268 OA
HETATM   19  C   UNL     1       6.714  24.280  56.776  1.00  0.00     0.074 A 
HETATM   20  C   UNL     1       7.841  24.326  56.058  1.00  0.00     0.007 A 
HETATM   21  C   UNL     1       8.111  25.439  55.185  1.00  0.00     0.026 A 
ENDBRANCH   5   7
ENDBRANCH   2   5
BRANCH   1  22
HETATM   22  C   UNL     1       6.121  31.959  59.359  1.00  0.00     0.080 A 
HETATM   23  C   UNL     1       6.318  32.271  60.695  1.00  0.00     0.137 A 
HETATM   24  N   UNL     1       5.604  33.417  60.951  1.00  0.00    -0.349 N 
HETATM   25  H   UNL     1       5.573  33.882  61.849  1.00  0.00     0.166 HD
HETATM   26  C   UNL     1       4.914  33.823  59.833  1.00  0.00     0.045 A 
HETATM   27  C   UNL     1       5.233  32.933  58.802  1.00  0.00     0.023 A 
HETATM   28  C   UNL     1       4.029  34.897  59.671  1.00  0.00     0.033 A 
HETATM   29  C   UNL     1       4.612  33.123  57.551  1.00  0.00     0.058 A 
HETATM   30  C   UNL     1       3.726  34.187  57.383  1.00  0.00     0.117 A 
HETATM   31  C   UNL     1       3.435  35.063  58.419  1.00  0.00     0.044 A 
HETATM   32  F   UNL     1       3.132  34.357  56.195  1.00  0.00    -0.206 F 
BRANCH  23  33
HETATM   33  C   UNL     1       7.145  31.582  61.653  1.00  0.00     0.312 C 
HETATM   34  O   UNL     1       7.995  30.753  61.346  1.00  0.00    -0.258 OA
BRANCH  33  35
HETATM   35  O   UNL     1       6.864  32.015  62.910  1.00  0.00    -0.317 OA
BRANCH  35  36
HETATM   36  C   UNL     1       7.934  32.687  63.594  1.00  0.00     0.175 C 
HETATM   37  C   UNL     1       7.406  33.374  64.841  1.00  0.00     0.034 C 
ENDBRANCH  35  36
ENDBRANCH  33  35
ENDBRANCH  23  33
ENDBRANCH   1  22
TORSDOF 6
ENDMDL
