MODEL 1
REMARK VINA RESULT:      -9.8      0.000      0.000
REMARK  8 active torsions:
REMARK  status: ('A' for Active; 'I' for Inactive)
REMARK    1  A    between atoms: C_2  and  O_3 
REMARK    2  A    between atoms: O_3  and  C_4 
REMARK    3  A    between atoms: C_7  and  N_8 
REMARK       I    between atoms: N_8  and  C_9 
REMARK    4  A    between atoms: C_9  and  C_10 
REMARK    5  A    between atoms: C_12  and  N_13 
REMARK    6  A    between atoms: N_16  and  C_18 
REMARK    7  A    between atoms: C_18  and  C_19 
REMARK    8  A    between atoms: C_18  and  C_25 
ROOT
HETATM    1  C   UNL     1       3.610  29.251  52.596  1.00  0.00     0.164 C 
HETATM    2  N   UNL     1       4.007  27.849  52.378  1.00  0.00    -0.249 NA
HETATM    3  C   UNL     1       5.079  27.610  51.568  1.00  0.00     0.181 C 
HETATM    4  N   UNL     1       5.635  28.510  50.820  1.00  0.00    -0.185 NA
HETATM    5  C   UNL     1       5.137  29.783  50.844  1.00  0.00     0.247 C 
HETATM    6  O   UNL     1       5.828  30.774  50.618  1.00  0.00    -0.271 OA
HETATM    7  C   UNL     1       3.712  29.967  51.274  1.00  0.00     0.134 C 
HETATM    8  H   UNL     1       4.033  27.376  53.278  1.00  0.00     0.131 HD
ENDROOT
BRANCH   3   9
HETATM    9  N   UNL     1       5.565  26.323  51.584  1.00  0.00    -0.353 N 
HETATM   10  C   UNL     1       4.760  25.099  51.668  1.00  0.00     0.153 C 
HETATM   11  C   UNL     1       4.905  24.478  53.074  1.00  0.00     0.256 C 
HETATM   12  N   UNL     1       6.383  24.228  53.387  1.00  0.00    -0.056 N 
HETATM   13  H   UNL     1       6.758  23.630  52.649  1.00  0.00     0.281 HD
HETATM   14  C   UNL     1       7.183  25.533  53.260  1.00  0.00     0.256 C 
HETATM   15  C   UNL     1       7.003  26.100  51.836  1.00  0.00     0.153 C 
BRANCH  12  16
HETATM   16  C   UNL     1       6.651  23.472  54.696  1.00  0.00     0.254 C 
BRANCH  16  17
HETATM   17  C   UNL     1       7.455  22.193  54.465  1.00  0.00    -0.023 A 
HETATM   18  C   UNL     1       7.743  21.294  55.510  1.00  0.00     0.009 A 
HETATM   19  C   UNL     1       8.515  20.154  55.280  1.00  0.00     0.001 A 
HETATM   20  C   UNL     1       9.007  19.890  54.005  1.00  0.00     0.000 A 
HETATM   21  C   UNL     1       8.721  20.759  52.955  1.00  0.00     0.001 A 
HETATM   22  C   UNL     1       7.950  21.900  53.180  1.00  0.00     0.009 A 
ENDBRANCH  16  17
BRANCH  16  23
HETATM   23  C   UNL     1       7.138  24.358  55.859  1.00  0.00    -0.023 A 
HETATM   24  C   UNL     1       6.288  25.230  56.568  1.00  0.00     0.009 A 
HETATM   25  C   UNL     1       6.756  25.975  57.657  1.00  0.00     0.001 A 
HETATM   26  C   UNL     1       8.077  25.855  58.074  1.00  0.00     0.000 A 
HETATM   27  C   UNL     1       8.928  24.978  57.414  1.00  0.00     0.001 A 
HETATM   28  C   UNL     1       8.461  24.228  56.331  1.00  0.00     0.009 A 
ENDBRANCH  16  23
ENDBRANCH  12  16
ENDBRANCH   3   9
BRANCH   1  29
HETATM   29  C   UNL     1       4.445  29.789  53.797  1.00  0.00     0.240 C 
HETATM   30  N   UNL     1       5.193  28.877  54.513  1.00  0.00    -0.326 N 
HETATM   31  H   UNL     1       5.025  27.883  54.381  1.00  0.00     0.169 HD
HETATM   32  O   UNL     1       4.339  30.990  54.068  1.00  0.00    -0.271 OA
BRANCH  30  33
HETATM   33  C   UNL     1       6.036  29.154  55.613  1.00  0.00     0.034 A 
HETATM   34  C   UNL     1       5.588  29.646  56.838  1.00  0.00     0.032 A 
HETATM   35  C   UNL     1       6.495  29.902  57.879  1.00  0.00     0.039 A 
HETATM   36  C   UNL     1       7.855  29.658  57.703  1.00  0.00     0.068 A 
HETATM   37  C   UNL     1       8.304  29.173  56.475  1.00  0.00     0.039 A 
HETATM   38  C   UNL     1       7.406  28.933  55.433  1.00  0.00     0.032 A 
BRANCH  36  39
HETATM   39  O   UNL     1       8.837  29.841  58.634  1.00  0.00    -0.352 OA
BRANCH  39  40
HETATM   40  C   UNL     1       8.495  30.564  59.814  1.00  0.00     0.171 C 
HETATM   41  C   UNL     1       9.404  31.777  59.897  1.00  0.00     0.034 C 
ENDBRANCH  39  40
ENDBRANCH  36  39
ENDBRANCH  30  33
ENDBRANCH   1  29
TORSDOF 8
ENDMDL
MODEL 2
REMARK VINA RESULT:      -9.3      3.228      6.225
REMARK  8 active torsions:
REMARK  status: ('A' for Active; 'I' for Inactive)
REMARK    1  A    between atoms: C_2  and  O_3 
REMARK    2  A    between atoms: O_3  and  C_4 
REMARK    3  A    between atoms: C_7  and  N_8 
REMARK       I    between atoms: N_8  and  C_9 
REMARK    4  A    between atoms: C_9  and  C_10 
REMARK    5  A    between atoms: C_12  and  N_13 
REMARK    6  A    between atoms: N_16  and  C_18 
REMARK    7  A    between atoms: C_18  and  C_19 
REMARK    8  A    between atoms: C_18  and  C_25 
ROOT
HETATM    1  C   UNL     1       7.518  30.229  57.767  1.00  0.00     0.164 C 
HETATM    2  N   UNL     1       7.137  28.812  57.632  1.00  0.00    -0.249 NA
HETATM    3  C   UNL     1       8.139  27.890  57.549  1.00  0.00     0.181 C 
HETATM    4  N   UNL     1       9.386  28.191  57.370  1.00  0.00    -0.185 NA
HETATM    5  C   UNL     1       9.736  29.510  57.273  1.00  0.00     0.247 C 
HETATM    6  O   UNL     1      10.840  29.933  57.608  1.00  0.00    -0.271 OA
HETATM    7  C   UNL     1       8.679  30.482  56.841  1.00  0.00     0.134 C 
HETATM    8  H   UNL     1       6.416  28.604  58.319  1.00  0.00     0.131 HD
ENDROOT
BRANCH   3   9
HETATM    9  N   UNL     1       7.753  26.575  57.670  1.00  0.00    -0.353 N 
HETATM   10  C   UNL     1       8.636  25.406  57.583  1.00  0.00     0.153 C 
HETATM   11  C   UNL     1       8.399  24.674  56.244  1.00  0.00     0.256 C 
HETATM   12  N   UNL     1       6.920  24.301  56.105  1.00  0.00    -0.056 N 
HETATM   13  H   UNL     1       6.667  23.735  56.916  1.00  0.00     0.281 HD
HETATM   14  C   UNL     1       6.040  25.554  56.229  1.00  0.00     0.256 C 
HETATM   15  C   UNL     1       6.317  26.235  57.585  1.00  0.00     0.153 C 
BRANCH  12  16
HETATM   16  C   UNL     1       6.582  23.434  54.885  1.00  0.00     0.254 C 
BRANCH  16  17
HETATM   17  C   UNL     1       6.410  24.271  53.617  1.00  0.00    -0.023 A 
HETATM   18  C   UNL     1       5.145  24.508  53.045  1.00  0.00     0.009 A 
HETATM   19  C   UNL     1       5.019  25.241  51.865  1.00  0.00     0.001 A 
HETATM   20  C   UNL     1       6.151  25.754  51.239  1.00  0.00     0.000 A 
HETATM   21  C   UNL     1       7.410  25.544  51.795  1.00  0.00     0.001 A 
HETATM   22  C   UNL     1       7.541  24.811  52.976  1.00  0.00     0.009 A 
ENDBRANCH  16  17
BRANCH  16  23
HETATM   23  C   UNL     1       7.457  22.175  54.732  1.00  0.00    -0.023 A 
HETATM   24  C   UNL     1       7.797  21.339  55.814  1.00  0.00     0.009 A 
HETATM   25  C   UNL     1       8.545  20.172  55.624  1.00  0.00     0.001 A 
HETATM   26  C   UNL     1       8.958  19.802  54.349  1.00  0.00     0.000 A 
HETATM   27  C   UNL     1       8.609  20.590  53.259  1.00  0.00     0.001 A 
HETATM   28  C   UNL     1       7.855  21.752  53.445  1.00  0.00     0.009 A 
ENDBRANCH  16  23
ENDBRANCH  12  16
ENDBRANCH   3   9
BRANCH   1  29
HETATM   29  C   UNL     1       7.705  30.517  59.287  1.00  0.00     0.240 C 
HETATM   30  N   UNL     1       7.063  31.619  59.812  1.00  0.00    -0.326 N 
HETATM   31  H   UNL     1       6.669  32.312  59.181  1.00  0.00     0.169 HD
HETATM   32  O   UNL     1       8.466  29.772  59.916  1.00  0.00    -0.271 OA
BRANCH  30  33
HETATM   33  C   UNL     1       7.076  32.043  61.160  1.00  0.00     0.034 A 
HETATM   34  C   UNL     1       8.234  32.180  61.926  1.00  0.00     0.032 A 
HETATM   35  C   UNL     1       8.159  32.600  63.263  1.00  0.00     0.039 A 
HETATM   36  C   UNL     1       6.925  32.895  63.840  1.00  0.00     0.068 A 
HETATM   37  C   UNL     1       5.767  32.751  63.076  1.00  0.00     0.039 A 
HETATM   38  C   UNL     1       5.838  32.318  61.751  1.00  0.00     0.032 A 
BRANCH  36  39
HETATM   39  O   UNL     1       6.712  33.333  65.116  1.00  0.00    -0.352 OA
BRANCH  39  40
HETATM   40  C   UNL     1       5.383  33.711  65.466  1.00  0.00     0.171 C 
HETATM   41  C   UNL     1       5.404  34.217  66.898  1.00  0.00     0.034 C 
ENDBRANCH  39  40
ENDBRANCH  36  39
ENDBRANCH  30  33
ENDBRANCH   1  29
TORSDOF 8
ENDMDL
MODEL 3
REMARK VINA RESULT:      -9.3      0.635      3.121
REMARK  8 active torsions:
REMARK  status: ('A' for Active; 'I' for Inactive)
REMARK    1  A    between atoms: C_2  and  O_3 
REMARK    2  A    between atoms: O_3  and  C_4 
REMARK    3  A    between atoms: C_7  and  N_8 
REMARK       I    between atoms: N_8  and  C_9 
REMARK    4  A    between atoms: C_9  and  C_10 
REMARK    5  A    between atoms: C_12  and  N_13 
REMARK    6  A    between atoms: N_16  and  C_18 
REMARK    7  A    between atoms: C_18  and  C_19 
REMARK    8  A    between atoms: C_18  and  C_25 
ROOT
HETATM    1  C   UNL     1       3.227  29.037  52.957  1.00  0.00     0.164 C 
HETATM    2  N   UNL     1       3.655  27.645  52.731  1.00  0.00    -0.249 NA
HETATM    3  C   UNL     1       4.604  27.419  51.777  1.00  0.00     0.181 C 
HETATM    4  N   UNL     1       4.997  28.309  50.922  1.00  0.00    -0.185 NA
HETATM    5  C   UNL     1       4.446  29.560  50.976  1.00  0.00     0.247 C 
HETATM    6  O   UNL     1       5.047  30.569  50.613  1.00  0.00    -0.271 OA
HETATM    7  C   UNL     1       3.095  29.700  51.610  1.00  0.00     0.134 C 
HETATM    8  H   UNL     1       3.839  27.212  53.633  1.00  0.00     0.131 HD
ENDROOT
BRANCH   3   9
HETATM    9  N   UNL     1       5.150  26.156  51.765  1.00  0.00    -0.353 N 
HETATM   10  C   UNL     1       4.622  24.982  52.471  1.00  0.00     0.153 C 
HETATM   11  C   UNL     1       5.525  24.654  53.679  1.00  0.00     0.256 C 
HETATM   12  N   UNL     1       6.971  24.456  53.215  1.00  0.00    -0.056 N 
HETATM   13  H   UNL     1       6.970  23.718  52.509  1.00  0.00     0.281 HD
HETATM   14  C   UNL     1       7.464  25.700  52.461  1.00  0.00     0.256 C 
HETATM   15  C   UNL     1       6.528  25.972  51.266  1.00  0.00     0.153 C 
BRANCH  12  16
HETATM   16  C   UNL     1       7.942  23.975  54.302  1.00  0.00     0.254 C 
BRANCH  16  17
HETATM   17  C   UNL     1       7.705  24.683  55.636  1.00  0.00    -0.023 A 
HETATM   18  C   UNL     1       6.422  25.095  56.045  1.00  0.00     0.009 A 
HETATM   19  C   UNL     1       6.239  25.777  57.249  1.00  0.00     0.001 A 
HETATM   20  C   UNL     1       7.331  26.054  58.066  1.00  0.00     0.000 A 
HETATM   21  C   UNL     1       8.606  25.642  57.687  1.00  0.00     0.001 A 
HETATM   22  C   UNL     1       8.794  24.960  56.484  1.00  0.00     0.009 A 
ENDBRANCH  16  17
BRANCH  16  23
HETATM   23  C   UNL     1       8.101  22.444  54.386  1.00  0.00    -0.023 A 
HETATM   24  C   UNL     1       8.607  21.665  53.327  1.00  0.00     0.009 A 
HETATM   25  C   UNL     1       8.791  20.284  53.464  1.00  0.00     0.001 A 
HETATM   26  C   UNL     1       8.491  19.652  54.665  1.00  0.00     0.000 A 
HETATM   27  C   UNL     1       8.022  20.400  55.737  1.00  0.00     0.001 A 
HETATM   28  C   UNL     1       7.844  21.780  55.605  1.00  0.00     0.009 A 
ENDBRANCH  16  23
ENDBRANCH  12  16
ENDBRANCH   3   9
BRANCH   1  29
HETATM   29  C   UNL     1       4.205  29.660  53.998  1.00  0.00     0.240 C 
HETATM   30  N   UNL     1       4.971  28.795  54.752  1.00  0.00    -0.326 N 
HETATM   31  H   UNL     1       4.738  27.806  54.763  1.00  0.00     0.169 HD
HETATM   32  O   UNL     1       4.190  30.891  54.123  1.00  0.00    -0.271 OA
BRANCH  30  33
HETATM   33  C   UNL     1       5.933  29.147  55.725  1.00  0.00     0.034 A 
HETATM   34  C   UNL     1       5.634  29.803  56.920  1.00  0.00     0.032 A 
HETATM   35  C   UNL     1       6.652  30.124  57.831  1.00  0.00     0.039 A 
HETATM   36  C   UNL     1       7.976  29.783  57.557  1.00  0.00     0.068 A 
HETATM   37  C   UNL     1       8.275  29.136  56.359  1.00  0.00     0.039 A 
HETATM   38  C   UNL     1       7.266  28.830  55.444  1.00  0.00     0.032 A 
BRANCH  36  39
HETATM   39  O   UNL     1       9.054  30.015  58.362  1.00  0.00    -0.352 OA
BRANCH  39  40
HETATM   40  C   UNL     1       8.796  30.442  59.697  1.00  0.00     0.171 C 
HETATM   41  C   UNL     1       9.124  31.921  59.786  1.00  0.00     0.034 C 
ENDBRANCH  39  40
ENDBRANCH  36  39
ENDBRANCH  30  33
ENDBRANCH   1  29
TORSDOF 8
ENDMDL
MODEL 4
REMARK VINA RESULT:      -9.1      4.260      7.483
REMARK  8 active torsions:
REMARK  status: ('A' for Active; 'I' for Inactive)
REMARK    1  A    between atoms: C_2  and  O_3 
REMARK    2  A    between atoms: O_3  and  C_4 
REMARK    3  A    between atoms: C_7  and  N_8 
REMARK       I    between atoms: N_8  and  C_9 
REMARK    4  A    between atoms: C_9  and  C_10 
REMARK    5  A    between atoms: C_12  and  N_13 
REMARK    6  A    between atoms: N_16  and  C_18 
REMARK    7  A    between atoms: C_18  and  C_19 
REMARK    8  A    between atoms: C_18  and  C_25 
ROOT
HETATM    1  C   UNL     1       7.735  32.330  59.216  1.00  0.00     0.164 C 
HETATM    2  N   UNL     1       7.210  31.237  58.378  1.00  0.00    -0.249 NA
HETATM    3  C   UNL     1       7.613  29.966  58.667  1.00  0.00     0.181 C 
HETATM    4  N   UNL     1       8.578  29.681  59.483  1.00  0.00    -0.185 NA
HETATM    5  C   UNL     1       9.231  30.705  60.112  1.00  0.00     0.247 C 
HETATM    6  O   UNL     1       9.759  30.581  61.215  1.00  0.00    -0.271 OA
HETATM    7  C   UNL     1       9.196  32.057  59.464  1.00  0.00     0.134 C 
HETATM    8  H   UNL     1       6.205  31.358  58.281  1.00  0.00     0.131 HD
ENDROOT
BRANCH   3   9
HETATM    9  N   UNL     1       6.922  28.961  58.031  1.00  0.00    -0.353 N 
HETATM   10  C   UNL     1       7.427  27.612  57.751  1.00  0.00     0.153 C 
HETATM   11  C   UNL     1       7.728  27.472  56.243  1.00  0.00     0.256 C 
HETATM   12  N   UNL     1       6.478  27.809  55.425  1.00  0.00    -0.056 N 
HETATM   13  H   UNL     1       5.728  27.191  55.739  1.00  0.00     0.281 HD
HETATM   14  C   UNL     1       5.977  29.219  55.775  1.00  0.00     0.256 C 
HETATM   15  C   UNL     1       5.689  29.294  57.288  1.00  0.00     0.153 C 
BRANCH  12  16
HETATM   16  C   UNL     1       6.603  27.561  53.916  1.00  0.00     0.254 C 
BRANCH  16  17
HETATM   17  C   UNL     1       6.896  26.095  53.599  1.00  0.00    -0.023 A 
HETATM   18  C   UNL     1       6.465  25.049  54.437  1.00  0.00     0.009 A 
HETATM   19  C   UNL     1       6.781  23.721  54.146  1.00  0.00     0.001 A 
HETATM   20  C   UNL     1       7.527  23.415  53.012  1.00  0.00     0.000 A 
HETATM   21  C   UNL     1       7.951  24.433  52.162  1.00  0.00     0.001 A 
HETATM   22  C   UNL     1       7.638  25.762  52.449  1.00  0.00     0.009 A 
ENDBRANCH  16  17
BRANCH  16  23
HETATM   23  C   UNL     1       5.495  28.212  53.066  1.00  0.00    -0.023 A 
HETATM   24  C   UNL     1       5.761  29.006  51.933  1.00  0.00     0.009 A 
HETATM   25  C   UNL     1       4.724  29.531  51.153  1.00  0.00     0.001 A 
HETATM   26  C   UNL     1       3.399  29.263  51.475  1.00  0.00     0.000 A 
HETATM   27  C   UNL     1       3.107  28.456  52.567  1.00  0.00     0.001 A 
HETATM   28  C   UNL     1       4.141  27.924  53.343  1.00  0.00     0.009 A 
ENDBRANCH  16  23
ENDBRANCH  12  16
ENDBRANCH   3   9
BRANCH   1  29
HETATM   29  C   UNL     1       6.787  32.470  60.445  1.00  0.00     0.240 C 
HETATM   30  N   UNL     1       7.325  32.974  61.612  1.00  0.00    -0.326 N 
HETATM   31  H   UNL     1       8.335  33.042  61.705  1.00  0.00     0.169 HD
HETATM   32  O   UNL     1       5.626  32.065  60.315  1.00  0.00    -0.271 OA
BRANCH  30  33
HETATM   33  C   UNL     1       6.641  33.206  62.826  1.00  0.00     0.034 A 
HETATM   34  C   UNL     1       5.269  33.439  62.920  1.00  0.00     0.032 A 
HETATM   35  C   UNL     1       4.668  33.670  64.167  1.00  0.00     0.039 A 
HETATM   36  C   UNL     1       5.435  33.659  65.331  1.00  0.00     0.068 A 
HETATM   37  C   UNL     1       6.808  33.434  65.236  1.00  0.00     0.039 A 
HETATM   38  C   UNL     1       7.410  33.221  63.994  1.00  0.00     0.032 A 
BRANCH  36  39
HETATM   39  O   UNL     1       4.977  33.846  66.604  1.00  0.00    -0.352 OA
BRANCH  39  40
HETATM   40  C   UNL     1       5.260  35.097  67.226  1.00  0.00     0.171 C 
HETATM   41  C   UNL     1       4.211  36.094  66.767  1.00  0.00     0.034 C 
ENDBRANCH  39  40
ENDBRANCH  36  39
ENDBRANCH  30  33
ENDBRANCH   1  29
TORSDOF 8
ENDMDL
MODEL 5
REMARK VINA RESULT:      -9.0      2.307      6.253
REMARK  8 active torsions:
REMARK  status: ('A' for Active; 'I' for Inactive)
REMARK    1  A    between atoms: C_2  and  O_3 
REMARK    2  A    between atoms: O_3  and  C_4 
REMARK    3  A    between atoms: C_7  and  N_8 
REMARK       I    between atoms: N_8  and  C_9 
REMARK    4  A    between atoms: C_9  and  C_10 
REMARK    5  A    between atoms: C_12  and  N_13 
REMARK    6  A    between atoms: N_16  and  C_18 
REMARK    7  A    between atoms: C_18  and  C_19 
REMARK    8  A    between atoms: C_18  and  C_25 
ROOT
HETATM    1  C   UNL     1       5.565  31.327  55.957  1.00  0.00     0.164 C 
HETATM    2  N   UNL     1       6.245  30.046  56.215  1.00  0.00    -0.249 NA
HETATM    3  C   UNL     1       5.641  29.164  57.063  1.00  0.00     0.181 C 
HETATM    4  N   UNL     1       4.626  29.461  57.811  1.00  0.00    -0.185 NA
HETATM    5  C   UNL     1       4.109  30.726  57.747  1.00  0.00     0.247 C 
HETATM    6  O   UNL     1       2.928  30.977  57.976  1.00  0.00    -0.271 OA
HETATM    7  C   UNL     1       5.012  31.824  57.268  1.00  0.00     0.134 C 
HETATM    8  H   UNL     1       6.542  29.652  55.325  1.00  0.00     0.131 HD
ENDROOT
BRANCH   3   9
HETATM    9  N   UNL     1       6.174  27.897  57.087  1.00  0.00    -0.353 N 
HETATM   10  C   UNL     1       7.603  27.562  57.054  1.00  0.00     0.153 C 
HETATM   11  C   UNL     1       7.969  26.986  55.669  1.00  0.00     0.256 C 
HETATM   12  N   UNL     1       7.080  25.781  55.350  1.00  0.00    -0.056 N 
HETATM   13  H   UNL     1       7.195  25.103  56.105  1.00  0.00     0.281 HD
HETATM   14  C   UNL     1       5.598  26.179  55.424  1.00  0.00     0.256 C 
HETATM   15  C   UNL     1       5.293  26.740  56.828  1.00  0.00     0.153 C 
BRANCH  12  16
HETATM   16  C   UNL     1       7.447  25.025  54.066  1.00  0.00     0.254 C 
BRANCH  16  17
HETATM   17  C   UNL     1       7.720  23.545  54.331  1.00  0.00    -0.023 A 
HETATM   18  C   UNL     1       8.242  22.693  53.339  1.00  0.00     0.009 A 
HETATM   19  C   UNL     1       8.443  21.335  53.594  1.00  0.00     0.001 A 
HETATM   20  C   UNL     1       8.132  20.807  54.844  1.00  0.00     0.000 A 
HETATM   21  C   UNL     1       7.629  21.636  55.844  1.00  0.00     0.001 A 
HETATM   22  C   UNL     1       7.426  22.994  55.593  1.00  0.00     0.009 A 
ENDBRANCH  16  17
BRANCH  16  23
HETATM   23  C   UNL     1       6.531  25.324  52.864  1.00  0.00    -0.023 A 
HETATM   24  C   UNL     1       5.432  24.514  52.516  1.00  0.00     0.009 A 
HETATM   25  C   UNL     1       4.588  24.852  51.451  1.00  0.00     0.001 A 
HETATM   26  C   UNL     1       4.812  26.013  50.720  1.00  0.00     0.000 A 
HETATM   27  C   UNL     1       5.868  26.847  51.061  1.00  0.00     0.001 A 
HETATM   28  C   UNL     1       6.707  26.516  52.129  1.00  0.00     0.009 A 
ENDBRANCH  16  23
ENDBRANCH  12  16
ENDBRANCH   3   9
BRANCH   1  29
HETATM   29  C   UNL     1       4.577  31.099  54.774  1.00  0.00     0.240 C 
HETATM   30  N   UNL     1       4.968  30.232  53.774  1.00  0.00    -0.326 N 
HETATM   31  H   UNL     1       5.939  29.935  53.725  1.00  0.00     0.169 HD
HETATM   32  O   UNL     1       3.529  31.756  54.776  1.00  0.00    -0.271 OA
BRANCH  30  33
HETATM   33  C   UNL     1       4.219  29.865  52.634  1.00  0.00     0.034 A 
HETATM   34  C   UNL     1       3.126  28.998  52.661  1.00  0.00     0.032 A 
HETATM   35  C   UNL     1       2.441  28.678  51.479  1.00  0.00     0.039 A 
HETATM   36  C   UNL     1       2.838  29.230  50.263  1.00  0.00     0.068 A 
HETATM   37  C   UNL     1       3.935  30.090  50.235  1.00  0.00     0.039 A 
HETATM   38  C   UNL     1       4.629  30.397  51.407  1.00  0.00     0.032 A 
BRANCH  36  39
HETATM   39  O   UNL     1       2.249  29.022  49.048  1.00  0.00    -0.352 OA
BRANCH  39  40
HETATM   40  C   UNL     1       2.431  27.745  48.441  1.00  0.00     0.171 C 
HETATM   41  C   UNL     1       1.079  27.267  47.944  1.00  0.00     0.034 C 
ENDBRANCH  39  40
ENDBRANCH  36  39
ENDBRANCH  30  33
ENDBRANCH   1  29
TORSDOF 8
ENDMDL
MODEL 6
REMARK VINA RESULT:      -8.9      3.741      6.224
REMARK  8 active torsions:
REMARK  status: ('A' for Active; 'I' for Inactive)
REMARK    1  A    between atoms: C_2  and  O_3 
REMARK    2  A    between atoms: O_3  and  C_4 
REMARK    3  A    between atoms: C_7  and  N_8 
REMARK       I    between atoms: N_8  and  C_9 
REMARK    4  A    between atoms: C_9  and  C_10 
REMARK    5  A    between atoms: C_12  and  N_13 
REMARK    6  A    between atoms: N_16  and  C_18 
REMARK    7  A    between atoms: C_18  and  C_19 
REMARK    8  A    between atoms: C_18  and  C_25 
ROOT
HETATM    1  C   UNL     1       7.178  31.183  57.735  1.00  0.00     0.164 C 
HETATM    2  N   UNL     1       6.885  29.833  57.221  1.00  0.00    -0.249 NA
HETATM    3  C   UNL     1       7.376  28.768  57.918  1.00  0.00     0.181 C 
HETATM    4  N   UNL     1       8.249  28.867  58.870  1.00  0.00    -0.185 NA
HETATM    5  C   UNL     1       8.702  30.109  59.219  1.00  0.00     0.247 C 
HETATM    6  O   UNL     1       9.089  30.383  60.353  1.00  0.00    -0.271 OA
HETATM    7  C   UNL     1       8.613  31.198  58.192  1.00  0.00     0.134 C 
HETATM    8  H   UNL     1       5.895  29.780  56.996  1.00  0.00     0.131 HD
ENDROOT
BRANCH   3   9
HETATM    9  N   UNL     1       6.884  27.536  57.553  1.00  0.00    -0.353 N 
HETATM   10  C   UNL     1       7.541  26.244  57.780  1.00  0.00     0.153 C 
HETATM   11  C   UNL     1       8.088  25.697  56.443  1.00  0.00     0.256 C 
HETATM   12  N   UNL     1       6.959  25.606  55.413  1.00  0.00    -0.056 N 
HETATM   13  H   UNL     1       6.225  25.018  55.811  1.00  0.00     0.281 HD
HETATM   14  C   UNL     1       6.290  26.977  55.233  1.00  0.00     0.256 C 
HETATM   15  C   UNL     1       5.760  27.465  56.597  1.00  0.00     0.153 C 
BRANCH  12  16
HETATM   16  C   UNL     1       7.343  24.933  54.088  1.00  0.00     0.254 C 
BRANCH  16  17
HETATM   17  C   UNL     1       7.652  23.447  54.268  1.00  0.00    -0.023 A 
HETATM   18  C   UNL     1       8.216  22.672  53.236  1.00  0.00     0.009 A 
HETATM   19  C   UNL     1       8.450  21.308  53.413  1.00  0.00     0.001 A 
HETATM   20  C   UNL     1       8.131  20.696  54.621  1.00  0.00     0.000 A 
HETATM   21  C   UNL     1       7.586  21.447  55.659  1.00  0.00     0.001 A 
HETATM   22  C   UNL     1       7.350  22.812  55.488  1.00  0.00     0.009 A 
ENDBRANCH  16  17
BRANCH  16  23
HETATM   23  C   UNL     1       6.418  25.277  52.905  1.00  0.00    -0.023 A 
HETATM   24  C   UNL     1       6.720  26.277  51.959  1.00  0.00     0.009 A 
HETATM   25  C   UNL     1       5.881  26.520  50.864  1.00  0.00     0.001 A 
HETATM   26  C   UNL     1       4.733  25.759  50.678  1.00  0.00     0.000 A 
HETATM   27  C   UNL     1       4.428  24.744  51.576  1.00  0.00     0.001 A 
HETATM   28  C   UNL     1       5.267  24.496  52.665  1.00  0.00     0.009 A 
ENDBRANCH  16  23
ENDBRANCH  12  16
ENDBRANCH   3   9
BRANCH   1  29
HETATM   29  C   UNL     1       6.066  31.538  58.768  1.00  0.00     0.240 C 
HETATM   30  N   UNL     1       6.428  32.301  59.859  1.00  0.00    -0.326 N 
HETATM   31  H   UNL     1       7.415  32.431  60.068  1.00  0.00     0.169 HD
HETATM   32  O   UNL     1       4.940  31.065  58.574  1.00  0.00    -0.271 OA
BRANCH  30  33
HETATM   33  C   UNL     1       5.579  32.755  60.892  1.00  0.00     0.034 A 
HETATM   34  C   UNL     1       4.540  33.667  60.707  1.00  0.00     0.032 A 
HETATM   35  C   UNL     1       3.746  34.073  61.791  1.00  0.00     0.039 A 
HETATM   36  C   UNL     1       3.981  33.563  63.066  1.00  0.00     0.068 A 
HETATM   37  C   UNL     1       5.025  32.658  63.252  1.00  0.00     0.039 A 
HETATM   38  C   UNL     1       5.826  32.265  62.179  1.00  0.00     0.032 A 
BRANCH  36  39
HETATM   39  O   UNL     1       3.274  33.854  64.198  1.00  0.00    -0.352 OA
BRANCH  39  40
HETATM   40  C   UNL     1       4.000  34.379  65.307  1.00  0.00     0.171 C 
HETATM   41  C   UNL     1       4.155  35.875  65.097  1.00  0.00     0.034 C 
ENDBRANCH  39  40
ENDBRANCH  36  39
ENDBRANCH  30  33
ENDBRANCH   1  29
TORSDOF 8
ENDMDL
MODEL 7
REMARK VINA RESULT:      -8.8      3.222      8.724
REMARK  8 active torsions:
REMARK  status: ('A' for Active; 'I' for Inactive)
REMARK    1  A    between atoms: C_2  and  O_3 
REMARK    2  A    between atoms: O_3  and  C_4 
REMARK    3  A    between atoms: C_7  and  N_8 
REMARK       I    between atoms: N_8  and  C_9 
REMARK    4  A    between atoms: C_9  and  C_10 
REMARK    5  A    between atoms: C_12  and  N_13 
REMARK    6  A    between atoms: N_16  and  C_18 
REMARK    7  A    between atoms: C_18  and  C_19 
REMARK    8  A    between atoms: C_18  and  C_25 
ROOT
HETATM    1  C   UNL     1       6.188  28.574  52.964  1.00  0.00     0.164 C 
HETATM    2  N   UNL     1       6.196  28.937  54.392  1.00  0.00    -0.249 NA
HETATM    3  C   UNL     1       4.997  28.989  55.041  1.00  0.00     0.181 C 
HETATM    4  N   UNL     1       3.849  28.948  54.443  1.00  0.00    -0.185 NA
HETATM    5  C   UNL     1       3.821  28.830  53.081  1.00  0.00     0.247 C 
HETATM    6  O   UNL     1       2.897  28.290  52.477  1.00  0.00    -0.271 OA
HETATM    7  C   UNL     1       5.028  29.286  52.317  1.00  0.00     0.134 C 
HETATM    8  H   UNL     1       6.916  28.392  54.861  1.00  0.00     0.131 HD
ENDROOT
BRANCH   3   9
HETATM    9  N   UNL     1       5.063  29.089  56.412  1.00  0.00    -0.353 N 
HETATM   10  C   UNL     1       4.008  29.609  57.289  1.00  0.00     0.153 C 
HETATM   11  C   UNL     1       4.414  31.001  57.820  1.00  0.00     0.256 C 
HETATM   12  N   UNL     1       5.772  30.919  58.523  1.00  0.00    -0.056 N 
HETATM   13  H   UNL     1       5.695  30.220  59.263  1.00  0.00     0.281 HD
HETATM   14  C   UNL     1       6.832  30.345  57.570  1.00  0.00     0.256 C 
HETATM   15  C   UNL     1       6.373  28.956  57.081  1.00  0.00     0.153 C 
BRANCH  12  16
HETATM   16  C   UNL     1       6.217  32.208  59.227  1.00  0.00     0.254 C 
BRANCH  16  17
HETATM   17  C   UNL     1       5.031  33.000  59.777  1.00  0.00    -0.023 A 
HETATM   18  C   UNL     1       4.601  34.205  59.189  1.00  0.00     0.009 A 
HETATM   19  C   UNL     1       3.541  34.930  59.735  1.00  0.00     0.001 A 
HETATM   20  C   UNL     1       2.889  34.462  60.872  1.00  0.00     0.000 A 
HETATM   21  C   UNL     1       3.288  33.264  61.460  1.00  0.00     0.001 A 
HETATM   22  C   UNL     1       4.348  32.536  60.918  1.00  0.00     0.009 A 
ENDBRANCH  16  17
BRANCH  16  23
HETATM   23  C   UNL     1       7.400  32.031  60.199  1.00  0.00    -0.023 A 
HETATM   24  C   UNL     1       7.239  31.635  61.542  1.00  0.00     0.009 A 
HETATM   25  C   UNL     1       8.343  31.428  62.376  1.00  0.00     0.001 A 
HETATM   26  C   UNL     1       9.633  31.593  61.887  1.00  0.00     0.000 A 
HETATM   27  C   UNL     1       9.824  31.950  60.558  1.00  0.00     0.001 A 
HETATM   28  C   UNL     1       8.723  32.151  59.721  1.00  0.00     0.009 A 
ENDBRANCH  16  23
ENDBRANCH  12  16
ENDBRANCH   3   9
BRANCH   1  29
HETATM   29  C   UNL     1       6.246  27.019  52.879  1.00  0.00     0.240 C 
HETATM   30  N   UNL     1       7.169  26.370  53.672  1.00  0.00    -0.326 N 
HETATM   31  H   UNL     1       7.906  26.909  54.120  1.00  0.00     0.169 HD
HETATM   32  O   UNL     1       5.499  26.468  52.061  1.00  0.00    -0.271 OA
BRANCH  30  33
HETATM   33  C   UNL     1       7.368  24.975  53.769  1.00  0.00     0.034 A 
HETATM   34  C   UNL     1       7.829  24.175  52.723  1.00  0.00     0.032 A 
HETATM   35  C   UNL     1       7.991  22.793  52.900  1.00  0.00     0.039 A 
HETATM   36  C   UNL     1       7.702  22.201  54.129  1.00  0.00     0.068 A 
HETATM   37  C   UNL     1       7.234  22.999  55.172  1.00  0.00     0.039 A 
HETATM   38  C   UNL     1       7.056  24.373  54.993  1.00  0.00     0.032 A 
BRANCH  36  39
HETATM   39  O   UNL     1       7.837  20.879  54.442  1.00  0.00    -0.352 OA
BRANCH  39  40
HETATM   40  C   UNL     1       7.774  20.522  55.821  1.00  0.00     0.171 C 
HETATM   41  C   UNL     1       9.194  20.301  56.311  1.00  0.00     0.034 C 
ENDBRANCH  39  40
ENDBRANCH  36  39
ENDBRANCH  30  33
ENDBRANCH   1  29
TORSDOF 8
ENDMDL
MODEL 8
REMARK VINA RESULT:      -8.7      5.424     10.739
REMARK  8 active torsions:
REMARK  status: ('A' for Active; 'I' for Inactive)
REMARK    1  A    between atoms: C_2  and  O_3 
REMARK    2  A    between atoms: O_3  and  C_4 
REMARK    3  A    between atoms: C_7  and  N_8 
REMARK       I    between atoms: N_8  and  C_9 
REMARK    4  A    between atoms: C_9  and  C_10 
REMARK    5  A    between atoms: C_12  and  N_13 
REMARK    6  A    between atoms: N_16  and  C_18 
REMARK    7  A    between atoms: C_18  and  C_19 
REMARK    8  A    between atoms: C_18  and  C_25 
ROOT
HETATM    1  C   UNL     1       7.917  28.756  57.958  1.00  0.00     0.164 C 
HETATM    2  N   UNL     1       8.056  29.439  59.256  1.00  0.00    -0.249 NA
HETATM    3  C   UNL     1       8.938  30.477  59.338  1.00  0.00     0.181 C 
HETATM    4  N   UNL     1       9.805  30.762  58.419  1.00  0.00    -0.185 NA
HETATM    5  C   UNL     1       9.840  29.995  57.287  1.00  0.00     0.247 C 
HETATM    6  O   UNL     1      10.209  30.429  56.198  1.00  0.00    -0.271 OA
HETATM    7  C   UNL     1       9.297  28.600  57.373  1.00  0.00     0.134 C 
HETATM    8  H   UNL     1       7.126  29.635  59.620  1.00  0.00     0.131 HD
ENDROOT
BRANCH   3   9
HETATM    9  N   UNL     1       8.862  31.238  60.481  1.00  0.00    -0.353 N 
HETATM   10  C   UNL     1       8.764  30.725  61.852  1.00  0.00     0.153 C 
HETATM   11  C   UNL     1       7.334  30.948  62.389  1.00  0.00     0.256 C 
HETATM   12  N   UNL     1       6.961  32.430  62.291  1.00  0.00    -0.056 N 
HETATM   13  H   UNL     1       7.665  32.960  62.807  1.00  0.00     0.281 HD
HETATM   14  C   UNL     1       7.106  32.921  60.843  1.00  0.00     0.256 C 
HETATM   15  C   UNL     1       8.553  32.678  60.367  1.00  0.00     0.153 C 
BRANCH  12  16
HETATM   16  C   UNL     1       5.619  32.806  62.934  1.00  0.00     0.254 C 
BRANCH  16  17
HETATM   17  C   UNL     1       5.795  33.349  64.352  1.00  0.00    -0.023 A 
HETATM   18  C   UNL     1       7.067  33.602  64.902  1.00  0.00     0.009 A 
HETATM   19  C   UNL     1       7.201  34.058  66.214  1.00  0.00     0.001 A 
HETATM   20  C   UNL     1       6.070  34.274  66.996  1.00  0.00     0.000 A 
HETATM   21  C   UNL     1       4.803  34.045  66.467  1.00  0.00     0.001 A 
HETATM   22  C   UNL     1       4.664  33.588  65.156  1.00  0.00     0.009 A 
ENDBRANCH  16  17
BRANCH  16  23
HETATM   23  C   UNL     1       4.682  33.624  62.025  1.00  0.00    -0.023 A 
HETATM   24  C   UNL     1       3.573  33.063  61.361  1.00  0.00     0.009 A 
HETATM   25  C   UNL     1       2.711  33.853  60.591  1.00  0.00     0.001 A 
HETATM   26  C   UNL     1       2.924  35.221  60.480  1.00  0.00     0.000 A 
HETATM   27  C   UNL     1       3.990  35.808  61.151  1.00  0.00     0.001 A 
HETATM   28  C   UNL     1       4.848  35.023  61.926  1.00  0.00     0.009 A 
ENDBRANCH  16  23
ENDBRANCH  12  16
ENDBRANCH   3   9
BRANCH   1  29
HETATM   29  C   UNL     1       6.846  29.533  57.135  1.00  0.00     0.240 C 
HETATM   30  N   UNL     1       5.841  30.168  57.835  1.00  0.00    -0.326 N 
HETATM   31  H   UNL     1       5.704  29.948  58.818  1.00  0.00     0.169 HD
HETATM   32  O   UNL     1       6.932  29.483  55.903  1.00  0.00    -0.271 OA
BRANCH  30  33
HETATM   33  C   UNL     1       4.793  30.945  57.292  1.00  0.00     0.034 A 
HETATM   34  C   UNL     1       3.796  30.439  56.458  1.00  0.00     0.032 A 
HETATM   35  C   UNL     1       2.793  31.282  55.953  1.00  0.00     0.039 A 
HETATM   36  C   UNL     1       2.777  32.635  56.286  1.00  0.00     0.068 A 
HETATM   37  C   UNL     1       3.779  33.142  57.113  1.00  0.00     0.039 A 
HETATM   38  C   UNL     1       4.787  32.308  57.603  1.00  0.00     0.032 A 
BRANCH  36  39
HETATM   39  O   UNL     1       1.852  33.557  55.885  1.00  0.00    -0.352 OA
BRANCH  39  40
HETATM   40  C   UNL     1       2.340  34.774  55.327  1.00  0.00     0.171 C 
HETATM   41  C   UNL     1       2.218  34.676  53.817  1.00  0.00     0.034 C 
ENDBRANCH  39  40
ENDBRANCH  36  39
ENDBRANCH  30  33
ENDBRANCH   1  29
TORSDOF 8
ENDMDL
MODEL 9
REMARK VINA RESULT:      -8.4      4.420      9.870
REMARK  8 active torsions:
REMARK  status: ('A' for Active; 'I' for Inactive)
REMARK    1  A    between atoms: C_2  and  O_3 
REMARK    2  A    between atoms: O_3  and  C_4 
REMARK    3  A    between atoms: C_7  and  N_8 
REMARK       I    between atoms: N_8  and  C_9 
REMARK    4  A    between atoms: C_9  and  C_10 
REMARK    5  A    between atoms: C_12  and  N_13 
REMARK    6  A    between atoms: N_16  and  C_18 
REMARK    7  A    between atoms: C_18  and  C_19 
REMARK    8  A    between atoms: C_18  and  C_25 
ROOT
HETATM    1  C   UNL     1       4.835  33.274  55.648  1.00  0.00     0.164 C 
HETATM    2  N   UNL     1       4.742  33.488  57.102  1.00  0.00    -0.249 NA
HETATM    3  C   UNL     1       3.499  33.481  57.667  1.00  0.00     0.181 C 
HETATM    4  N   UNL     1       2.397  33.508  56.988  1.00  0.00    -0.185 NA
HETATM    5  C   UNL     1       2.466  33.531  55.623  1.00  0.00     0.247 C 
HETATM    6  O   UNL     1       1.587  33.062  54.903  1.00  0.00    -0.271 OA
HETATM    7  C   UNL     1       3.723  34.056  54.997  1.00  0.00     0.134 C 
HETATM    8  H   UNL     1       5.427  32.893  57.562  1.00  0.00     0.131 HD
ENDROOT
BRANCH   3   9
HETATM    9  N   UNL     1       3.468  33.438  59.042  1.00  0.00    -0.353 N 
HETATM   10  C   UNL     1       3.412  34.599  59.939  1.00  0.00     0.153 C 
HETATM   11  C   UNL     1       4.781  34.792  60.625  1.00  0.00     0.256 C 
HETATM   12  N   UNL     1       5.188  33.508  61.355  1.00  0.00    -0.056 N 
HETATM   13  H   UNL     1       4.443  33.279  62.014  1.00  0.00     0.281 HD
HETATM   14  C   UNL     1       5.206  32.323  60.378  1.00  0.00     0.256 C 
HETATM   15  C   UNL     1       3.813  32.178  59.731  1.00  0.00     0.153 C 
BRANCH  12  16
HETATM   16  C   UNL     1       6.461  33.620  62.204  1.00  0.00     0.254 C 
BRANCH  16  17
HETATM   17  C   UNL     1       6.146  33.768  63.693  1.00  0.00    -0.023 A 
HETATM   18  C   UNL     1       7.160  33.874  64.663  1.00  0.00     0.009 A 
HETATM   19  C   UNL     1       6.846  33.967  66.020  1.00  0.00     0.001 A 
HETATM   20  C   UNL     1       5.516  33.960  66.429  1.00  0.00     0.000 A 
HETATM   21  C   UNL     1       4.497  33.871  65.484  1.00  0.00     0.001 A 
HETATM   22  C   UNL     1       4.806  33.778  64.127  1.00  0.00     0.009 A 
ENDBRANCH  16  17
BRANCH  16  23
HETATM   23  C   UNL     1       7.553  32.590  61.859  1.00  0.00    -0.023 A 
HETATM   24  C   UNL     1       8.493  32.782  60.827  1.00  0.00     0.009 A 
HETATM   25  C   UNL     1       9.506  31.847  60.583  1.00  0.00     0.001 A 
HETATM   26  C   UNL     1       9.617  30.710  61.374  1.00  0.00     0.000 A 
HETATM   27  C   UNL     1       8.725  30.511  62.420  1.00  0.00     0.001 A 
HETATM   28  C   UNL     1       7.717  31.446  62.670  1.00  0.00     0.009 A 
ENDBRANCH  16  23
ENDBRANCH  12  16
ENDBRANCH   3   9
BRANCH   1  29
HETATM   29  C   UNL     1       4.900  31.736  55.407  1.00  0.00     0.240 C 
HETATM   30  N   UNL     1       5.621  30.979  56.307  1.00  0.00    -0.326 N 
HETATM   31  H   UNL     1       6.245  31.445  56.961  1.00  0.00     0.169 HD
HETATM   32  O   UNL     1       4.349  31.297  54.391  1.00  0.00    -0.271 OA
BRANCH  30  33
HETATM   33  C   UNL     1       5.785  29.576  56.291  1.00  0.00     0.034 A 
HETATM   34  C   UNL     1       4.765  28.665  56.567  1.00  0.00     0.032 A 
HETATM   35  C   UNL     1       5.014  27.284  56.538  1.00  0.00     0.039 A 
HETATM   36  C   UNL     1       6.284  26.804  56.223  1.00  0.00     0.068 A 
HETATM   37  C   UNL     1       7.305  27.715  55.956  1.00  0.00     0.039 A 
HETATM   38  C   UNL     1       7.064  29.089  56.000  1.00  0.00     0.032 A 
BRANCH  36  39
HETATM   39  O   UNL     1       6.655  25.493  56.138  1.00  0.00    -0.352 OA
BRANCH  39  40
HETATM   40  C   UNL     1       7.464  25.112  55.027  1.00  0.00     0.171 C 
HETATM   41  C   UNL     1       6.712  24.049  54.246  1.00  0.00     0.034 C 
ENDBRANCH  39  40
ENDBRANCH  36  39
ENDBRANCH  30  33
ENDBRANCH   1  29
TORSDOF 8
ENDMDL
MODEL 10
REMARK VINA RESULT:      -8.3      2.837      8.031
REMARK  8 active torsions:
REMARK  status: ('A' for Active; 'I' for Inactive)
REMARK    1  A    between atoms: C_2  and  O_3 
REMARK    2  A    between atoms: O_3  and  C_4 
REMARK    3  A    between atoms: C_7  and  N_8 
REMARK       I    between atoms: N_8  and  C_9 
REMARK    4  A    between atoms: C_9  and  C_10 
REMARK    5  A    between atoms: C_12  and  N_13 
REMARK    6  A    between atoms: N_16  and  C_18 
REMARK    7  A    between atoms: C_18  and  C_19 
REMARK    8  A    between atoms: C_18  and  C_25 
ROOT
HETATM    1  C   UNL     1       5.820  27.949  57.536  1.00  0.00     0.164 C 
HETATM    2  N   UNL     1       4.801  28.001  56.472  1.00  0.00    -0.249 NA
HETATM    3  C   UNL     1       5.071  28.759  55.370  1.00  0.00     0.181 C 
HETATM    4  N   UNL     1       6.058  29.593  55.290  1.00  0.00    -0.185 NA
HETATM    5  C   UNL     1       6.899  29.722  56.362  1.00  0.00     0.247 C 
HETATM    6  O   UNL     1       8.079  30.046  56.248  1.00  0.00    -0.271 OA
HETATM    7  C   UNL     1       6.370  29.341  57.712  1.00  0.00     0.134 C 
HETATM    8  H   UNL     1       4.489  27.053  56.277  1.00  0.00     0.131 HD
ENDROOT
BRANCH   3   9
HETATM    9  N   UNL     1       4.217  28.590  54.305  1.00  0.00    -0.353 N 
HETATM   10  C   UNL     1       4.007  27.344  53.558  1.00  0.00     0.153 C 
HETATM   11  C   UNL     1       4.673  27.454  52.169  1.00  0.00     0.256 C 
HETATM   12  N   UNL     1       4.136  28.679  51.424  1.00  0.00    -0.056 N 
HETATM   13  H   UNL     1       3.120  28.587  51.371  1.00  0.00     0.281 HD
HETATM   14  C   UNL     1       4.356  29.949  52.260  1.00  0.00     0.256 C 
HETATM   15  C   UNL     1       3.665  29.782  53.629  1.00  0.00     0.153 C 
BRANCH  12  16
HETATM   16  C   UNL     1       4.607  28.814  49.970  1.00  0.00     0.254 C 
BRANCH  16  17
HETATM   17  C   UNL     1       3.807  27.920  49.023  1.00  0.00    -0.023 A 
HETATM   18  C   UNL     1       4.433  27.004  48.155  1.00  0.00     0.009 A 
HETATM   19  C   UNL     1       3.681  26.228  47.271  1.00  0.00     0.001 A 
HETATM   20  C   UNL     1       2.295  26.350  47.242  1.00  0.00     0.000 A 
HETATM   21  C   UNL     1       1.656  27.238  48.103  1.00  0.00     0.001 A 
HETATM   22  C   UNL     1       2.403  28.016  48.989  1.00  0.00     0.009 A 
ENDBRANCH  16  17
BRANCH  16  23
HETATM   23  C   UNL     1       4.810  30.265  49.495  1.00  0.00    -0.023 A 
HETATM   24  C   UNL     1       6.038  30.947  49.609  1.00  0.00     0.009 A 
HETATM   25  C   UNL     1       6.198  32.245  49.111  1.00  0.00     0.001 A 
HETATM   26  C   UNL     1       5.143  32.887  48.474  1.00  0.00     0.000 A 
HETATM   27  C   UNL     1       3.930  32.227  48.318  1.00  0.00     0.001 A 
HETATM   28  C   UNL     1       3.771  30.928  48.807  1.00  0.00     0.009 A 
ENDBRANCH  16  23
ENDBRANCH  12  16
ENDBRANCH   3   9
BRANCH   1  29
HETATM   29  C   UNL     1       6.811  26.801  57.174  1.00  0.00     0.240 C 
HETATM   30  N   UNL     1       6.405  25.881  56.230  1.00  0.00    -0.326 N 
HETATM   31  H   UNL     1       5.426  25.850  55.956  1.00  0.00     0.169 HD
HETATM   32  O   UNL     1       7.876  26.754  57.800  1.00  0.00    -0.271 OA
BRANCH  30  33
HETATM   33  C   UNL     1       7.151  24.787  55.740  1.00  0.00     0.034 A 
HETATM   34  C   UNL     1       7.498  24.612  54.400  1.00  0.00     0.032 A 
HETATM   35  C   UNL     1       8.237  23.490  53.995  1.00  0.00     0.039 A 
HETATM   36  C   UNL     1       8.642  22.539  54.929  1.00  0.00     0.068 A 
HETATM   37  C   UNL     1       8.289  22.709  56.267  1.00  0.00     0.039 A 
HETATM   38  C   UNL     1       7.540  23.817  56.670  1.00  0.00     0.032 A 
BRANCH  36  39
HETATM   39  O   UNL     1       9.380  21.418  54.675  1.00  0.00    -0.352 OA
BRANCH  39  40
HETATM   40  C   UNL     1       8.673  20.238  54.302  1.00  0.00     0.171 C 
HETATM   41  C   UNL     1       8.314  20.355  52.831  1.00  0.00     0.034 C 
ENDBRANCH  39  40
ENDBRANCH  36  39
ENDBRANCH  30  33
ENDBRANCH   1  29
TORSDOF 8
ENDMDL
