MODEL 1
REMARK VINA RESULT:     -10.5      0.000      0.000
REMARK  7 active torsions:
REMARK  status: ('A' for Active; 'I' for Inactive)
REMARK    1  A    between atoms: C_2  and  C_3 
REMARK    2  A    between atoms: C_2  and  C_9 
REMARK    3  A    between atoms: C_9  and  C_10 
REMARK       I    between atoms: C_10  and  N_11 
REMARK    4  A    between atoms: N_11  and  N_12 
REMARK       I    between atoms: N_12  and  C_13 
REMARK    5  A    between atoms: C_13  and  C_14 
REMARK    6  A    between atoms: C_18  and  C_19 
REMARK    7  A    between atoms: C_22  and  O_23 
ROOT
HETATM    1  N   UNL     1       8.321  28.518  57.760  1.00  0.00    -0.262 N 
HETATM    2  C   UNL     1       9.306  29.473  57.886  1.00  0.00     0.288 C 
HETATM    3  O   UNL     1      10.342  29.432  57.223  1.00  0.00    -0.264 OA
HETATM    4  H   UNL     1       7.448  28.529  58.282  1.00  0.00     0.190 HD
ENDROOT
BRANCH   2   5
HETATM    5  C   UNL     1       9.034  30.513  58.839  1.00  0.00     0.121 A 
HETATM    6  N   UNL     1       9.563  31.766  58.713  1.00  0.00    -0.272 N 
HETATM    7  H   UNL     1      10.184  32.096  57.981  1.00  0.00     0.189 HD
HETATM    8  N   UNL     1       9.191  32.619  59.677  1.00  0.00    -0.174 NA
HETATM    9  C   UNL     1       8.383  31.905  60.478  1.00  0.00     0.089 A 
HETATM   10  C   UNL     1       8.265  30.573  59.985  1.00  0.00     0.071 A 
BRANCH   9  11
HETATM   11  C   UNL     1       7.743  32.497  61.660  1.00  0.00    -0.005 A 
HETATM   12  C   UNL     1       8.286  32.300  62.936  1.00  0.00     0.016 A 
HETATM   13  C   UNL     1       7.693  32.879  64.063  1.00  0.00     0.037 A 
HETATM   14  C   UNL     1       6.549  33.668  63.941  1.00  0.00     0.068 A 
HETATM   15  C   UNL     1       5.993  33.862  62.679  1.00  0.00     0.037 A 
HETATM   16  C   UNL     1       6.585  33.281  61.548  1.00  0.00     0.016 A 
BRANCH  14  17
HETATM   17  O   UNL     1       6.077  34.181  65.116  1.00  0.00    -0.356 OA
HETATM   18  C   UNL     1       4.777  33.768  65.522  1.00  0.00     0.210 C 
ENDBRANCH  14  17
ENDBRANCH   9  11
ENDBRANCH   2   5
BRANCH   1  19
HETATM   19  N   UNL     1       8.465  27.497  56.819  1.00  0.00    -0.267 N 
HETATM   20  C   UNL     1       8.198  26.206  57.224  1.00  0.00     0.236 C 
HETATM   21  O   UNL     1       7.921  25.931  58.390  1.00  0.00    -0.272 OA
HETATM   22  H   UNL     1       8.644  27.772  55.854  1.00  0.00     0.190 HD
BRANCH  20  23
HETATM   23  C   UNL     1       8.300  25.194  56.101  1.00  0.00     0.113 C 
BRANCH  23  24
HETATM   24  C   UNL     1       7.093  24.243  56.038  1.00  0.00     0.023 C 
HETATM   25  C   UNL     1       5.829  24.950  55.528  1.00  0.00     0.015 C 
BRANCH  24  26
HETATM   26  C   UNL     1       7.412  23.033  55.172  1.00  0.00    -0.054 A 
HETATM   27  C   UNL     1       7.604  21.758  55.727  1.00  0.00     0.007 A 
HETATM   28  C   UNL     1       7.899  20.663  54.910  1.00  0.00     0.001 A 
HETATM   29  C   UNL     1       8.004  20.828  53.531  1.00  0.00     0.000 A 
HETATM   30  C   UNL     1       7.815  22.087  52.967  1.00  0.00     0.001 A 
HETATM   31  C   UNL     1       7.521  23.182  53.781  1.00  0.00     0.007 A 
ENDBRANCH  24  26
ENDBRANCH  23  24
ENDBRANCH  20  23
ENDBRANCH   1  19
TORSDOF 7
ENDMDL
MODEL 2
REMARK VINA RESULT:     -10.0      0.823      1.624
REMARK  7 active torsions:
REMARK  status: ('A' for Active; 'I' for Inactive)
REMARK    1  A    between atoms: C_2  and  C_3 
REMARK    2  A    between atoms: C_2  and  C_9 
REMARK    3  A    between atoms: C_9  and  C_10 
REMARK       I    between atoms: C_10  and  N_11 
REMARK    4  A    between atoms: N_11  and  N_12 
REMARK       I    between atoms: N_12  and  C_13 
REMARK    5  A    between atoms: C_13  and  C_14 
REMARK    6  A    between atoms: C_18  and  C_19 
REMARK    7  A    between atoms: C_22  and  O_23 
ROOT
HETATM    1  N   UNL     1       8.333  28.156  57.714  1.00  0.00    -0.262 N 
HETATM    2  C   UNL     1       9.192  29.222  57.560  1.00  0.00     0.288 C 
HETATM    3  O   UNL     1      10.033  29.257  56.663  1.00  0.00    -0.264 OA
HETATM    4  H   UNL     1       7.619  28.101  58.435  1.00  0.00     0.190 HD
ENDROOT
BRANCH   2   5
HETATM    5  C   UNL     1       9.030  30.283  58.515  1.00  0.00     0.121 A 
HETATM    6  N   UNL     1       9.703  31.466  58.404  1.00  0.00    -0.272 N 
HETATM    7  H   UNL     1      10.368  31.724  57.681  1.00  0.00     0.189 HD
HETATM    8  N   UNL     1       9.419  32.353  59.367  1.00  0.00    -0.174 NA
HETATM    9  C   UNL     1       8.523  31.734  60.153  1.00  0.00     0.089 A 
HETATM   10  C   UNL     1       8.257  30.427  59.651  1.00  0.00     0.071 A 
BRANCH   9  11
HETATM   11  C   UNL     1       7.940  32.392  61.330  1.00  0.00    -0.005 A 
HETATM   12  C   UNL     1       6.801  33.199  61.202  1.00  0.00     0.016 A 
HETATM   13  C   UNL     1       6.227  33.810  62.322  1.00  0.00     0.037 A 
HETATM   14  C   UNL     1       6.774  33.627  63.592  1.00  0.00     0.068 A 
HETATM   15  C   UNL     1       7.913  32.836  63.731  1.00  0.00     0.037 A 
HETATM   16  C   UNL     1       8.490  32.224  62.609  1.00  0.00     0.016 A 
BRANCH  14  17
HETATM   17  O   UNL     1       6.113  34.271  64.600  1.00  0.00    -0.356 OA
HETATM   18  C   UNL     1       6.439  33.886  65.930  1.00  0.00     0.210 C 
ENDBRANCH  14  17
ENDBRANCH   9  11
ENDBRANCH   2   5
BRANCH   1  19
HETATM   19  N   UNL     1       8.373  27.100  56.801  1.00  0.00    -0.267 N 
HETATM   20  C   UNL     1       7.218  26.373  56.606  1.00  0.00     0.236 C 
HETATM   21  O   UNL     1       6.199  26.576  57.264  1.00  0.00    -0.272 OA
HETATM   22  H   UNL     1       9.217  26.999  56.239  1.00  0.00     0.190 HD
BRANCH  20  23
HETATM   23  C   UNL     1       7.352  25.313  55.532  1.00  0.00     0.113 C 
BRANCH  23  24
HETATM   24  C   UNL     1       8.408  24.247  55.868  1.00  0.00     0.023 C 
HETATM   25  C   UNL     1       8.400  23.879  57.358  1.00  0.00     0.015 C 
BRANCH  24  26
HETATM   26  C   UNL     1       8.204  23.005  55.011  1.00  0.00    -0.054 A 
HETATM   27  C   UNL     1       8.127  23.078  53.612  1.00  0.00     0.007 A 
HETATM   28  C   UNL     1       7.936  21.924  52.848  1.00  0.00     0.001 A 
HETATM   29  C   UNL     1       7.822  20.684  53.473  1.00  0.00     0.000 A 
HETATM   30  C   UNL     1       7.897  20.596  54.861  1.00  0.00     0.001 A 
HETATM   31  C   UNL     1       8.088  21.749  55.625  1.00  0.00     0.007 A 
ENDBRANCH  24  26
ENDBRANCH  23  24
ENDBRANCH  20  23
ENDBRANCH   1  19
TORSDOF 7
ENDMDL
MODEL 3
REMARK VINA RESULT:      -9.9      2.273     11.321
REMARK  7 active torsions:
REMARK  status: ('A' for Active; 'I' for Inactive)
REMARK    1  A    between atoms: C_2  and  C_3 
REMARK    2  A    between atoms: C_2  and  C_9 
REMARK    3  A    between atoms: C_9  and  C_10 
REMARK       I    between atoms: C_10  and  N_11 
REMARK    4  A    between atoms: N_11  and  N_12 
REMARK       I    between atoms: N_12  and  C_13 
REMARK    5  A    between atoms: C_13  and  C_14 
REMARK    6  A    between atoms: C_18  and  C_19 
REMARK    7  A    between atoms: C_22  and  O_23 
ROOT
HETATM    1  N   UNL     1       7.937  29.328  58.318  1.00  0.00    -0.262 N 
HETATM    2  C   UNL     1       6.938  29.310  57.369  1.00  0.00     0.288 C 
HETATM    3  O   UNL     1       5.966  30.061  57.432  1.00  0.00    -0.264 OA
HETATM    4  H   UNL     1       8.759  28.731  58.288  1.00  0.00     0.190 HD
ENDROOT
BRANCH   2   5
HETATM    5  C   UNL     1       7.119  28.360  56.307  1.00  0.00     0.121 A 
HETATM    6  N   UNL     1       7.350  28.750  55.018  1.00  0.00    -0.272 N 
HETATM    7  H   UNL     1       7.411  29.702  54.670  1.00  0.00     0.189 HD
HETATM    8  N   UNL     1       7.515  27.736  54.158  1.00  0.00    -0.174 NA
HETATM    9  C   UNL     1       7.387  26.626  54.903  1.00  0.00     0.089 A 
HETATM   10  C   UNL     1       7.131  26.979  56.260  1.00  0.00     0.071 A 
BRANCH   9  11
HETATM   11  C   UNL     1       7.523  25.283  54.324  1.00  0.00    -0.005 A 
HETATM   12  C   UNL     1       7.371  24.144  55.126  1.00  0.00     0.016 A 
HETATM   13  C   UNL     1       7.477  22.862  54.576  1.00  0.00     0.037 A 
HETATM   14  C   UNL     1       7.735  22.689  53.216  1.00  0.00     0.068 A 
HETATM   15  C   UNL     1       7.899  23.814  52.410  1.00  0.00     0.037 A 
HETATM   16  C   UNL     1       7.794  25.100  52.960  1.00  0.00     0.016 A 
BRANCH  14  17
HETATM   17  O   UNL     1       7.805  21.388  52.806  1.00  0.00    -0.356 OA
HETATM   18  C   UNL     1       8.194  20.426  53.780  1.00  0.00     0.210 C 
ENDBRANCH  14  17
ENDBRANCH   9  11
ENDBRANCH   2   5
BRANCH   1  19
HETATM   19  N   UNL     1       7.882  30.256  59.359  1.00  0.00    -0.267 N 
HETATM   20  C   UNL     1       8.789  31.295  59.344  1.00  0.00     0.236 C 
HETATM   21  O   UNL     1       9.678  31.375  58.498  1.00  0.00    -0.272 OA
HETATM   22  H   UNL     1       7.101  30.185  60.009  1.00  0.00     0.190 HD
BRANCH  20  23
HETATM   23  C   UNL     1       8.580  32.287  60.470  1.00  0.00     0.113 C 
BRANCH  23  24
HETATM   24  C   UNL     1       7.927  31.658  61.712  1.00  0.00     0.023 C 
HETATM   25  C   UNL     1       8.899  30.747  62.475  1.00  0.00     0.015 C 
BRANCH  24  26
HETATM   26  C   UNL     1       7.377  32.739  62.632  1.00  0.00    -0.054 A 
HETATM   27  C   UNL     1       6.468  33.706  62.174  1.00  0.00     0.007 A 
HETATM   28  C   UNL     1       5.980  34.690  63.038  1.00  0.00     0.001 A 
HETATM   29  C   UNL     1       6.394  34.720  64.368  1.00  0.00     0.000 A 
HETATM   30  C   UNL     1       7.295  33.766  64.836  1.00  0.00     0.001 A 
HETATM   31  C   UNL     1       7.784  32.782  63.974  1.00  0.00     0.007 A 
ENDBRANCH  24  26
ENDBRANCH  23  24
ENDBRANCH  20  23
ENDBRANCH   1  19
TORSDOF 7
ENDMDL
MODEL 4
REMARK VINA RESULT:      -9.8      2.085     11.280
REMARK  7 active torsions:
REMARK  status: ('A' for Active; 'I' for Inactive)
REMARK    1  A    between atoms: C_2  and  C_3 
REMARK    2  A    between atoms: C_2  and  C_9 
REMARK    3  A    between atoms: C_9  and  C_10 
REMARK       I    between atoms: C_10  and  N_11 
REMARK    4  A    between atoms: N_11  and  N_12 
REMARK       I    between atoms: N_12  and  C_13 
REMARK    5  A    between atoms: C_13  and  C_14 
REMARK    6  A    between atoms: C_18  and  C_19 
REMARK    7  A    between atoms: C_22  and  O_23 
ROOT
HETATM    1  N   UNL     1       7.200  29.504  58.616  1.00  0.00    -0.262 N 
HETATM    2  C   UNL     1       8.255  29.065  57.848  1.00  0.00     0.288 C 
HETATM    3  O   UNL     1       9.390  29.525  57.974  1.00  0.00    -0.264 OA
HETATM    4  H   UNL     1       6.255  29.137  58.547  1.00  0.00     0.190 HD
ENDROOT
BRANCH   2   5
HETATM    5  C   UNL     1       7.936  28.035  56.898  1.00  0.00     0.121 A 
HETATM    6  N   UNL     1       7.275  28.304  55.733  1.00  0.00    -0.272 N 
HETATM    7  H   UNL     1       6.940  29.209  55.417  1.00  0.00     0.189 HD
HETATM    8  N   UNL     1       7.077  27.232  54.954  1.00  0.00    -0.174 NA
HETATM    9  C   UNL     1       7.624  26.209  55.628  1.00  0.00     0.089 A 
HETATM   10  C   UNL     1       8.170  26.674  56.859  1.00  0.00     0.071 A 
BRANCH   9  11
HETATM   11  C   UNL     1       7.631  24.842  55.091  1.00  0.00    -0.005 A 
HETATM   12  C   UNL     1       7.704  23.739  55.953  1.00  0.00     0.016 A 
HETATM   13  C   UNL     1       7.688  22.434  55.449  1.00  0.00     0.037 A 
HETATM   14  C   UNL     1       7.597  22.201  54.076  1.00  0.00     0.068 A 
HETATM   15  C   UNL     1       7.535  23.289  53.208  1.00  0.00     0.037 A 
HETATM   16  C   UNL     1       7.552  24.598  53.712  1.00  0.00     0.016 A 
BRANCH  14  17
HETATM   17  O   UNL     1       7.581  20.883  53.717  1.00  0.00    -0.356 OA
HETATM   18  C   UNL     1       8.718  20.395  53.014  1.00  0.00     0.210 C 
ENDBRANCH  14  17
ENDBRANCH   9  11
ENDBRANCH   2   5
BRANCH   1  19
HETATM   19  N   UNL     1       7.420  30.463  59.607  1.00  0.00    -0.267 N 
HETATM   20  C   UNL     1       7.055  31.765  59.335  1.00  0.00     0.236 C 
HETATM   21  O   UNL     1       6.625  32.107  58.235  1.00  0.00    -0.272 OA
HETATM   22  H   UNL     1       7.727  30.131  60.520  1.00  0.00     0.190 HD
BRANCH  20  23
HETATM   23  C   UNL     1       7.255  32.700  60.510  1.00  0.00     0.113 C 
BRANCH  23  24
HETATM   24  C   UNL     1       7.721  31.973  61.783  1.00  0.00     0.023 C 
HETATM   25  C   UNL     1       9.249  32.002  61.935  1.00  0.00     0.015 C 
BRANCH  24  26
HETATM   26  C   UNL     1       7.052  32.570  63.014  1.00  0.00    -0.054 A 
HETATM   27  C   UNL     1       5.656  32.600  63.154  1.00  0.00     0.007 A 
HETATM   28  C   UNL     1       5.066  33.155  64.292  1.00  0.00     0.001 A 
HETATM   29  C   UNL     1       5.863  33.686  65.304  1.00  0.00     0.000 A 
HETATM   30  C   UNL     1       7.251  33.663  65.178  1.00  0.00     0.001 A 
HETATM   31  C   UNL     1       7.842  33.108  64.041  1.00  0.00     0.007 A 
ENDBRANCH  24  26
ENDBRANCH  23  24
ENDBRANCH  20  23
ENDBRANCH   1  19
TORSDOF 7
ENDMDL
MODEL 5
REMARK VINA RESULT:      -9.4      2.388      2.804
REMARK  7 active torsions:
REMARK  status: ('A' for Active; 'I' for Inactive)
REMARK    1  A    between atoms: C_2  and  C_3 
REMARK    2  A    between atoms: C_2  and  C_9 
REMARK    3  A    between atoms: C_9  and  C_10 
REMARK       I    between atoms: C_10  and  N_11 
REMARK    4  A    between atoms: N_11  and  N_12 
REMARK       I    between atoms: N_12  and  C_13 
REMARK    5  A    between atoms: C_13  and  C_14 
REMARK    6  A    between atoms: C_18  and  C_19 
REMARK    7  A    between atoms: C_22  and  O_23 
ROOT
HETATM    1  N   UNL     1       7.363  29.309  55.478  1.00  0.00    -0.262 N 
HETATM    2  C   UNL     1       6.168  29.807  55.947  1.00  0.00     0.288 C 
HETATM    3  O   UNL     1       5.093  29.536  55.412  1.00  0.00    -0.264 OA
HETATM    4  H   UNL     1       8.266  29.502  55.904  1.00  0.00     0.190 HD
ENDROOT
BRANCH   2   5
HETATM    5  C   UNL     1       6.268  30.657  57.101  1.00  0.00     0.121 A 
HETATM    6  N   UNL     1       5.722  31.909  57.127  1.00  0.00    -0.272 N 
HETATM    7  H   UNL     1       5.216  32.370  56.377  1.00  0.00     0.189 HD
HETATM    8  N   UNL     1       5.890  32.558  58.288  1.00  0.00    -0.174 NA
HETATM    9  C   UNL     1       6.578  31.705  59.064  1.00  0.00     0.089 A 
HETATM   10  C   UNL     1       6.839  30.500  58.349  1.00  0.00     0.071 A 
BRANCH   9  11
HETATM   11  C   UNL     1       6.950  32.040  60.444  1.00  0.00    -0.005 A 
HETATM   12  C   UNL     1       5.967  32.383  61.383  1.00  0.00     0.016 A 
HETATM   13  C   UNL     1       6.313  32.682  62.705  1.00  0.00     0.037 A 
HETATM   14  C   UNL     1       7.644  32.644  63.119  1.00  0.00     0.068 A 
HETATM   15  C   UNL     1       8.632  32.316  62.193  1.00  0.00     0.037 A 
HETATM   16  C   UNL     1       8.287  32.017  60.867  1.00  0.00     0.016 A 
BRANCH  14  17
HETATM   17  O   UNL     1       7.844  32.947  64.437  1.00  0.00    -0.356 OA
HETATM   18  C   UNL     1       6.978  33.917  65.012  1.00  0.00     0.210 C 
ENDBRANCH  14  17
ENDBRANCH   9  11
ENDBRANCH   2   5
BRANCH   1  19
HETATM   19  N   UNL     1       7.366  28.427  54.395  1.00  0.00    -0.267 N 
HETATM   20  C   UNL     1       7.474  27.079  54.663  1.00  0.00     0.236 C 
HETATM   21  O   UNL     1       7.647  26.651  55.802  1.00  0.00    -0.272 OA
HETATM   22  H   UNL     1       7.167  28.816  53.474  1.00  0.00     0.190 HD
BRANCH  20  23
HETATM   23  C   UNL     1       7.376  26.213  53.423  1.00  0.00     0.113 C 
BRANCH  23  24
HETATM   24  C   UNL     1       6.337  25.087  53.558  1.00  0.00     0.023 C 
HETATM   25  C   UNL     1       5.460  24.960  52.304  1.00  0.00     0.015 C 
BRANCH  24  26
HETATM   26  C   UNL     1       7.023  23.763  53.865  1.00  0.00    -0.054 A 
HETATM   27  C   UNL     1       7.598  22.977  52.854  1.00  0.00     0.007 A 
HETATM   28  C   UNL     1       8.220  21.765  53.161  1.00  0.00     0.001 A 
HETATM   29  C   UNL     1       8.275  21.323  54.481  1.00  0.00     0.000 A 
HETATM   30  C   UNL     1       7.709  22.093  55.495  1.00  0.00     0.001 A 
HETATM   31  C   UNL     1       7.087  23.305  55.189  1.00  0.00     0.007 A 
ENDBRANCH  24  26
ENDBRANCH  23  24
ENDBRANCH  20  23
ENDBRANCH   1  19
TORSDOF 7
ENDMDL
MODEL 6
REMARK VINA RESULT:      -8.9      1.985     11.428
REMARK  7 active torsions:
REMARK  status: ('A' for Active; 'I' for Inactive)
REMARK    1  A    between atoms: C_2  and  C_3 
REMARK    2  A    between atoms: C_2  and  C_9 
REMARK    3  A    between atoms: C_9  and  C_10 
REMARK       I    between atoms: C_10  and  N_11 
REMARK    4  A    between atoms: N_11  and  N_12 
REMARK       I    between atoms: N_12  and  C_13 
REMARK    5  A    between atoms: C_13  and  C_14 
REMARK    6  A    between atoms: C_18  and  C_19 
REMARK    7  A    between atoms: C_22  and  O_23 
ROOT
HETATM    1  N   UNL     1       7.532  31.364  60.196  1.00  0.00    -0.262 N 
HETATM    2  C   UNL     1       8.533  31.404  59.250  1.00  0.00     0.288 C 
HETATM    3  O   UNL     1       9.277  32.377  59.129  1.00  0.00    -0.264 OA
HETATM    4  H   UNL     1       6.910  30.572  60.332  1.00  0.00     0.190 HD
ENDROOT
BRANCH   2   5
HETATM    5  C   UNL     1       8.644  30.233  58.426  1.00  0.00     0.121 A 
HETATM    6  N   UNL     1       9.747  29.991  57.657  1.00  0.00    -0.272 N 
HETATM    7  H   UNL     1      10.571  30.579  57.570  1.00  0.00     0.189 HD
HETATM    8  N   UNL     1       9.696  28.844  56.967  1.00  0.00    -0.174 NA
HETATM    9  C   UNL     1       8.511  28.301  57.287  1.00  0.00     0.089 A 
HETATM   10  C   UNL     1       7.818  29.149  58.199  1.00  0.00     0.071 A 
BRANCH   9  11
HETATM   11  C   UNL     1       8.078  27.007  56.743  1.00  0.00    -0.005 A 
HETATM   12  C   UNL     1       7.454  26.935  55.490  1.00  0.00     0.016 A 
HETATM   13  C   UNL     1       7.060  25.704  54.956  1.00  0.00     0.037 A 
HETATM   14  C   UNL     1       7.282  24.519  55.658  1.00  0.00     0.068 A 
HETATM   15  C   UNL     1       7.891  24.578  56.910  1.00  0.00     0.037 A 
HETATM   16  C   UNL     1       8.286  25.812  57.447  1.00  0.00     0.016 A 
BRANCH  14  17
HETATM   17  O   UNL     1       6.859  23.386  55.022  1.00  0.00    -0.356 OA
HETATM   18  C   UNL     1       7.542  22.178  55.336  1.00  0.00     0.210 C 
ENDBRANCH  14  17
ENDBRANCH   9  11
ENDBRANCH   2   5
BRANCH   1  19
HETATM   19  N   UNL     1       7.379  32.431  61.084  1.00  0.00    -0.267 N 
HETATM   20  C   UNL     1       6.097  32.780  61.455  1.00  0.00     0.236 C 
HETATM   21  O   UNL     1       5.106  32.239  60.970  1.00  0.00    -0.272 OA
HETATM   22  H   UNL     1       8.224  32.816  61.503  1.00  0.00     0.190 HD
BRANCH  20  23
HETATM   23  C   UNL     1       6.055  33.888  62.488  1.00  0.00     0.113 C 
BRANCH  23  24
HETATM   24  C   UNL     1       6.132  33.366  63.933  1.00  0.00     0.023 C 
HETATM   25  C   UNL     1       7.580  33.278  64.436  1.00  0.00     0.015 C 
BRANCH  24  26
HETATM   26  C   UNL     1       5.298  34.238  64.860  1.00  0.00    -0.054 A 
HETATM   27  C   UNL     1       4.846  33.771  66.104  1.00  0.00     0.007 A 
HETATM   28  C   UNL     1       4.079  34.591  66.937  1.00  0.00     0.001 A 
HETATM   29  C   UNL     1       3.756  35.886  66.537  1.00  0.00     0.000 A 
HETATM   30  C   UNL     1       4.199  36.362  65.305  1.00  0.00     0.001 A 
HETATM   31  C   UNL     1       4.965  35.545  64.472  1.00  0.00     0.007 A 
ENDBRANCH  24  26
ENDBRANCH  23  24
ENDBRANCH  20  23
ENDBRANCH   1  19
TORSDOF 7
ENDMDL
MODEL 7
REMARK VINA RESULT:      -8.5      1.977      2.784
REMARK  7 active torsions:
REMARK  status: ('A' for Active; 'I' for Inactive)
REMARK    1  A    between atoms: C_2  and  C_3 
REMARK    2  A    between atoms: C_2  and  C_9 
REMARK    3  A    between atoms: C_9  and  C_10 
REMARK       I    between atoms: C_10  and  N_11 
REMARK    4  A    between atoms: N_11  and  N_12 
REMARK       I    between atoms: N_12  and  C_13 
REMARK    5  A    between atoms: C_13  and  C_14 
REMARK    6  A    between atoms: C_18  and  C_19 
REMARK    7  A    between atoms: C_22  and  O_23 
ROOT
HETATM    1  N   UNL     1       7.674  29.337  58.981  1.00  0.00    -0.262 N 
HETATM    2  C   UNL     1       8.561  30.302  59.406  1.00  0.00     0.288 C 
HETATM    3  O   UNL     1       9.557  30.605  58.751  1.00  0.00    -0.264 OA
HETATM    4  H   UNL     1       6.835  29.072  59.490  1.00  0.00     0.190 HD
ENDROOT
BRANCH   2   5
HETATM    5  C   UNL     1       8.235  30.924  60.659  1.00  0.00     0.121 A 
HETATM    6  N   UNL     1       8.764  30.490  61.842  1.00  0.00    -0.272 N 
HETATM    7  H   UNL     1       9.406  29.715  61.975  1.00  0.00     0.189 HD
HETATM    8  N   UNL     1       8.371  31.196  62.911  1.00  0.00    -0.174 NA
HETATM    9  C   UNL     1       7.547  32.135  62.421  1.00  0.00     0.089 A 
HETATM   10  C   UNL     1       7.432  31.993  61.008  1.00  0.00     0.071 A 
BRANCH   9  11
HETATM   11  C   UNL     1       6.911  33.137  63.288  1.00  0.00    -0.005 A 
HETATM   12  C   UNL     1       6.008  34.067  62.755  1.00  0.00     0.016 A 
HETATM   13  C   UNL     1       5.383  35.009  63.579  1.00  0.00     0.037 A 
HETATM   14  C   UNL     1       5.643  35.043  64.949  1.00  0.00     0.068 A 
HETATM   15  C   UNL     1       6.547  34.131  65.488  1.00  0.00     0.037 A 
HETATM   16  C   UNL     1       7.176  33.186  64.664  1.00  0.00     0.016 A 
BRANCH  14  17
HETATM   17  O   UNL     1       4.960  36.004  65.640  1.00  0.00    -0.356 OA
HETATM   18  C   UNL     1       3.711  35.625  66.205  1.00  0.00     0.210 C 
ENDBRANCH  14  17
ENDBRANCH   9  11
ENDBRANCH   2   5
BRANCH   1  19
HETATM   19  N   UNL     1       7.872  28.714  57.747  1.00  0.00    -0.267 N 
HETATM   20  C   UNL     1       6.757  28.303  57.047  1.00  0.00     0.236 C 
HETATM   21  O   UNL     1       5.622  28.398  57.511  1.00  0.00    -0.272 OA
HETATM   22  H   UNL     1       8.820  28.703  57.375  1.00  0.00     0.190 HD
BRANCH  20  23
HETATM   23  C   UNL     1       7.085  27.723  55.686  1.00  0.00     0.113 C 
BRANCH  23  24
HETATM   24  C   UNL     1       7.569  26.264  55.756  1.00  0.00     0.023 C 
HETATM   25  C   UNL     1       7.146  25.580  57.064  1.00  0.00     0.015 C 
BRANCH  24  26
HETATM   26  C   UNL     1       7.064  25.477  54.555  1.00  0.00    -0.054 A 
HETATM   27  C   UNL     1       5.770  25.661  54.042  1.00  0.00     0.007 A 
HETATM   28  C   UNL     1       5.329  24.924  52.940  1.00  0.00     0.001 A 
HETATM   29  C   UNL     1       6.175  23.996  52.337  1.00  0.00     0.000 A 
HETATM   30  C   UNL     1       7.462  23.803  52.835  1.00  0.00     0.001 A 
HETATM   31  C   UNL     1       7.904  24.539  53.937  1.00  0.00     0.007 A 
ENDBRANCH  24  26
ENDBRANCH  23  24
ENDBRANCH  20  23
ENDBRANCH   1  19
TORSDOF 7
ENDMDL
MODEL 8
REMARK VINA RESULT:      -8.2      4.286     11.595
REMARK  7 active torsions:
REMARK  status: ('A' for Active; 'I' for Inactive)
REMARK    1  A    between atoms: C_2  and  C_3 
REMARK    2  A    between atoms: C_2  and  C_9 
REMARK    3  A    between atoms: C_9  and  C_10 
REMARK       I    between atoms: C_10  and  N_11 
REMARK    4  A    between atoms: N_11  and  N_12 
REMARK       I    between atoms: N_12  and  C_13 
REMARK    5  A    between atoms: C_13  and  C_14 
REMARK    6  A    between atoms: C_18  and  C_19 
REMARK    7  A    between atoms: C_22  and  O_23 
ROOT
HETATM    1  N   UNL     1       6.075  29.897  57.628  1.00  0.00    -0.262 N 
HETATM    2  C   UNL     1       4.833  29.686  57.072  1.00  0.00     0.288 C 
HETATM    3  O   UNL     1       3.816  30.208  57.528  1.00  0.00    -0.264 OA
HETATM    4  H   UNL     1       6.935  29.492  57.269  1.00  0.00     0.190 HD
ENDROOT
BRANCH   2   5
HETATM    5  C   UNL     1       4.814  28.819  55.926  1.00  0.00     0.121 A 
HETATM    6  N   UNL     1       4.815  27.458  56.048  1.00  0.00    -0.272 N 
HETATM    7  H   UNL     1       4.837  26.923  56.911  1.00  0.00     0.189 HD
HETATM    8  N   UNL     1       4.774  26.802  54.881  1.00  0.00    -0.174 NA
HETATM    9  C   UNL     1       4.748  27.763  53.944  1.00  0.00     0.089 A 
HETATM   10  C   UNL     1       4.777  29.046  54.564  1.00  0.00     0.071 A 
BRANCH   9  11
HETATM   11  C   UNL     1       4.680  27.448  52.511  1.00  0.00    -0.005 A 
HETATM   12  C   UNL     1       4.143  28.372  51.605  1.00  0.00     0.016 A 
HETATM   13  C   UNL     1       4.097  28.088  50.236  1.00  0.00     0.037 A 
HETATM   14  C   UNL     1       4.586  26.878  49.742  1.00  0.00     0.068 A 
HETATM   15  C   UNL     1       5.112  25.947  50.635  1.00  0.00     0.037 A 
HETATM   16  C   UNL     1       5.158  26.230  52.008  1.00  0.00     0.016 A 
BRANCH  14  17
HETATM   17  O   UNL     1       4.490  26.729  48.387  1.00  0.00    -0.356 OA
HETATM   18  C   UNL     1       3.214  26.374  47.868  1.00  0.00     0.210 C 
ENDBRANCH  14  17
ENDBRANCH   9  11
ENDBRANCH   2   5
BRANCH   1  19
HETATM   19  N   UNL     1       6.206  30.769  58.711  1.00  0.00    -0.267 N 
HETATM   20  C   UNL     1       7.471  31.225  59.020  1.00  0.00     0.236 C 
HETATM   21  O   UNL     1       8.472  30.826  58.429  1.00  0.00    -0.272 OA
HETATM   22  H   UNL     1       5.350  31.117  59.139  1.00  0.00     0.190 HD
BRANCH  20  23
HETATM   23  C   UNL     1       7.483  32.233  60.152  1.00  0.00     0.113 C 
BRANCH  23  24
HETATM   24  C   UNL     1       8.027  31.651  61.468  1.00  0.00     0.023 C 
HETATM   25  C   UNL     1       9.545  31.839  61.595  1.00  0.00     0.015 C 
BRANCH  24  26
HETATM   26  C   UNL     1       7.312  32.271  62.660  1.00  0.00    -0.054 A 
HETATM   27  C   UNL     1       8.018  32.877  63.711  1.00  0.00     0.007 A 
HETATM   28  C   UNL     1       7.338  33.436  64.796  1.00  0.00     0.001 A 
HETATM   29  C   UNL     1       5.947  33.398  64.844  1.00  0.00     0.000 A 
HETATM   30  C   UNL     1       5.233  32.800  63.807  1.00  0.00     0.001 A 
HETATM   31  C   UNL     1       5.911  32.241  62.722  1.00  0.00     0.007 A 
ENDBRANCH  24  26
ENDBRANCH  23  24
ENDBRANCH  20  23
ENDBRANCH   1  19
TORSDOF 7
ENDMDL
MODEL 9
REMARK VINA RESULT:      -8.2      3.726      4.393
REMARK  7 active torsions:
REMARK  status: ('A' for Active; 'I' for Inactive)
REMARK    1  A    between atoms: C_2  and  C_3 
REMARK    2  A    between atoms: C_2  and  C_9 
REMARK    3  A    between atoms: C_9  and  C_10 
REMARK       I    between atoms: C_10  and  N_11 
REMARK    4  A    between atoms: N_11  and  N_12 
REMARK       I    between atoms: N_12  and  C_13 
REMARK    5  A    between atoms: C_13  and  C_14 
REMARK    6  A    between atoms: C_18  and  C_19 
REMARK    7  A    between atoms: C_22  and  O_23 
ROOT
HETATM    1  N   UNL     1       7.167  28.487  56.234  1.00  0.00    -0.262 N 
HETATM    2  C   UNL     1       7.324  28.919  57.532  1.00  0.00     0.288 C 
HETATM    3  O   UNL     1       7.958  28.270  58.364  1.00  0.00    -0.264 OA
HETATM    4  H   UNL     1       6.662  29.005  55.519  1.00  0.00     0.190 HD
ENDROOT
BRANCH   2   5
HETATM    5  C   UNL     1       6.701  30.177  57.839  1.00  0.00     0.121 A 
HETATM    6  N   UNL     1       6.873  30.794  59.046  1.00  0.00    -0.272 N 
HETATM    7  H   UNL     1       7.421  30.457  59.832  1.00  0.00     0.189 HD
HETATM    8  N   UNL     1       6.239  31.969  59.157  1.00  0.00    -0.174 NA
HETATM    9  C   UNL     1       5.619  32.140  57.979  1.00  0.00     0.089 A 
HETATM   10  C   UNL     1       5.882  31.030  57.125  1.00  0.00     0.071 A 
BRANCH   9  11
HETATM   11  C   UNL     1       4.819  33.338  57.690  1.00  0.00    -0.005 A 
HETATM   12  C   UNL     1       4.159  34.018  58.723  1.00  0.00     0.016 A 
HETATM   13  C   UNL     1       3.414  35.173  58.458  1.00  0.00     0.037 A 
HETATM   14  C   UNL     1       3.313  35.673  57.160  1.00  0.00     0.068 A 
HETATM   15  C   UNL     1       3.955  34.999  56.123  1.00  0.00     0.037 A 
HETATM   16  C   UNL     1       4.701  33.841  56.387  1.00  0.00     0.016 A 
BRANCH  14  17
HETATM   17  O   UNL     1       2.565  36.810  57.040  1.00  0.00    -0.356 OA
HETATM   18  C   UNL     1       3.274  38.032  56.872  1.00  0.00     0.210 C 
ENDBRANCH  14  17
ENDBRANCH   9  11
ENDBRANCH   2   5
BRANCH   1  19
HETATM   19  N   UNL     1       7.783  27.303  55.822  1.00  0.00    -0.267 N 
HETATM   20  C   UNL     1       6.988  26.189  55.655  1.00  0.00     0.236 C 
HETATM   21  O   UNL     1       5.791  26.192  55.934  1.00  0.00    -0.272 OA
HETATM   22  H   UNL     1       8.763  27.356  55.550  1.00  0.00     0.190 HD
BRANCH  20  23
HETATM   23  C   UNL     1       7.745  24.989  55.121  1.00  0.00     0.113 C 
BRANCH  23  24
HETATM   24  C   UNL     1       6.851  24.020  54.328  1.00  0.00     0.023 C 
HETATM   25  C   UNL     1       6.589  24.517  52.899  1.00  0.00     0.015 C 
BRANCH  24  26
HETATM   26  C   UNL     1       7.465  22.627  54.304  1.00  0.00    -0.054 A 
HETATM   27  C   UNL     1       7.714  21.910  55.484  1.00  0.00     0.007 A 
HETATM   28  C   UNL     1       8.281  20.634  55.436  1.00  0.00     0.001 A 
HETATM   29  C   UNL     1       8.605  20.059  54.209  1.00  0.00     0.000 A 
HETATM   30  C   UNL     1       8.362  20.760  53.029  1.00  0.00     0.001 A 
HETATM   31  C   UNL     1       7.796  22.035  53.076  1.00  0.00     0.007 A 
ENDBRANCH  24  26
ENDBRANCH  23  24
ENDBRANCH  20  23
ENDBRANCH   1  19
TORSDOF 7
ENDMDL
MODEL 10
REMARK VINA RESULT:      -8.1      3.003      3.271
REMARK  7 active torsions:
REMARK  status: ('A' for Active; 'I' for Inactive)
REMARK    1  A    between atoms: C_2  and  C_3 
REMARK    2  A    between atoms: C_2  and  C_9 
REMARK    3  A    between atoms: C_9  and  C_10 
REMARK       I    between atoms: C_10  and  N_11 
REMARK    4  A    between atoms: N_11  and  N_12 
REMARK       I    between atoms: N_12  and  C_13 
REMARK    5  A    between atoms: C_13  and  C_14 
REMARK    6  A    between atoms: C_18  and  C_19 
REMARK    7  A    between atoms: C_22  and  O_23 
ROOT
HETATM    1  N   UNL     1       6.747  29.526  55.469  1.00  0.00    -0.262 N 
HETATM    2  C   UNL     1       5.452  29.992  55.517  1.00  0.00     0.288 C 
HETATM    3  O   UNL     1       4.614  29.679  54.672  1.00  0.00    -0.264 OA
HETATM    4  H   UNL     1       7.459  29.754  56.157  1.00  0.00     0.190 HD
ENDROOT
BRANCH   2   5
HETATM    5  C   UNL     1       5.154  30.861  56.622  1.00  0.00     0.121 A 
HETATM    6  N   UNL     1       4.423  32.005  56.467  1.00  0.00    -0.272 N 
HETATM    7  H   UNL     1       4.032  32.366  55.602  1.00  0.00     0.189 HD
HETATM    8  N   UNL     1       4.221  32.687  57.602  1.00  0.00    -0.174 NA
HETATM    9  C   UNL     1       4.843  31.969  58.551  1.00  0.00     0.089 A 
HETATM   10  C   UNL     1       5.446  30.816  57.972  1.00  0.00     0.071 A 
BRANCH   9  11
HETATM   11  C   UNL     1       4.837  32.379  59.962  1.00  0.00    -0.005 A 
HETATM   12  C   UNL     1       6.036  32.690  60.617  1.00  0.00     0.016 A 
HETATM   13  C   UNL     1       6.035  33.103  61.954  1.00  0.00     0.037 A 
HETATM   14  C   UNL     1       4.839  33.215  62.664  1.00  0.00     0.068 A 
HETATM   15  C   UNL     1       3.642  32.897  62.027  1.00  0.00     0.037 A 
HETATM   16  C   UNL     1       3.641  32.482  60.688  1.00  0.00     0.016 A 
BRANCH  14  17
HETATM   17  O   UNL     1       4.976  33.636  63.957  1.00  0.00    -0.356 OA
HETATM   18  C   UNL     1       6.239  33.417  64.574  1.00  0.00     0.210 C 
ENDBRANCH  14  17
ENDBRANCH   9  11
ENDBRANCH   2   5
BRANCH   1  19
HETATM   19  N   UNL     1       7.121  28.630  54.465  1.00  0.00    -0.267 N 
HETATM   20  C   UNL     1       7.282  27.305  54.813  1.00  0.00     0.236 C 
HETATM   21  O   UNL     1       7.186  26.918  55.976  1.00  0.00    -0.272 OA
HETATM   22  H   UNL     1       7.137  28.979  53.509  1.00  0.00     0.190 HD
BRANCH  20  23
HETATM   23  C   UNL     1       7.599  26.411  53.631  1.00  0.00     0.113 C 
BRANCH  23  24
HETATM   24  C   UNL     1       6.542  25.316  53.406  1.00  0.00     0.023 C 
HETATM   25  C   UNL     1       6.023  25.306  51.961  1.00  0.00     0.015 C 
BRANCH  24  26
HETATM   26  C   UNL     1       7.101  23.951  53.781  1.00  0.00    -0.054 A 
HETATM   27  C   UNL     1       7.145  23.511  55.113  1.00  0.00     0.007 A 
HETATM   28  C   UNL     1       7.665  22.254  55.432  1.00  0.00     0.001 A 
HETATM   29  C   UNL     1       8.147  21.422  54.424  1.00  0.00     0.000 A 
HETATM   30  C   UNL     1       8.109  21.844  53.098  1.00  0.00     0.001 A 
HETATM   31  C   UNL     1       7.589  23.100  52.777  1.00  0.00     0.007 A 
ENDBRANCH  24  26
ENDBRANCH  23  24
ENDBRANCH  20  23
ENDBRANCH   1  19
TORSDOF 7
ENDMDL
