MODEL 1
REMARK VINA RESULT:      -9.2      0.000      0.000
REMARK  4 active torsions:
REMARK  status: ('A' for Active; 'I' for Inactive)
REMARK    1  A    between atoms: C_10  and  C_11 
REMARK       I    between atoms: C_11  and  N_12 
REMARK    2  A    between atoms: N_12  and  N_13 
REMARK       I    between atoms: N_13  and  C_14 
REMARK    3  A    between atoms: C_14  and  C_15 
REMARK    4  A    between atoms: C_15  and  C_16 
ROOT
HETATM    1  C   UNL     1       7.794  28.586  56.661  1.00  0.00     0.272 C 
HETATM    2  N   UNL     1       7.274  28.534  55.386  1.00  0.00    -0.263 N 
HETATM    3  O   UNL     1       8.644  27.776  57.033  1.00  0.00    -0.266 OA
HETATM    4  H   UNL     1       6.598  29.201  55.017  1.00  0.00     0.190 HD
ENDROOT
BRANCH   2   5
HETATM    5  N   UNL     1       7.788  27.591  54.486  1.00  0.00    -0.267 N 
HETATM    6  C   UNL     1       6.989  26.534  54.108  1.00  0.00     0.240 C 
HETATM    7  O   UNL     1       5.860  26.353  54.562  1.00  0.00    -0.272 OA
HETATM    8  H   UNL     1       8.746  27.730  54.173  1.00  0.00     0.190 HD
BRANCH   6   9
HETATM    9  C   UNL     1       7.616  25.612  53.080  1.00  0.00     0.143 C 
BRANCH   9  10
HETATM   10  C   UNL     1       7.914  24.214  53.573  1.00  0.00    -0.049 A 
HETATM   11  C   UNL     1       8.274  23.958  54.904  1.00  0.00     0.009 A 
HETATM   12  C   UNL     1       8.487  22.648  55.345  1.00  0.00     0.024 A 
HETATM   13  C   UNL     1       8.321  21.584  54.463  1.00  0.00     0.034 A 
HETATM   14 CL   UNL     1       8.568  19.972  55.009  1.00  0.00    -0.084 Cl
HETATM   15  C   UNL     1       7.945  21.817  53.143  1.00  0.00     0.024 A 
HETATM   16  C   UNL     1       7.737  23.127  52.702  1.00  0.00     0.009 A 
ENDBRANCH   9  10
ENDBRANCH   6   9
ENDBRANCH   2   5
BRANCH   1  17
HETATM   17  C   UNL     1       7.281  29.638  57.542  1.00  0.00     0.064 A 
HETATM   18  C   UNL     1       7.938  30.541  58.453  1.00  0.00     0.046 A 
HETATM   19  C   UNL     1       9.269  30.775  58.860  1.00  0.00     0.130 A 
HETATM   20  C   UNL     1       6.948  31.337  59.044  1.00  0.00     0.046 A 
HETATM   21  C   UNL     1       9.576  31.759  59.801  1.00  0.00     0.043 A 
HETATM   22  F   UNL     1      10.274  30.053  58.348  1.00  0.00    -0.205 F 
HETATM   23  C   UNL     1       8.564  32.531  60.360  1.00  0.00     0.005 A 
HETATM   24  C   UNL     1       7.231  32.333  59.991  1.00  0.00     0.030 A 
HETATM   25  N   UNL     1       5.741  30.942  58.523  1.00  0.00    -0.364 N 
HETATM   26  H   UNL     1       4.847  31.344  58.772  1.00  0.00     0.165 HD
HETATM   27  C   UNL     1       5.926  29.926  57.632  1.00  0.00     0.106 A 
ENDBRANCH   1  17
TORSDOF 4
ENDMDL
MODEL 2
REMARK VINA RESULT:      -9.1      6.268      9.218
REMARK  4 active torsions:
REMARK  status: ('A' for Active; 'I' for Inactive)
REMARK    1  A    between atoms: C_10  and  C_11 
REMARK       I    between atoms: C_11  and  N_12 
REMARK    2  A    between atoms: N_12  and  N_13 
REMARK       I    between atoms: N_13  and  C_14 
REMARK    3  A    between atoms: C_14  and  C_15 
REMARK    4  A    between atoms: C_15  and  C_16 
ROOT
HETATM    1  C   UNL     1       4.575  26.918  49.235  1.00  0.00     0.272 C 
HETATM    2  N   UNL     1       4.670  25.948  50.209  1.00  0.00    -0.263 N 
HETATM    3  O   UNL     1       5.372  27.856  49.194  1.00  0.00    -0.266 OA
HETATM    4  H   UNL     1       4.061  25.134  50.266  1.00  0.00     0.190 HD
ENDROOT
BRANCH   2   5
HETATM    5  N   UNL     1       5.741  26.000  51.111  1.00  0.00    -0.267 N 
HETATM    6  C   UNL     1       5.641  25.309  52.298  1.00  0.00     0.240 C 
HETATM    7  O   UNL     1       4.631  24.686  52.626  1.00  0.00    -0.272 OA
HETATM    8  H   UNL     1       6.539  26.573  50.843  1.00  0.00     0.190 HD
BRANCH   6   9
HETATM    9  C   UNL     1       6.881  25.376  53.169  1.00  0.00     0.143 C 
BRANCH   9  10
HETATM   10  C   UNL     1       7.335  24.050  53.736  1.00  0.00    -0.049 A 
HETATM   11  C   UNL     1       7.219  23.747  55.100  1.00  0.00     0.009 A 
HETATM   12  C   UNL     1       7.594  22.491  55.586  1.00  0.00     0.024 A 
HETATM   13  C   UNL     1       8.070  21.522  54.706  1.00  0.00     0.034 A 
HETATM   14 CL   UNL     1       8.518  19.971  55.301  1.00  0.00    -0.084 Cl
HETATM   15  C   UNL     1       8.175  21.798  53.346  1.00  0.00     0.024 A 
HETATM   16  C   UNL     1       7.804  23.056  52.862  1.00  0.00     0.009 A 
ENDBRANCH   9  10
ENDBRANCH   6   9
ENDBRANCH   2   5
BRANCH   1  17
HETATM   17  C   UNL     1       3.483  26.779  48.268  1.00  0.00     0.064 A 
HETATM   18  C   UNL     1       2.402  27.657  47.898  1.00  0.00     0.046 A 
HETATM   19  C   UNL     1       1.962  28.939  48.292  1.00  0.00     0.130 A 
HETATM   20  C   UNL     1       1.647  27.005  46.915  1.00  0.00     0.046 A 
HETATM   21  C   UNL     1       0.831  29.524  47.719  1.00  0.00     0.043 A 
HETATM   22  F   UNL     1       2.624  29.628  49.231  1.00  0.00    -0.205 F 
HETATM   23  C   UNL     1       0.113  28.845  46.742  1.00  0.00     0.005 A 
HETATM   24  C   UNL     1       0.509  27.571  46.323  1.00  0.00     0.030 A 
HETATM   25  N   UNL     1       2.235  25.784  46.691  1.00  0.00    -0.364 N 
HETATM   26  H   UNL     1       1.899  25.096  46.030  1.00  0.00     0.165 HD
HETATM   27  C   UNL     1       3.326  25.636  47.497  1.00  0.00     0.106 A 
ENDBRANCH   1  17
TORSDOF 4
ENDMDL
MODEL 3
REMARK VINA RESULT:      -9.1      6.281      8.813
REMARK  4 active torsions:
REMARK  status: ('A' for Active; 'I' for Inactive)
REMARK    1  A    between atoms: C_10  and  C_11 
REMARK       I    between atoms: C_11  and  N_12 
REMARK    2  A    between atoms: N_12  and  N_13 
REMARK       I    between atoms: N_13  and  C_14 
REMARK    3  A    between atoms: C_14  and  C_15 
REMARK    4  A    between atoms: C_15  and  C_16 
ROOT
HETATM    1  C   UNL     1       7.321  24.821  52.690  1.00  0.00     0.272 C 
HETATM    2  N   UNL     1       6.057  25.050  52.191  1.00  0.00    -0.263 N 
HETATM    3  O   UNL     1       8.321  25.207  52.084  1.00  0.00    -0.266 OA
HETATM    4  H   UNL     1       5.197  24.785  52.670  1.00  0.00     0.190 HD
ENDROOT
BRANCH   2   5
HETATM    5  N   UNL     1       5.921  25.803  51.018  1.00  0.00    -0.267 N 
HETATM    6  C   UNL     1       5.300  27.031  51.089  1.00  0.00     0.240 C 
HETATM    7  O   UNL     1       4.816  27.477  52.129  1.00  0.00    -0.272 OA
HETATM    8  H   UNL     1       6.275  25.385  50.160  1.00  0.00     0.190 HD
BRANCH   6   9
HETATM    9  C   UNL     1       5.266  27.793  49.777  1.00  0.00     0.143 C 
BRANCH   9  10
HETATM   10  C   UNL     1       3.991  27.635  48.980  1.00  0.00    -0.049 A 
HETATM   11  C   UNL     1       2.857  28.421  49.229  1.00  0.00     0.009 A 
HETATM   12  C   UNL     1       1.713  28.292  48.437  1.00  0.00     0.024 A 
HETATM   13  C   UNL     1       1.701  27.389  47.377  1.00  0.00     0.034 A 
HETATM   14 CL   UNL     1       0.298  27.241  46.393  1.00  0.00    -0.084 Cl
HETATM   15  C   UNL     1       2.824  26.614  47.102  1.00  0.00     0.024 A 
HETATM   16  C   UNL     1       3.966  26.740  47.898  1.00  0.00     0.009 A 
ENDBRANCH   9  10
ENDBRANCH   6   9
ENDBRANCH   2   5
BRANCH   1  17
HETATM   17  C   UNL     1       7.410  24.095  53.960  1.00  0.00     0.064 A 
HETATM   18  C   UNL     1       7.732  22.725  54.269  1.00  0.00     0.046 A 
HETATM   19  C   UNL     1       8.071  21.574  53.526  1.00  0.00     0.130 A 
HETATM   20  C   UNL     1       7.659  22.579  55.661  1.00  0.00     0.046 A 
HETATM   21  C   UNL     1       8.326  20.355  54.156  1.00  0.00     0.043 A 
HETATM   22  F   UNL     1       8.155  21.626  52.190  1.00  0.00    -0.205 F 
HETATM   23  C   UNL     1       8.249  20.255  55.540  1.00  0.00     0.005 A 
HETATM   24  C   UNL     1       7.913  21.367  56.318  1.00  0.00     0.030 A 
HETATM   25  N   UNL     1       7.309  23.801  56.182  1.00  0.00    -0.364 N 
HETATM   26  H   UNL     1       7.180  23.991  57.167  1.00  0.00     0.165 HD
HETATM   27  C   UNL     1       7.151  24.710  55.177  1.00  0.00     0.106 A 
ENDBRANCH   1  17
TORSDOF 4
ENDMDL
MODEL 4
REMARK VINA RESULT:      -9.1      6.320      8.652
REMARK  4 active torsions:
REMARK  status: ('A' for Active; 'I' for Inactive)
REMARK    1  A    between atoms: C_10  and  C_11 
REMARK       I    between atoms: C_11  and  N_12 
REMARK    2  A    between atoms: N_12  and  N_13 
REMARK       I    between atoms: N_13  and  C_14 
REMARK    3  A    between atoms: C_14  and  C_15 
REMARK    4  A    between atoms: C_15  and  C_16 
ROOT
HETATM    1  C   UNL     1       4.854  27.683  50.292  1.00  0.00     0.272 C 
HETATM    2  N   UNL     1       5.102  26.348  50.525  1.00  0.00    -0.263 N 
HETATM    3  O   UNL     1       5.709  28.538  50.532  1.00  0.00    -0.266 OA
HETATM    4  H   UNL     1       4.445  25.599  50.309  1.00  0.00     0.190 HD
ENDROOT
BRANCH   2   5
HETATM    5  N   UNL     1       6.375  25.964  50.965  1.00  0.00    -0.267 N 
HETATM    6  C   UNL     1       6.483  25.263  52.146  1.00  0.00     0.240 C 
HETATM    7  O   UNL     1       5.515  25.000  52.858  1.00  0.00    -0.272 OA
HETATM    8  H   UNL     1       7.165  26.249  50.389  1.00  0.00     0.190 HD
BRANCH   6   9
HETATM    9  C   UNL     1       7.897  24.839  52.496  1.00  0.00     0.143 C 
BRANCH   9  10
HETATM   10  C   UNL     1       7.995  23.668  53.447  1.00  0.00    -0.049 A 
HETATM   11  C   UNL     1       8.096  23.845  54.835  1.00  0.00     0.009 A 
HETATM   12  C   UNL     1       8.127  22.742  55.693  1.00  0.00     0.024 A 
HETATM   13  C   UNL     1       8.036  21.454  55.171  1.00  0.00     0.034 A 
HETATM   14 CL   UNL     1       8.059  20.098  56.229  1.00  0.00    -0.084 Cl
HETATM   15  C   UNL     1       7.916  21.259  53.798  1.00  0.00     0.024 A 
HETATM   16  C   UNL     1       7.890  22.362  52.940  1.00  0.00     0.009 A 
ENDBRANCH   9  10
ENDBRANCH   6   9
ENDBRANCH   2   5
BRANCH   1  17
HETATM   17  C   UNL     1       3.534  28.029  49.758  1.00  0.00     0.064 A 
HETATM   18  C   UNL     1       2.793  27.541  48.623  1.00  0.00     0.046 A 
HETATM   19  C   UNL     1       3.013  26.587  47.606  1.00  0.00     0.130 A 
HETATM   20  C   UNL     1       1.577  28.237  48.584  1.00  0.00     0.046 A 
HETATM   21  C   UNL     1       2.058  26.351  46.616  1.00  0.00     0.043 A 
HETATM   22  F   UNL     1       4.152  25.884  47.568  1.00  0.00    -0.205 F 
HETATM   23  C   UNL     1       0.862  27.060  46.616  1.00  0.00     0.005 A 
HETATM   24  C   UNL     1       0.601  28.017  47.601  1.00  0.00     0.030 A 
HETATM   25  N   UNL     1       1.573  29.111  49.643  1.00  0.00    -0.364 N 
HETATM   26  H   UNL     1       0.817  29.747  49.860  1.00  0.00     0.165 HD
HETATM   27  C   UNL     1       2.736  29.000  50.346  1.00  0.00     0.106 A 
ENDBRANCH   1  17
TORSDOF 4
ENDMDL
MODEL 5
REMARK VINA RESULT:      -8.9      4.517      9.389
REMARK  4 active torsions:
REMARK  status: ('A' for Active; 'I' for Inactive)
REMARK    1  A    between atoms: C_10  and  C_11 
REMARK       I    between atoms: C_11  and  N_12 
REMARK    2  A    between atoms: N_12  and  N_13 
REMARK       I    between atoms: N_13  and  C_14 
REMARK    3  A    between atoms: C_14  and  C_15 
REMARK    4  A    between atoms: C_15  and  C_16 
ROOT
HETATM    1  C   UNL     1       8.488  29.217  57.944  1.00  0.00     0.272 C 
HETATM    2  N   UNL     1       7.625  29.711  58.897  1.00  0.00    -0.263 N 
HETATM    3  O   UNL     1       9.709  29.305  58.088  1.00  0.00    -0.266 OA
HETATM    4  H   UNL     1       6.610  29.631  58.845  1.00  0.00     0.190 HD
ENDROOT
BRANCH   2   5
HETATM    5  N   UNL     1       8.156  30.245  60.079  1.00  0.00    -0.267 N 
HETATM    6  C   UNL     1       8.303  31.611  60.179  1.00  0.00     0.240 C 
HETATM    7  O   UNL     1       8.032  32.382  59.259  1.00  0.00    -0.272 OA
HETATM    8  H   UNL     1       8.430  29.581  60.800  1.00  0.00     0.190 HD
BRANCH   6   9
HETATM    9  C   UNL     1       8.822  32.088  61.522  1.00  0.00     0.143 C 
BRANCH   9  10
HETATM   10  C   UNL     1       7.753  32.437  62.533  1.00  0.00    -0.049 A 
HETATM   11  C   UNL     1       8.070  32.891  63.821  1.00  0.00     0.009 A 
HETATM   12  C   UNL     1       7.060  33.261  64.714  1.00  0.00     0.024 A 
HETATM   13  C   UNL     1       5.726  33.199  64.318  1.00  0.00     0.034 A 
HETATM   14 CL   UNL     1       4.485  33.668  65.412  1.00  0.00    -0.084 Cl
HETATM   15  C   UNL     1       5.394  32.769  63.036  1.00  0.00     0.024 A 
HETATM   16  C   UNL     1       6.404  32.394  62.146  1.00  0.00     0.009 A 
ENDBRANCH   9  10
ENDBRANCH   6   9
ENDBRANCH   2   5
BRANCH   1  17
HETATM   17  C   UNL     1       7.886  28.598  56.761  1.00  0.00     0.064 A 
HETATM   18  C   UNL     1       7.366  27.276  56.521  1.00  0.00     0.046 A 
HETATM   19  C   UNL     1       7.231  26.091  57.276  1.00  0.00     0.130 A 
HETATM   20  C   UNL     1       6.914  27.235  55.195  1.00  0.00     0.046 A 
HETATM   21  C   UNL     1       6.668  24.941  56.722  1.00  0.00     0.043 A 
HETATM   22  F   UNL     1       7.644  26.044  58.549  1.00  0.00    -0.205 F 
HETATM   23  C   UNL     1       6.227  24.944  55.404  1.00  0.00     0.005 A 
HETATM   24  C   UNL     1       6.343  26.093  54.616  1.00  0.00     0.030 A 
HETATM   25  N   UNL     1       7.147  28.473  54.647  1.00  0.00    -0.364 N 
HETATM   26  H   UNL     1       6.922  28.731  53.695  1.00  0.00     0.165 HD
HETATM   27  C   UNL     1       7.731  29.291  55.568  1.00  0.00     0.106 A 
ENDBRANCH   1  17
TORSDOF 4
ENDMDL
MODEL 6
REMARK VINA RESULT:      -8.8      3.601      8.467
REMARK  4 active torsions:
REMARK  status: ('A' for Active; 'I' for Inactive)
REMARK    1  A    between atoms: C_10  and  C_11 
REMARK       I    between atoms: C_11  and  N_12 
REMARK    2  A    between atoms: N_12  and  N_13 
REMARK       I    between atoms: N_13  and  C_14 
REMARK    3  A    between atoms: C_14  and  C_15 
REMARK    4  A    between atoms: C_15  and  C_16 
ROOT
HETATM    1  C   UNL     1       7.865  25.735  56.904  1.00  0.00     0.272 C 
HETATM    2  N   UNL     1       6.720  26.392  56.510  1.00  0.00    -0.263 N 
HETATM    3  O   UNL     1       8.700  26.289  57.620  1.00  0.00    -0.266 OA
HETATM    4  H   UNL     1       5.982  25.968  55.950  1.00  0.00     0.190 HD
ENDROOT
BRANCH   2   5
HETATM    5  N   UNL     1       6.477  27.681  57.005  1.00  0.00    -0.267 N 
HETATM    6  C   UNL     1       6.776  28.763  56.206  1.00  0.00     0.240 C 
HETATM    7  O   UNL     1       7.292  28.652  55.095  1.00  0.00    -0.272 OA
HETATM    8  H   UNL     1       6.108  27.747  57.951  1.00  0.00     0.190 HD
BRANCH   6   9
HETATM    9  C   UNL     1       6.412  30.106  56.810  1.00  0.00     0.143 C 
BRANCH   9  10
HETATM   10  C   UNL     1       7.264  30.530  57.984  1.00  0.00    -0.049 A 
HETATM   11  C   UNL     1       8.594  30.109  58.128  1.00  0.00     0.009 A 
HETATM   12  C   UNL     1       9.375  30.565  59.194  1.00  0.00     0.024 A 
HETATM   13  C   UNL     1       8.837  31.462  60.113  1.00  0.00     0.034 A 
HETATM   14 CL   UNL     1       9.803  32.034  61.417  1.00  0.00    -0.084 Cl
HETATM   15  C   UNL     1       7.525  31.906  59.977  1.00  0.00     0.024 A 
HETATM   16  C   UNL     1       6.743  31.446  58.913  1.00  0.00     0.009 A 
ENDBRANCH   9  10
ENDBRANCH   6   9
ENDBRANCH   2   5
BRANCH   1  17
HETATM   17  C   UNL     1       8.038  24.362  56.424  1.00  0.00     0.064 A 
HETATM   18  C   UNL     1       7.998  23.787  55.103  1.00  0.00     0.046 A 
HETATM   19  C   UNL     1       7.782  24.274  53.796  1.00  0.00     0.130 A 
HETATM   20  C   UNL     1       8.227  22.411  55.235  1.00  0.00     0.046 A 
HETATM   21  C   UNL     1       7.803  23.419  52.693  1.00  0.00     0.043 A 
HETATM   22  F   UNL     1       7.548  25.575  53.583  1.00  0.00    -0.205 F 
HETATM   23  C   UNL     1       8.040  22.060  52.866  1.00  0.00     0.005 A 
HETATM   24  C   UNL     1       8.256  21.532  54.143  1.00  0.00     0.030 A 
HETATM   25  N   UNL     1       8.400  22.152  56.572  1.00  0.00    -0.364 N 
HETATM   26  H   UNL     1       8.579  21.237  56.963  1.00  0.00     0.165 HD
HETATM   27  C   UNL     1       8.283  23.306  57.291  1.00  0.00     0.106 A 
ENDBRANCH   1  17
TORSDOF 4
ENDMDL
MODEL 7
REMARK VINA RESULT:      -8.7      2.910      4.379
REMARK  4 active torsions:
REMARK  status: ('A' for Active; 'I' for Inactive)
REMARK    1  A    between atoms: C_10  and  C_11 
REMARK       I    between atoms: C_11  and  N_12 
REMARK    2  A    between atoms: N_12  and  N_13 
REMARK       I    between atoms: N_13  and  C_14 
REMARK    3  A    between atoms: C_14  and  C_15 
REMARK    4  A    between atoms: C_15  and  C_16 
ROOT
HETATM    1  C   UNL     1       7.430  32.002  59.677  1.00  0.00     0.272 C 
HETATM    2  N   UNL     1       6.914  30.833  59.162  1.00  0.00    -0.263 N 
HETATM    3  O   UNL     1       8.525  32.429  59.308  1.00  0.00    -0.266 OA
HETATM    4  H   UNL     1       5.999  30.456  59.406  1.00  0.00     0.190 HD
ENDROOT
BRANCH   2   5
HETATM    5  N   UNL     1       7.619  30.174  58.146  1.00  0.00    -0.267 N 
HETATM    6  C   UNL     1       6.958  29.235  57.384  1.00  0.00     0.240 C 
HETATM    7  O   UNL     1       5.787  28.914  57.587  1.00  0.00    -0.272 OA
HETATM    8  H   UNL     1       8.602  30.413  58.041  1.00  0.00     0.190 HD
BRANCH   6   9
HETATM    9  C   UNL     1       7.792  28.632  56.271  1.00  0.00     0.143 C 
BRANCH   9  10
HETATM   10  C   UNL     1       7.722  27.126  56.164  1.00  0.00    -0.049 A 
HETATM   11  C   UNL     1       7.273  26.483  55.001  1.00  0.00     0.009 A 
HETATM   12  C   UNL     1       7.275  25.088  54.912  1.00  0.00     0.024 A 
HETATM   13  C   UNL     1       7.744  24.326  55.978  1.00  0.00     0.034 A 
HETATM   14 CL   UNL     1       7.760  22.610  55.862  1.00  0.00    -0.084 Cl
HETATM   15  C   UNL     1       8.212  24.946  57.133  1.00  0.00     0.024 A 
HETATM   16  C   UNL     1       8.205  26.341  57.224  1.00  0.00     0.009 A 
ENDBRANCH   9  10
ENDBRANCH   6   9
ENDBRANCH   2   5
BRANCH   1  17
HETATM   17  C   UNL     1       6.621  32.697  60.682  1.00  0.00     0.064 A 
HETATM   18  C   UNL     1       6.844  32.977  62.077  1.00  0.00     0.046 A 
HETATM   19  C   UNL     1       7.871  32.712  63.009  1.00  0.00     0.130 A 
HETATM   20  C   UNL     1       5.725  33.673  62.552  1.00  0.00     0.046 A 
HETATM   21  C   UNL     1       7.769  33.133  64.336  1.00  0.00     0.043 A 
HETATM   22  F   UNL     1       8.972  32.046  62.639  1.00  0.00    -0.205 F 
HETATM   23  C   UNL     1       6.643  33.826  64.765  1.00  0.00     0.005 A 
HETATM   24  C   UNL     1       5.600  34.108  63.879  1.00  0.00     0.030 A 
HETATM   25  N   UNL     1       4.854  33.813  61.499  1.00  0.00    -0.364 N 
HETATM   26  H   UNL     1       3.957  34.275  61.552  1.00  0.00     0.165 HD
HETATM   27  C   UNL     1       5.375  33.229  60.381  1.00  0.00     0.106 A 
ENDBRANCH   1  17
TORSDOF 4
ENDMDL
MODEL 8
REMARK VINA RESULT:      -8.6      1.803      2.522
REMARK  4 active torsions:
REMARK  status: ('A' for Active; 'I' for Inactive)
REMARK    1  A    between atoms: C_10  and  C_11 
REMARK       I    between atoms: C_11  and  N_12 
REMARK    2  A    between atoms: N_12  and  N_13 
REMARK       I    between atoms: N_13  and  C_14 
REMARK    3  A    between atoms: C_14  and  C_15 
REMARK    4  A    between atoms: C_15  and  C_16 
ROOT
HETATM    1  C   UNL     1       7.845  30.209  58.158  1.00  0.00     0.272 C 
HETATM    2  N   UNL     1       7.009  29.243  57.642  1.00  0.00    -0.263 N 
HETATM    3  O   UNL     1       9.037  30.248  57.847  1.00  0.00    -0.266 OA
HETATM    4  H   UNL     1       6.010  29.189  57.837  1.00  0.00     0.190 HD
ENDROOT
BRANCH   2   5
HETATM    5  N   UNL     1       7.516  28.349  56.690  1.00  0.00    -0.267 N 
HETATM    6  C   UNL     1       6.668  27.407  56.149  1.00  0.00     0.240 C 
HETATM    7  O   UNL     1       5.496  27.283  56.501  1.00  0.00    -0.272 OA
HETATM    8  H   UNL     1       8.505  28.433  56.463  1.00  0.00     0.190 HD
BRANCH   6   9
HETATM    9  C   UNL     1       7.300  26.536  55.081  1.00  0.00     0.143 C 
BRANCH   9  10
HETATM   10  C   UNL     1       7.562  25.106  55.495  1.00  0.00    -0.049 A 
HETATM   11  C   UNL     1       7.303  24.025  54.639  1.00  0.00     0.009 A 
HETATM   12  C   UNL     1       7.609  22.718  55.029  1.00  0.00     0.024 A 
HETATM   13  C   UNL     1       8.196  22.484  56.270  1.00  0.00     0.034 A 
HETATM   14 CL   UNL     1       8.586  20.877  56.743  1.00  0.00    -0.084 Cl
HETATM   15  C   UNL     1       8.478  23.545  57.125  1.00  0.00     0.024 A 
HETATM   16  C   UNL     1       8.166  24.851  56.737  1.00  0.00     0.009 A 
ENDBRANCH   9  10
ENDBRANCH   6   9
ENDBRANCH   2   5
BRANCH   1  17
HETATM   17  C   UNL     1       7.251  31.169  59.092  1.00  0.00     0.064 A 
HETATM   18  C   UNL     1       7.594  31.544  60.440  1.00  0.00     0.046 A 
HETATM   19  C   UNL     1       8.581  31.165  61.375  1.00  0.00     0.130 A 
HETATM   20  C   UNL     1       6.673  32.516  60.854  1.00  0.00     0.046 A 
HETATM   21  C   UNL     1       8.633  31.740  62.645  1.00  0.00     0.043 A 
HETATM   22  F   UNL     1       9.495  30.238  61.061  1.00  0.00    -0.205 F 
HETATM   23  C   UNL     1       7.704  32.705  63.014  1.00  0.00     0.005 A 
HETATM   24  C   UNL     1       6.705  33.110  62.124  1.00  0.00     0.030 A 
HETATM   25  N   UNL     1       5.805  32.727  59.810  1.00  0.00    -0.364 N 
HETATM   26  H   UNL     1       5.031  33.377  59.828  1.00  0.00     0.165 HD
HETATM   27  C   UNL     1       6.137  31.925  58.757  1.00  0.00     0.106 A 
ENDBRANCH   1  17
TORSDOF 4
ENDMDL
MODEL 9
REMARK VINA RESULT:      -8.5      2.779      4.072
REMARK  4 active torsions:
REMARK  status: ('A' for Active; 'I' for Inactive)
REMARK    1  A    between atoms: C_10  and  C_11 
REMARK       I    between atoms: C_11  and  N_12 
REMARK    2  A    between atoms: N_12  and  N_13 
REMARK       I    between atoms: N_13  and  C_14 
REMARK    3  A    between atoms: C_14  and  C_15 
REMARK    4  A    between atoms: C_15  and  C_16 
ROOT
HETATM    1  C   UNL     1       7.525  30.965  59.219  1.00  0.00     0.272 C 
HETATM    2  N   UNL     1       7.745  29.634  58.938  1.00  0.00    -0.263 N 
HETATM    3  O   UNL     1       6.979  31.704  58.399  1.00  0.00    -0.266 OA
HETATM    4  H   UNL     1       8.158  28.973  59.595  1.00  0.00     0.190 HD
ENDROOT
BRANCH   2   5
HETATM    5  N   UNL     1       7.263  29.110  57.732  1.00  0.00    -0.267 N 
HETATM    6  C   UNL     1       8.151  28.491  56.878  1.00  0.00     0.240 C 
HETATM    7  O   UNL     1       9.358  28.419  57.106  1.00  0.00    -0.272 OA
HETATM    8  H   UNL     1       6.272  29.238  57.539  1.00  0.00     0.190 HD
BRANCH   6   9
HETATM    9  C   UNL     1       7.515  27.900  55.635  1.00  0.00     0.143 C 
BRANCH   9  10
HETATM   10  C   UNL     1       7.463  26.390  55.600  1.00  0.00    -0.049 A 
HETATM   11  C   UNL     1       7.347  25.678  54.397  1.00  0.00     0.009 A 
HETATM   12  C   UNL     1       7.360  24.280  54.393  1.00  0.00     0.024 A 
HETATM   13  C   UNL     1       7.508  23.584  55.589  1.00  0.00     0.034 A 
HETATM   14 CL   UNL     1       7.539  21.864  55.582  1.00  0.00    -0.084 Cl
HETATM   15  C   UNL     1       7.643  24.273  56.791  1.00  0.00     0.024 A 
HETATM   16  C   UNL     1       7.626  25.671  56.796  1.00  0.00     0.009 A 
ENDBRANCH   9  10
ENDBRANCH   6   9
ENDBRANCH   2   5
BRANCH   1  17
HETATM   17  C   UNL     1       7.978  31.450  60.525  1.00  0.00     0.064 A 
HETATM   18  C   UNL     1       7.267  31.997  61.652  1.00  0.00     0.046 A 
HETATM   19  C   UNL     1       5.918  32.284  61.954  1.00  0.00     0.130 A 
HETATM   20  C   UNL     1       8.213  32.300  62.641  1.00  0.00     0.046 A 
HETATM   21  C   UNL     1       5.553  32.838  63.182  1.00  0.00     0.043 A 
HETATM   22  F   UNL     1       4.952  32.031  61.061  1.00  0.00    -0.205 F 
HETATM   23  C   UNL     1       6.522  33.119  64.137  1.00  0.00     0.005 A 
HETATM   24  C   UNL     1       7.871  32.855  63.883  1.00  0.00     0.030 A 
HETATM   25  N   UNL     1       9.446  31.957  62.144  1.00  0.00    -0.364 N 
HETATM   26  H   UNL     1      10.319  32.069  62.643  1.00  0.00     0.165 HD
HETATM   27  C   UNL     1       9.319  31.456  60.882  1.00  0.00     0.106 A 
ENDBRANCH   1  17
TORSDOF 4
ENDMDL
MODEL 10
REMARK VINA RESULT:      -8.0      6.986      9.642
REMARK  4 active torsions:
REMARK  status: ('A' for Active; 'I' for Inactive)
REMARK    1  A    between atoms: C_10  and  C_11 
REMARK       I    between atoms: C_11  and  N_12 
REMARK    2  A    between atoms: N_12  and  N_13 
REMARK       I    between atoms: N_13  and  C_14 
REMARK    3  A    between atoms: C_14  and  C_15 
REMARK    4  A    between atoms: C_15  and  C_16 
ROOT
HETATM    1  C   UNL     1       3.660  26.739  48.718  1.00  0.00     0.272 C 
HETATM    2  N   UNL     1       4.328  26.835  49.919  1.00  0.00    -0.263 N 
HETATM    3  O   UNL     1       3.243  25.654  48.309  1.00  0.00    -0.266 OA
HETATM    4  H   UNL     1       4.660  27.712  50.319  1.00  0.00     0.190 HD
ENDROOT
BRANCH   2   5
HETATM    5  N   UNL     1       4.457  25.689  50.713  1.00  0.00    -0.267 N 
HETATM    6  C   UNL     1       5.374  25.697  51.742  1.00  0.00     0.240 C 
HETATM    7  O   UNL     1       6.120  26.650  51.966  1.00  0.00    -0.272 OA
HETATM    8  H   UNL     1       3.873  24.892  50.468  1.00  0.00     0.190 HD
BRANCH   6   9
HETATM    9  C   UNL     1       5.385  24.433  52.581  1.00  0.00     0.143 C 
BRANCH   9  10
HETATM   10  C   UNL     1       6.294  24.476  53.788  1.00  0.00    -0.049 A 
HETATM   11  C   UNL     1       5.913  25.103  54.983  1.00  0.00     0.009 A 
HETATM   12  C   UNL     1       6.752  25.075  56.101  1.00  0.00     0.024 A 
HETATM   13  C   UNL     1       7.970  24.403  56.038  1.00  0.00     0.034 A 
HETATM   14 CL   UNL     1       8.995  24.357  57.418  1.00  0.00    -0.084 Cl
HETATM   15  C   UNL     1       8.357  23.759  54.866  1.00  0.00     0.024 A 
HETATM   16  C   UNL     1       7.520  23.791  53.747  1.00  0.00     0.009 A 
ENDBRANCH   9  10
ENDBRANCH   6   9
ENDBRANCH   2   5
BRANCH   1  17
HETATM   17  C   UNL     1       3.482  27.979  47.958  1.00  0.00     0.064 A 
HETATM   18  C   UNL     1       2.323  28.582  47.351  1.00  0.00     0.046 A 
HETATM   19  C   UNL     1       0.955  28.252  47.235  1.00  0.00     0.130 A 
HETATM   20  C   UNL     1       2.738  29.774  46.742  1.00  0.00     0.046 A 
HETATM   21  C   UNL     1       0.066  29.082  46.551  1.00  0.00     0.043 A 
HETATM   22  F   UNL     1       0.478  27.127  47.782  1.00  0.00    -0.205 F 
HETATM   23  C   UNL     1       0.518  30.259  45.966  1.00  0.00     0.005 A 
HETATM   24  C   UNL     1       1.864  30.626  46.051  1.00  0.00     0.030 A 
HETATM   25  N   UNL     1       4.088  29.897  46.963  1.00  0.00    -0.364 N 
HETATM   26  H   UNL     1       4.658  30.664  46.633  1.00  0.00     0.165 HD
HETATM   27  C   UNL     1       4.543  28.829  47.681  1.00  0.00     0.106 A 
ENDBRANCH   1  17
TORSDOF 4
ENDMDL
