MODEL 1
REMARK VINA RESULT:     -10.5      0.000      0.000
REMARK  8 active torsions:
REMARK  status: ('A' for Active; 'I' for Inactive)
REMARK    1  A    between atoms: C_2  and  C_3 
REMARK    2  A    between atoms: C_6  and  N_7 
REMARK       I    between atoms: N_7  and  C_8 
REMARK    3  A    between atoms: C_8  and  C_9 
REMARK    4  A    between atoms: C_9  and  S_10 
REMARK    5  A    between atoms: S_10  and  C_11 
REMARK    6  A    between atoms: C_23  and  C_24 
REMARK    7  A    between atoms: C_24  and  C_25 
REMARK       I    between atoms: C_25  and  N_26 
REMARK    8  A    between atoms: N_26  and  C_27 
ROOT
HETATM    1  C   UNL     1       4.324  29.991  55.080  1.00  0.00     0.178 A 
HETATM    2  N   UNL     1       5.174  29.902  56.173  1.00  0.00    -0.241 N 
HETATM    3  C   UNL     1       5.535  31.005  56.873  1.00  0.00     0.147 A 
HETATM    4  N   UNL     1       6.420  30.859  57.811  1.00  0.00    -0.256 NA
HETATM    5  C   UNL     1       4.914  32.278  56.511  1.00  0.00     0.039 A 
HETATM    6  C   UNL     1       4.029  32.261  55.429  1.00  0.00     0.073 A 
HETATM    7  C   UNL     1       5.188  33.454  57.216  1.00  0.00     0.018 A 
HETATM    8  C   UNL     1       4.571  34.641  56.826  1.00  0.00     0.001 A 
HETATM    9  C   UNL     1       3.696  34.646  55.739  1.00  0.00     0.002 A 
HETATM   10  C   UNL     1       3.430  33.462  55.043  1.00  0.00     0.032 A 
HETATM   11  C   UNL     1       5.813  28.824  56.742  1.00  0.00     0.257 A 
HETATM   12  O   UNL     1       5.680  27.636  56.499  1.00  0.00    -0.270 OA
HETATM   13  C   UNL     1       6.720  29.397  57.815  1.00  0.00     0.211 A 
HETATM   14  N   UNL     1       3.747  31.088  54.703  1.00  0.00    -0.223 NA
ENDROOT
BRANCH   1  15
HETATM   15  S   UNL     1       4.042  28.590  54.082  1.00  0.00    -0.082 SA
BRANCH  15  16
HETATM   16  C   UNL     1       5.502  28.672  53.018  1.00  0.00     0.185 C 
BRANCH  16  17
HETATM   17  C   UNL     1       6.531  27.574  53.264  1.00  0.00     0.231 C 
HETATM   18  N   UNL     1       6.059  26.282  53.143  1.00  0.00    -0.327 N 
HETATM   19  H   UNL     1       5.131  26.166  52.744  1.00  0.00     0.169 HD
HETATM   20  O   UNL     1       7.658  27.889  53.642  1.00  0.00    -0.272 OA
BRANCH  18  21
HETATM   21  C   UNL     1       6.707  25.087  53.517  1.00  0.00     0.034 A 
HETATM   22  C   UNL     1       6.674  24.542  54.798  1.00  0.00     0.030 A 
HETATM   23  C   UNL     1       7.288  23.311  55.065  1.00  0.00     0.010 A 
HETATM   24  C   UNL     1       7.936  22.590  54.056  1.00  0.00    -0.055 A 
HETATM   25  C   UNL     1       7.990  23.160  52.775  1.00  0.00     0.010 A 
HETATM   26  C   UNL     1       7.390  24.395  52.514  1.00  0.00     0.030 A 
BRANCH  24  27
HETATM   27  C   UNL     1       8.575  21.228  54.282  1.00  0.00     0.010 C 
HETATM   28  C   UNL     1       8.646  20.334  53.039  1.00  0.00     0.015 C 
HETATM   29  C   UNL     1       7.872  20.482  55.419  1.00  0.00     0.015 C 
ENDBRANCH  24  27
ENDBRANCH  18  21
ENDBRANCH  16  17
ENDBRANCH  15  16
ENDBRANCH   1  15
BRANCH  13  30
HETATM   30  C   UNL     1       8.163  29.143  57.430  1.00  0.00     0.140 C 
BRANCH  30  31
HETATM   31  C   UNL     1       9.098  30.060  58.176  1.00  0.00     0.220 C 
HETATM   32  N   UNL     1       8.708  30.313  59.472  1.00  0.00    -0.356 N 
HETATM   33  H   UNL     1       7.860  29.878  59.809  1.00  0.00     0.162 HD
HETATM   34  O   UNL     1      10.091  30.547  57.648  1.00  0.00    -0.274 OA
BRANCH  32  35
HETATM   35  C   UNL     1       9.296  31.388  60.261  1.00  0.00     0.084 C 
HETATM   36  C   UNL     1       8.338  32.587  60.338  1.00  0.00     0.025 C 
HETATM   37  C   UNL     1       7.095  32.278  61.173  1.00  0.00     0.002 C 
HETATM   38  C   UNL     1       7.466  31.797  62.572  1.00  0.00     0.000 C 
HETATM   39  C   UNL     1       8.428  30.613  62.535  1.00  0.00     0.002 C 
HETATM   40  C   UNL     1       9.658  30.895  61.668  1.00  0.00     0.025 C 
ENDBRANCH  32  35
ENDBRANCH  30  31
ENDBRANCH  13  30
TORSDOF 8
ENDMDL
MODEL 2
REMARK VINA RESULT:     -10.4      3.010      4.638
REMARK  8 active torsions:
REMARK  status: ('A' for Active; 'I' for Inactive)
REMARK    1  A    between atoms: C_2  and  C_3 
REMARK    2  A    between atoms: C_6  and  N_7 
REMARK       I    between atoms: N_7  and  C_8 
REMARK    3  A    between atoms: C_8  and  C_9 
REMARK    4  A    between atoms: C_9  and  S_10 
REMARK    5  A    between atoms: S_10  and  C_11 
REMARK    6  A    between atoms: C_23  and  C_24 
REMARK    7  A    between atoms: C_24  and  C_25 
REMARK       I    between atoms: C_25  and  N_26 
REMARK    8  A    between atoms: N_26  and  C_27 
ROOT
HETATM    1  C   UNL     1       5.881  30.356  57.470  1.00  0.00     0.178 A 
HETATM    2  N   UNL     1       5.352  31.306  58.330  1.00  0.00    -0.241 N 
HETATM    3  C   UNL     1       6.135  31.954  59.228  1.00  0.00     0.147 A 
HETATM    4  N   UNL     1       5.551  32.746  60.074  1.00  0.00    -0.256 NA
HETATM    5  C   UNL     1       7.575  31.702  59.186  1.00  0.00     0.039 A 
HETATM    6  C   UNL     1       8.023  30.767  58.249  1.00  0.00     0.073 A 
HETATM    7  C   UNL     1       8.460  32.369  60.039  1.00  0.00     0.018 A 
HETATM    8  C   UNL     1       9.823  32.088  59.959  1.00  0.00     0.001 A 
HETATM    9  C   UNL     1      10.287  31.146  59.040  1.00  0.00     0.002 A 
HETATM   10  C   UNL     1       9.390  30.487  58.192  1.00  0.00     0.032 A 
HETATM   11  C   UNL     1       4.064  31.761  58.501  1.00  0.00     0.257 A 
HETATM   12  O   UNL     1       3.072  31.530  57.829  1.00  0.00    -0.270 OA
HETATM   13  C   UNL     1       4.107  32.690  59.700  1.00  0.00     0.211 A 
HETATM   14  N   UNL     1       7.145  30.081  57.389  1.00  0.00    -0.223 NA
ENDROOT
BRANCH   1  15
HETATM   15  S   UNL     1       4.819  29.398  56.472  1.00  0.00    -0.082 SA
BRANCH  15  16
HETATM   16  C   UNL     1       6.032  28.663  55.350  1.00  0.00     0.185 C 
BRANCH  16  17
HETATM   17  C   UNL     1       6.161  27.148  55.456  1.00  0.00     0.231 C 
HETATM   18  N   UNL     1       7.266  26.603  54.833  1.00  0.00    -0.327 N 
HETATM   19  H   UNL     1       7.978  27.252  54.507  1.00  0.00     0.169 HD
HETATM   20  O   UNL     1       5.253  26.509  55.985  1.00  0.00    -0.272 OA
BRANCH  18  21
HETATM   21  C   UNL     1       7.532  25.241  54.581  1.00  0.00     0.034 A 
HETATM   22  C   UNL     1       7.408  24.635  53.333  1.00  0.00     0.030 A 
HETATM   23  C   UNL     1       7.761  23.290  53.156  1.00  0.00     0.010 A 
HETATM   24  C   UNL     1       8.260  22.526  54.218  1.00  0.00    -0.055 A 
HETATM   25  C   UNL     1       8.353  23.137  55.477  1.00  0.00     0.010 A 
HETATM   26  C   UNL     1       7.986  24.474  55.655  1.00  0.00     0.030 A 
BRANCH  24  27
HETATM   27  C   UNL     1       8.703  21.078  54.069  1.00  0.00     0.010 C 
HETATM   28  C   UNL     1       8.270  20.402  52.764  1.00  0.00     0.015 C 
HETATM   29  C   UNL     1       8.238  20.245  55.266  1.00  0.00     0.015 C 
ENDBRANCH  24  27
ENDBRANCH  18  21
ENDBRANCH  16  17
ENDBRANCH  15  16
ENDBRANCH   1  15
BRANCH  13  30
HETATM   30  C   UNL     1       3.284  32.088  60.821  1.00  0.00     0.140 C 
BRANCH  30  31
HETATM   31  C   UNL     1       3.924  32.335  62.163  1.00  0.00     0.220 C 
HETATM   32  N   UNL     1       3.999  33.666  62.504  1.00  0.00    -0.356 N 
HETATM   33  H   UNL     1       3.631  34.348  61.855  1.00  0.00     0.162 HD
HETATM   34  O   UNL     1       4.357  31.421  62.856  1.00  0.00    -0.274 OA
BRANCH  32  35
HETATM   35  C   UNL     1       4.833  34.138  63.602  1.00  0.00     0.084 C 
HETATM   36  C   UNL     1       6.089  34.841  63.064  1.00  0.00     0.025 C 
HETATM   37  C   UNL     1       5.757  36.167  62.379  1.00  0.00     0.002 C 
HETATM   38  C   UNL     1       4.977  37.095  63.305  1.00  0.00     0.000 C 
HETATM   39  C   UNL     1       3.728  36.425  63.869  1.00  0.00     0.002 C 
HETATM   40  C   UNL     1       4.041  35.077  64.522  1.00  0.00     0.025 C 
ENDBRANCH  32  35
ENDBRANCH  30  31
ENDBRANCH  13  30
TORSDOF 8
ENDMDL
MODEL 3
REMARK VINA RESULT:     -10.3      2.805     10.434
REMARK  8 active torsions:
REMARK  status: ('A' for Active; 'I' for Inactive)
REMARK    1  A    between atoms: C_2  and  C_3 
REMARK    2  A    between atoms: C_6  and  N_7 
REMARK       I    between atoms: N_7  and  C_8 
REMARK    3  A    between atoms: C_8  and  C_9 
REMARK    4  A    between atoms: C_9  and  S_10 
REMARK    5  A    between atoms: S_10  and  C_11 
REMARK    6  A    between atoms: C_23  and  C_24 
REMARK    7  A    between atoms: C_24  and  C_25 
REMARK       I    between atoms: C_25  and  N_26 
REMARK    8  A    between atoms: N_26  and  C_27 
ROOT
HETATM    1  C   UNL     1       7.380  25.780  56.262  1.00  0.00     0.178 A 
HETATM    2  N   UNL     1       6.467  26.024  55.247  1.00  0.00    -0.241 N 
HETATM    3  C   UNL     1       6.446  25.264  54.124  1.00  0.00     0.147 A 
HETATM    4  N   UNL     1       5.641  25.621  53.172  1.00  0.00    -0.256 NA
HETATM    5  C   UNL     1       7.339  24.108  54.065  1.00  0.00     0.039 A 
HETATM    6  C   UNL     1       8.187  23.911  55.159  1.00  0.00     0.073 A 
HETATM    7  C   UNL     1       7.342  23.240  52.968  1.00  0.00     0.018 A 
HETATM    8  C   UNL     1       8.218  22.156  52.961  1.00  0.00     0.001 A 
HETATM    9  C   UNL     1       9.081  21.951  54.038  1.00  0.00     0.002 A 
HETATM   10  C   UNL     1       9.067  22.827  55.129  1.00  0.00     0.032 A 
HETATM   11  C   UNL     1       5.494  26.988  55.112  1.00  0.00     0.257 A 
HETATM   12  O   UNL     1       5.099  27.801  55.931  1.00  0.00    -0.270 OA
HETATM   13  C   UNL     1       4.934  26.820  53.712  1.00  0.00     0.211 A 
HETATM   14  N   UNL     1       8.203  24.779  56.266  1.00  0.00    -0.223 NA
ENDROOT
BRANCH   1  15
HETATM   15  S   UNL     1       7.518  26.896  57.595  1.00  0.00    -0.082 SA
BRANCH  15  16
HETATM   16  C   UNL     1       8.619  28.125  56.855  1.00  0.00     0.185 C 
BRANCH  16  17
HETATM   17  C   UNL     1       8.818  29.385  57.688  1.00  0.00     0.231 C 
HETATM   18  N   UNL     1       8.154  29.406  58.898  1.00  0.00    -0.327 N 
HETATM   19  H   UNL     1       7.732  28.534  59.207  1.00  0.00     0.169 HD
HETATM   20  O   UNL     1       9.455  30.322  57.208  1.00  0.00    -0.272 OA
BRANCH  18  21
HETATM   21  C   UNL     1       7.975  30.502  59.767  1.00  0.00     0.034 A 
HETATM   22  C   UNL     1       7.038  31.514  59.573  1.00  0.00     0.030 A 
HETATM   23  C   UNL     1       6.879  32.531  60.526  1.00  0.00     0.010 A 
HETATM   24  C   UNL     1       7.642  32.550  61.699  1.00  0.00    -0.055 A 
HETATM   25  C   UNL     1       8.604  31.543  61.871  1.00  0.00     0.010 A 
HETATM   26  C   UNL     1       8.772  30.539  60.914  1.00  0.00     0.030 A 
BRANCH  24  27
HETATM   27  C   UNL     1       7.476  33.601  62.786  1.00  0.00     0.010 C 
HETATM   28  C   UNL     1       7.664  33.085  64.217  1.00  0.00     0.015 C 
HETATM   29  C   UNL     1       6.118  34.299  62.660  1.00  0.00     0.015 C 
ENDBRANCH  24  27
ENDBRANCH  18  21
ENDBRANCH  16  17
ENDBRANCH  15  16
ENDBRANCH   1  15
BRANCH  13  30
HETATM   30  C   UNL     1       5.264  28.052  52.896  1.00  0.00     0.140 C 
BRANCH  30  31
HETATM   31  C   UNL     1       4.160  28.377  51.922  1.00  0.00     0.220 C 
HETATM   32  N   UNL     1       4.187  27.610  50.780  1.00  0.00    -0.356 N 
HETATM   33  H   UNL     1       4.913  26.913  50.688  1.00  0.00     0.162 HD
HETATM   34  O   UNL     1       3.344  29.266  52.136  1.00  0.00    -0.274 OA
BRANCH  32  35
HETATM   35  C   UNL     1       3.405  27.954  49.598  1.00  0.00     0.084 C 
HETATM   36  C   UNL     1       3.958  29.226  48.937  1.00  0.00     0.025 C 
HETATM   37  C   UNL     1       5.330  28.995  48.303  1.00  0.00     0.002 C 
HETATM   38  C   UNL     1       5.299  27.842  47.306  1.00  0.00     0.000 C 
HETATM   39  C   UNL     1       4.744  26.563  47.926  1.00  0.00     0.002 C 
HETATM   40  C   UNL     1       3.388  26.789  48.599  1.00  0.00     0.025 C 
ENDBRANCH  32  35
ENDBRANCH  30  31
ENDBRANCH  13  30
TORSDOF 8
ENDMDL
MODEL 4
REMARK VINA RESULT:     -10.2      2.966      9.944
REMARK  8 active torsions:
REMARK  status: ('A' for Active; 'I' for Inactive)
REMARK    1  A    between atoms: C_2  and  C_3 
REMARK    2  A    between atoms: C_6  and  N_7 
REMARK       I    between atoms: N_7  and  C_8 
REMARK    3  A    between atoms: C_8  and  C_9 
REMARK    4  A    between atoms: C_9  and  S_10 
REMARK    5  A    between atoms: S_10  and  C_11 
REMARK    6  A    between atoms: C_23  and  C_24 
REMARK    7  A    between atoms: C_24  and  C_25 
REMARK       I    between atoms: C_25  and  N_26 
REMARK    8  A    between atoms: N_26  and  C_27 
ROOT
HETATM    1  C   UNL     1       8.102  31.548  58.906  1.00  0.00     0.178 A 
HETATM    2  N   UNL     1       8.066  30.499  58.001  1.00  0.00    -0.241 N 
HETATM    3  C   UNL     1       6.895  30.076  57.463  1.00  0.00     0.147 A 
HETATM    4  N   UNL     1       6.925  29.019  56.712  1.00  0.00    -0.256 NA
HETATM    5  C   UNL     1       5.685  30.833  57.779  1.00  0.00     0.039 A 
HETATM    6  C   UNL     1       5.828  31.909  58.660  1.00  0.00     0.073 A 
HETATM    7  C   UNL     1       4.445  30.499  57.224  1.00  0.00     0.018 A 
HETATM    8  C   UNL     1       3.323  31.252  57.563  1.00  0.00     0.001 A 
HETATM    9  C   UNL     1       3.444  32.320  58.452  1.00  0.00     0.002 A 
HETATM   10  C   UNL     1       4.690  32.644  58.999  1.00  0.00     0.032 A 
HETATM   11  C   UNL     1       9.065  29.696  57.499  1.00  0.00     0.257 A 
HETATM   12  O   UNL     1      10.273  29.801  57.630  1.00  0.00    -0.270 OA
HETATM   13  C   UNL     1       8.368  28.634  56.669  1.00  0.00     0.211 A 
HETATM   14  N   UNL     1       7.066  32.254  59.234  1.00  0.00    -0.223 NA
ENDROOT
BRANCH   1  15
HETATM   15  S   UNL     1       9.589  31.934  59.732  1.00  0.00    -0.082 SA
BRANCH  15  16
HETATM   16  C   UNL     1       9.567  30.659  61.015  1.00  0.00     0.185 C 
BRANCH  16  17
HETATM   17  C   UNL     1       8.529  30.877  62.110  1.00  0.00     0.231 C 
HETATM   18  N   UNL     1       7.920  32.116  62.111  1.00  0.00    -0.327 N 
HETATM   19  H   UNL     1       8.083  32.710  61.302  1.00  0.00     0.169 HD
HETATM   20  O   UNL     1       8.371  30.004  62.962  1.00  0.00    -0.272 OA
BRANCH  18  21
HETATM   21  C   UNL     1       7.097  32.674  63.112  1.00  0.00     0.034 A 
HETATM   22  C   UNL     1       5.712  32.784  63.019  1.00  0.00     0.030 A 
HETATM   23  C   UNL     1       4.964  33.287  64.093  1.00  0.00     0.010 A 
HETATM   24  C   UNL     1       5.581  33.677  65.286  1.00  0.00    -0.055 A 
HETATM   25  C   UNL     1       6.980  33.591  65.359  1.00  0.00     0.010 A 
HETATM   26  C   UNL     1       7.725  33.103  64.283  1.00  0.00     0.030 A 
BRANCH  24  27
HETATM   27  C   UNL     1       4.812  34.184  66.497  1.00  0.00     0.010 C 
HETATM   28  C   UNL     1       3.573  35.025  66.169  1.00  0.00     0.015 C 
HETATM   29  C   UNL     1       5.736  34.964  67.436  1.00  0.00     0.015 C 
ENDBRANCH  24  27
ENDBRANCH  18  21
ENDBRANCH  16  17
ENDBRANCH  15  16
ENDBRANCH   1  15
BRANCH  13  30
HETATM   30  C   UNL     1       8.583  27.281  57.315  1.00  0.00     0.140 C 
BRANCH  30  31
HETATM   31  C   UNL     1       7.604  26.262  56.792  1.00  0.00     0.220 C 
HETATM   32  N   UNL     1       7.647  26.105  55.425  1.00  0.00    -0.356 N 
HETATM   33  H   UNL     1       8.308  26.660  54.900  1.00  0.00     0.162 HD
HETATM   34  O   UNL     1       6.829  25.664  57.530  1.00  0.00    -0.274 OA
BRANCH  32  35
HETATM   35  C   UNL     1       6.600  25.402  54.693  1.00  0.00     0.084 C 
HETATM   36  C   UNL     1       6.628  25.788  53.206  1.00  0.00     0.025 C 
HETATM   37  C   UNL     1       7.871  25.251  52.496  1.00  0.00     0.002 C 
HETATM   38  C   UNL     1       8.001  23.740  52.661  1.00  0.00     0.000 C 
HETATM   39  C   UNL     1       7.965  23.318  54.127  1.00  0.00     0.002 C 
HETATM   40  C   UNL     1       6.745  23.883  54.860  1.00  0.00     0.025 C 
ENDBRANCH  32  35
ENDBRANCH  30  31
ENDBRANCH  13  30
TORSDOF 8
ENDMDL
MODEL 5
REMARK VINA RESULT:     -10.1      1.925      7.595
REMARK  8 active torsions:
REMARK  status: ('A' for Active; 'I' for Inactive)
REMARK    1  A    between atoms: C_2  and  C_3 
REMARK    2  A    between atoms: C_6  and  N_7 
REMARK       I    between atoms: N_7  and  C_8 
REMARK    3  A    between atoms: C_8  and  C_9 
REMARK    4  A    between atoms: C_9  and  S_10 
REMARK    5  A    between atoms: S_10  and  C_11 
REMARK    6  A    between atoms: C_23  and  C_24 
REMARK    7  A    between atoms: C_24  and  C_25 
REMARK       I    between atoms: C_25  and  N_26 
REMARK    8  A    between atoms: N_26  and  C_27 
ROOT
HETATM    1  C   UNL     1       6.954  26.338  54.280  1.00  0.00     0.178 A 
HETATM    2  N   UNL     1       7.621  26.831  55.391  1.00  0.00    -0.241 N 
HETATM    3  C   UNL     1       8.101  25.999  56.348  1.00  0.00     0.147 A 
HETATM    4  N   UNL     1       8.613  26.538  57.412  1.00  0.00    -0.256 NA
HETATM    5  C   UNL     1       7.993  24.559  56.119  1.00  0.00     0.039 A 
HETATM    6  C   UNL     1       7.351  24.155  54.945  1.00  0.00     0.073 A 
HETATM    7  C   UNL     1       8.510  23.631  57.029  1.00  0.00     0.018 A 
HETATM    8  C   UNL     1       8.375  22.270  56.763  1.00  0.00     0.001 A 
HETATM    9  C   UNL     1       7.725  21.848  55.603  1.00  0.00     0.002 A 
HETATM   10  C   UNL     1       7.213  22.787  54.701  1.00  0.00     0.032 A 
HETATM   11  C   UNL     1       7.909  28.119  55.781  1.00  0.00     0.257 A 
HETATM   12  O   UNL     1       7.759  29.160  55.163  1.00  0.00    -0.270 OA
HETATM   13  C   UNL     1       8.523  28.007  57.164  1.00  0.00     0.211 A 
HETATM   14  N   UNL     1       6.817  25.075  54.022  1.00  0.00    -0.223 NA
ENDROOT
BRANCH   1  15
HETATM   15  S   UNL     1       6.174  27.438  53.174  1.00  0.00    -0.082 SA
BRANCH  15  16
HETATM   16  C   UNL     1       4.592  27.656  54.023  1.00  0.00     0.185 C 
BRANCH  16  17
HETATM   17  C   UNL     1       4.351  29.059  54.569  1.00  0.00     0.231 C 
HETATM   18  N   UNL     1       5.003  29.356  55.749  1.00  0.00    -0.327 N 
HETATM   19  H   UNL     1       5.708  28.694  56.065  1.00  0.00     0.169 HD
HETATM   20  O   UNL     1       3.538  29.787  54.001  1.00  0.00    -0.272 OA
BRANCH  18  21
HETATM   21  C   UNL     1       4.805  30.471  56.589  1.00  0.00     0.034 A 
HETATM   22  C   UNL     1       5.384  31.721  56.385  1.00  0.00     0.030 A 
HETATM   23  C   UNL     1       5.076  32.796  57.231  1.00  0.00     0.010 A 
HETATM   24  C   UNL     1       4.173  32.649  58.289  1.00  0.00    -0.055 A 
HETATM   25  C   UNL     1       3.618  31.379  58.505  1.00  0.00     0.010 A 
HETATM   26  C   UNL     1       3.937  30.305  57.670  1.00  0.00     0.030 A 
BRANCH  24  27
HETATM   27  C   UNL     1       3.768  33.794  59.206  1.00  0.00     0.010 C 
HETATM   28  C   UNL     1       2.878  33.391  60.387  1.00  0.00     0.015 C 
HETATM   29  C   UNL     1       3.095  34.914  58.407  1.00  0.00     0.015 C 
ENDBRANCH  24  27
ENDBRANCH  18  21
ENDBRANCH  16  17
ENDBRANCH  15  16
ENDBRANCH   1  15
BRANCH  13  30
HETATM   30  C   UNL     1       7.602  28.667  58.169  1.00  0.00     0.140 C 
BRANCH  30  31
HETATM   31  C   UNL     1       8.097  30.039  58.548  1.00  0.00     0.220 C 
HETATM   32  N   UNL     1       7.466  30.571  59.649  1.00  0.00    -0.356 N 
HETATM   33  H   UNL     1       6.750  30.020  60.102  1.00  0.00     0.162 HD
HETATM   34  O   UNL     1       8.962  30.621  57.901  1.00  0.00    -0.274 OA
BRANCH  32  35
HETATM   35  C   UNL     1       7.579  31.981  60.000  1.00  0.00     0.084 C 
HETATM   36  C   UNL     1       6.524  32.363  61.050  1.00  0.00     0.025 C 
HETATM   37  C   UNL     1       6.801  31.716  62.407  1.00  0.00     0.002 C 
HETATM   38  C   UNL     1       8.202  32.049  62.909  1.00  0.00     0.000 C 
HETATM   39  C   UNL     1       9.277  31.694  61.887  1.00  0.00     0.002 C 
HETATM   40  C   UNL     1       8.990  32.303  60.512  1.00  0.00     0.025 C 
ENDBRANCH  32  35
ENDBRANCH  30  31
ENDBRANCH  13  30
TORSDOF 8
ENDMDL
MODEL 6
REMARK VINA RESULT:     -10.1      2.785      5.045
REMARK  8 active torsions:
REMARK  status: ('A' for Active; 'I' for Inactive)
REMARK    1  A    between atoms: C_2  and  C_3 
REMARK    2  A    between atoms: C_6  and  N_7 
REMARK       I    between atoms: N_7  and  C_8 
REMARK    3  A    between atoms: C_8  and  C_9 
REMARK    4  A    between atoms: C_9  and  S_10 
REMARK    5  A    between atoms: S_10  and  C_11 
REMARK    6  A    between atoms: C_23  and  C_24 
REMARK    7  A    between atoms: C_24  and  C_25 
REMARK       I    between atoms: C_25  and  N_26 
REMARK    8  A    between atoms: N_26  and  C_27 
ROOT
HETATM    1  C   UNL     1       7.315  30.270  57.910  1.00  0.00     0.178 A 
HETATM    2  N   UNL     1       6.502  31.382  58.068  1.00  0.00    -0.241 N 
HETATM    3  C   UNL     1       6.532  32.118  59.206  1.00  0.00     0.147 A 
HETATM    4  N   UNL     1       5.664  33.075  59.327  1.00  0.00    -0.256 NA
HETATM    5  C   UNL     1       7.530  31.772  60.218  1.00  0.00     0.039 A 
HETATM    6  C   UNL     1       8.343  30.668  59.948  1.00  0.00     0.073 A 
HETATM    7  C   UNL     1       7.667  32.513  61.396  1.00  0.00     0.018 A 
HETATM    8  C   UNL     1       8.632  32.137  62.328  1.00  0.00     0.001 A 
HETATM    9  C   UNL     1       9.442  31.028  62.082  1.00  0.00     0.002 A 
HETATM   10  C   UNL     1       9.295  30.296  60.899  1.00  0.00     0.032 A 
HETATM   11  C   UNL     1       5.554  31.940  57.241  1.00  0.00     0.257 A 
HETATM   12  O   UNL     1       5.288  31.664  56.082  1.00  0.00    -0.270 OA
HETATM   13  C   UNL     1       4.902  33.050  58.043  1.00  0.00     0.211 A 
HETATM   14  N   UNL     1       8.214  29.906  58.771  1.00  0.00    -0.223 NA
ENDROOT
BRANCH   1  15
HETATM   15  S   UNL     1       7.108  29.230  56.526  1.00  0.00    -0.082 SA
BRANCH  15  16
HETATM   16  C   UNL     1       5.710  28.235  57.097  1.00  0.00     0.185 C 
BRANCH  16  17
HETATM   17  C   UNL     1       5.849  26.738  56.847  1.00  0.00     0.231 C 
HETATM   18  N   UNL     1       7.011  26.350  56.210  1.00  0.00    -0.327 N 
HETATM   19  H   UNL     1       7.739  27.053  56.112  1.00  0.00     0.169 HD
HETATM   20  O   UNL     1       4.907  25.998  57.126  1.00  0.00    -0.272 OA
BRANCH  18  21
HETATM   21  C   UNL     1       7.315  25.087  55.661  1.00  0.00     0.034 A 
HETATM   22  C   UNL     1       7.159  24.755  54.318  1.00  0.00     0.030 A 
HETATM   23  C   UNL     1       7.553  23.496  53.844  1.00  0.00     0.010 A 
HETATM   24  C   UNL     1       8.126  22.547  54.698  1.00  0.00    -0.055 A 
HETATM   25  C   UNL     1       8.253  22.880  56.055  1.00  0.00     0.010 A 
HETATM   26  C   UNL     1       7.845  24.129  56.529  1.00  0.00     0.030 A 
BRANCH  24  27
HETATM   27  C   UNL     1       8.616  21.186  54.226  1.00  0.00     0.010 C 
HETATM   28  C   UNL     1       7.875  20.621  53.009  1.00  0.00     0.015 C 
HETATM   29  C   UNL     1       8.582  20.172  55.373  1.00  0.00     0.015 C 
ENDBRANCH  24  27
ENDBRANCH  18  21
ENDBRANCH  16  17
ENDBRANCH  15  16
ENDBRANCH   1  15
BRANCH  13  30
HETATM   30  C   UNL     1       3.450  32.696  58.287  1.00  0.00     0.140 C 
BRANCH  30  31
HETATM   31  C   UNL     1       3.171  32.507  59.756  1.00  0.00     0.220 C 
HETATM   32  N   UNL     1       3.052  33.688  60.453  1.00  0.00    -0.356 N 
HETATM   33  H   UNL     1       3.153  34.556  59.945  1.00  0.00     0.162 HD
HETATM   34  O   UNL     1       3.092  31.395  60.266  1.00  0.00    -0.274 OA
BRANCH  32  35
HETATM   35  C   UNL     1       3.078  33.733  61.910  1.00  0.00     0.084 C 
HETATM   36  C   UNL     1       4.524  33.813  62.422  1.00  0.00     0.025 C 
HETATM   37  C   UNL     1       5.178  35.155  62.092  1.00  0.00     0.002 C 
HETATM   38  C   UNL     1       4.355  36.324  62.623  1.00  0.00     0.000 C 
HETATM   39  C   UNL     1       2.908  36.270  62.144  1.00  0.00     0.002 C 
HETATM   40  C   UNL     1       2.254  34.917  62.433  1.00  0.00     0.025 C 
ENDBRANCH  32  35
ENDBRANCH  30  31
ENDBRANCH  13  30
TORSDOF 8
ENDMDL
MODEL 7
REMARK VINA RESULT:     -10.1      3.850      5.734
REMARK  8 active torsions:
REMARK  status: ('A' for Active; 'I' for Inactive)
REMARK    1  A    between atoms: C_2  and  C_3 
REMARK    2  A    between atoms: C_6  and  N_7 
REMARK       I    between atoms: N_7  and  C_8 
REMARK    3  A    between atoms: C_8  and  C_9 
REMARK    4  A    between atoms: C_9  and  S_10 
REMARK    5  A    between atoms: S_10  and  C_11 
REMARK    6  A    between atoms: C_23  and  C_24 
REMARK    7  A    between atoms: C_24  and  C_25 
REMARK       I    between atoms: C_25  and  N_26 
REMARK    8  A    between atoms: N_26  and  C_27 
ROOT
HETATM    1  C   UNL     1       7.651  31.385  59.916  1.00  0.00     0.178 A 
HETATM    2  N   UNL     1       7.076  31.699  61.139  1.00  0.00    -0.241 N 
HETATM    3  C   UNL     1       5.941  32.435  61.213  1.00  0.00     0.147 A 
HETATM    4  N   UNL     1       5.525  32.784  62.391  1.00  0.00    -0.256 NA
HETATM    5  C   UNL     1       5.275  32.793  59.960  1.00  0.00     0.039 A 
HETATM    6  C   UNL     1       5.900  32.387  58.777  1.00  0.00     0.073 A 
HETATM    7  C   UNL     1       4.071  33.503  59.947  1.00  0.00     0.018 A 
HETATM    8  C   UNL     1       3.482  33.822  58.725  1.00  0.00     0.001 A 
HETATM    9  C   UNL     1       4.099  33.438  57.534  1.00  0.00     0.002 A 
HETATM   10  C   UNL     1       5.304  32.727  57.562  1.00  0.00     0.032 A 
HETATM   11  C   UNL     1       7.469  31.415  62.427  1.00  0.00     0.257 A 
HETATM   12  O   UNL     1       8.367  30.684  62.813  1.00  0.00    -0.270 OA
HETATM   13  C   UNL     1       6.507  32.164  63.330  1.00  0.00     0.211 A 
HETATM   14  N   UNL     1       7.117  31.679  58.772  1.00  0.00    -0.223 NA
ENDROOT
BRANCH   1  15
HETATM   15  S   UNL     1       9.214  30.615  59.861  1.00  0.00    -0.082 SA
BRANCH  15  16
HETATM   16  C   UNL     1       9.656  30.940  58.138  1.00  0.00     0.185 C 
BRANCH  16  17
HETATM   17  C   UNL     1       9.560  29.730  57.217  1.00  0.00     0.231 C 
HETATM   18  N   UNL     1       8.322  29.121  57.165  1.00  0.00    -0.327 N 
HETATM   19  H   UNL     1       7.548  29.616  57.601  1.00  0.00     0.169 HD
HETATM   20  O   UNL     1      10.582  29.316  56.670  1.00  0.00    -0.272 OA
BRANCH  18  21
HETATM   21  C   UNL     1       7.993  27.879  56.584  1.00  0.00     0.034 A 
HETATM   22  C   UNL     1       7.603  27.710  55.258  1.00  0.00     0.030 A 
HETATM   23  C   UNL     1       7.362  26.428  54.743  1.00  0.00     0.010 A 
HETATM   24  C   UNL     1       7.521  25.287  55.538  1.00  0.00    -0.055 A 
HETATM   25  C   UNL     1       7.885  25.469  56.880  1.00  0.00     0.010 A 
HETATM   26  C   UNL     1       8.110  26.749  57.396  1.00  0.00     0.030 A 
BRANCH  24  27
HETATM   27  C   UNL     1       7.320  23.872  55.016  1.00  0.00     0.010 C 
HETATM   28  C   UNL     1       7.920  22.770  55.894  1.00  0.00     0.015 C 
HETATM   29  C   UNL     1       7.850  23.744  53.585  1.00  0.00     0.015 C 
ENDBRANCH  24  27
ENDBRANCH  18  21
ENDBRANCH  16  17
ENDBRANCH  15  16
ENDBRANCH   1  15
BRANCH  13  30
HETATM   30  C   UNL     1       7.270  33.227  64.091  1.00  0.00     0.140 C 
BRANCH  30  31
HETATM   31  C   UNL     1       6.338  34.264  64.665  1.00  0.00     0.220 C 
HETATM   32  N   UNL     1       6.023  35.273  63.784  1.00  0.00    -0.356 N 
HETATM   33  H   UNL     1       6.422  35.240  62.856  1.00  0.00     0.162 HD
HETATM   34  O   UNL     1       5.936  34.209  65.822  1.00  0.00    -0.274 OA
BRANCH  32  35
HETATM   35  C   UNL     1       5.389  36.511  64.220  1.00  0.00     0.084 C 
HETATM   36  C   UNL     1       5.917  37.704  63.407  1.00  0.00     0.025 C 
HETATM   37  C   UNL     1       5.458  37.655  61.950  1.00  0.00     0.002 C 
HETATM   38  C   UNL     1       3.939  37.565  61.844  1.00  0.00     0.000 C 
HETATM   39  C   UNL     1       3.377  36.397  62.650  1.00  0.00     0.002 C 
HETATM   40  C   UNL     1       3.862  36.412  64.102  1.00  0.00     0.025 C 
ENDBRANCH  32  35
ENDBRANCH  30  31
ENDBRANCH  13  30
TORSDOF 8
ENDMDL
MODEL 8
REMARK VINA RESULT:     -10.0      1.849      9.044
REMARK  8 active torsions:
REMARK  status: ('A' for Active; 'I' for Inactive)
REMARK    1  A    between atoms: C_2  and  C_3 
REMARK    2  A    between atoms: C_6  and  N_7 
REMARK       I    between atoms: N_7  and  C_8 
REMARK    3  A    between atoms: C_8  and  C_9 
REMARK    4  A    between atoms: C_9  and  S_10 
REMARK    5  A    between atoms: S_10  and  C_11 
REMARK    6  A    between atoms: C_23  and  C_24 
REMARK    7  A    between atoms: C_24  and  C_25 
REMARK       I    between atoms: C_25  and  N_26 
REMARK    8  A    between atoms: N_26  and  C_27 
ROOT
HETATM    1  C   UNL     1       7.083  29.202  56.546  1.00  0.00     0.178 A 
HETATM    2  N   UNL     1       6.681  28.621  55.353  1.00  0.00    -0.241 N 
HETATM    3  C   UNL     1       5.504  28.956  54.769  1.00  0.00     0.147 A 
HETATM    4  N   UNL     1       5.143  28.290  53.716  1.00  0.00    -0.256 NA
HETATM    5  C   UNL     1       4.723  30.034  55.376  1.00  0.00     0.039 A 
HETATM    6  C   UNL     1       5.234  30.598  56.549  1.00  0.00     0.073 A 
HETATM    7  C   UNL     1       3.525  30.480  54.809  1.00  0.00     0.018 A 
HETATM    8  C   UNL     1       2.819  31.508  55.432  1.00  0.00     0.001 A 
HETATM    9  C   UNL     1       3.306  32.072  56.610  1.00  0.00     0.002 A 
HETATM   10  C   UNL     1       4.507  31.617  57.167  1.00  0.00     0.032 A 
HETATM   11  C   UNL     1       7.271  27.657  54.567  1.00  0.00     0.257 A 
HETATM   12  O   UNL     1       8.383  27.165  54.661  1.00  0.00    -0.270 OA
HETATM   13  C   UNL     1       6.266  27.337  53.476  1.00  0.00     0.211 A 
HETATM   14  N   UNL     1       6.433  30.155  57.138  1.00  0.00    -0.223 NA
ENDROOT
BRANCH   1  15
HETATM   15  S   UNL     1       8.497  28.604  57.372  1.00  0.00    -0.082 SA
BRANCH  15  16
HETATM   16  C   UNL     1       9.528  30.090  57.331  1.00  0.00     0.185 C 
BRANCH  16  17
HETATM   17  C   UNL     1       9.380  31.000  58.544  1.00  0.00     0.231 C 
HETATM   18  N   UNL     1       8.552  30.528  59.543  1.00  0.00    -0.327 N 
HETATM   19  H   UNL     1       8.247  29.560  59.469  1.00  0.00     0.169 HD
HETATM   20  O   UNL     1       9.907  32.111  58.522  1.00  0.00    -0.272 OA
BRANCH  18  21
HETATM   21  C   UNL     1       8.059  31.230  60.662  1.00  0.00     0.034 A 
HETATM   22  C   UNL     1       8.678  31.254  61.909  1.00  0.00     0.030 A 
HETATM   23  C   UNL     1       8.157  32.037  62.949  1.00  0.00     0.010 A 
HETATM   24  C   UNL     1       7.016  32.824  62.761  1.00  0.00    -0.055 A 
HETATM   25  C   UNL     1       6.382  32.771  61.510  1.00  0.00     0.010 A 
HETATM   26  C   UNL     1       6.894  31.978  60.480  1.00  0.00     0.030 A 
BRANCH  24  27
HETATM   27  C   UNL     1       6.438  33.728  63.839  1.00  0.00     0.010 C 
HETATM   28  C   UNL     1       5.994  35.112  63.352  1.00  0.00     0.015 C 
HETATM   29  C   UNL     1       7.422  33.878  65.003  1.00  0.00     0.015 C 
ENDBRANCH  24  27
ENDBRANCH  18  21
ENDBRANCH  16  17
ENDBRANCH  15  16
ENDBRANCH   1  15
BRANCH  13  30
HETATM   30  C   UNL     1       5.801  25.905  53.638  1.00  0.00     0.140 C 
BRANCH  30  31
HETATM   31  C   UNL     1       6.865  24.930  53.202  1.00  0.00     0.220 C 
HETATM   32  N   UNL     1       7.333  24.131  54.220  1.00  0.00    -0.356 N 
HETATM   33  H   UNL     1       6.939  24.252  55.143  1.00  0.00     0.162 HD
HETATM   34  O   UNL     1       7.281  24.893  52.050  1.00  0.00    -0.274 OA
BRANCH  32  35
HETATM   35  C   UNL     1       8.550  23.340  54.086  1.00  0.00     0.084 C 
HETATM   36  C   UNL     1       9.160  23.049  55.466  1.00  0.00     0.025 C 
HETATM   37  C   UNL     1       8.296  22.091  56.287  1.00  0.00     0.002 C 
HETATM   38  C   UNL     1       8.030  20.792  55.533  1.00  0.00     0.000 C 
HETATM   39  C   UNL     1       7.435  21.043  54.151  1.00  0.00     0.002 C 
HETATM   40  C   UNL     1       8.269  22.032  53.334  1.00  0.00     0.025 C 
ENDBRANCH  32  35
ENDBRANCH  30  31
ENDBRANCH  13  30
TORSDOF 8
ENDMDL
MODEL 9
REMARK VINA RESULT:     -10.0      3.167     10.826
REMARK  8 active torsions:
REMARK  status: ('A' for Active; 'I' for Inactive)
REMARK    1  A    between atoms: C_2  and  C_3 
REMARK    2  A    between atoms: C_6  and  N_7 
REMARK       I    between atoms: N_7  and  C_8 
REMARK    3  A    between atoms: C_8  and  C_9 
REMARK    4  A    between atoms: C_9  and  S_10 
REMARK    5  A    between atoms: S_10  and  C_11 
REMARK    6  A    between atoms: C_23  and  C_24 
REMARK    7  A    between atoms: C_24  and  C_25 
REMARK       I    between atoms: C_25  and  N_26 
REMARK    8  A    between atoms: N_26  and  C_27 
ROOT
HETATM    1  C   UNL     1       6.967  28.036  56.477  1.00  0.00     0.178 A 
HETATM    2  N   UNL     1       6.158  27.681  55.408  1.00  0.00    -0.241 N 
HETATM    3  C   UNL     1       6.165  26.420  54.911  1.00  0.00     0.147 A 
HETATM    4  N   UNL     1       5.467  26.192  53.841  1.00  0.00    -0.256 NA
HETATM    5  C   UNL     1       6.967  25.415  55.607  1.00  0.00     0.039 A 
HETATM    6  C   UNL     1       7.709  25.854  56.708  1.00  0.00     0.073 A 
HETATM    7  C   UNL     1       6.988  24.079  55.194  1.00  0.00     0.018 A 
HETATM    8  C   UNL     1       7.774  23.164  55.892  1.00  0.00     0.001 A 
HETATM    9  C   UNL     1       8.532  23.587  56.983  1.00  0.00     0.002 A 
HETATM   10  C   UNL     1       8.501  24.927  57.387  1.00  0.00     0.032 A 
HETATM   11  C   UNL     1       5.277  28.419  54.651  1.00  0.00     0.257 A 
HETATM   12  O   UNL     1       4.884  29.561  54.824  1.00  0.00    -0.270 OA
HETATM   13  C   UNL     1       4.817  27.500  53.535  1.00  0.00     0.211 A 
HETATM   14  N   UNL     1       7.706  27.197  57.132  1.00  0.00    -0.223 NA
ENDROOT
BRANCH   1  15
HETATM   15  S   UNL     1       7.086  29.707  56.961  1.00  0.00    -0.082 SA
BRANCH  15  16
HETATM   16  C   UNL     1       8.378  29.571  58.219  1.00  0.00     0.185 C 
BRANCH  16  17
HETATM   17  C   UNL     1       8.474  30.763  59.165  1.00  0.00     0.231 C 
HETATM   18  N   UNL     1       7.775  30.637  60.349  1.00  0.00    -0.327 N 
HETATM   19  H   UNL     1       7.400  29.717  60.567  1.00  0.00     0.169 HD
HETATM   20  O   UNL     1       9.064  31.774  58.789  1.00  0.00    -0.272 OA
BRANCH  18  21
HETATM   21  C   UNL     1       7.502  31.639  61.303  1.00  0.00     0.034 A 
HETATM   22  C   UNL     1       6.523  32.618  61.156  1.00  0.00     0.030 A 
HETATM   23  C   UNL     1       6.271  33.535  62.187  1.00  0.00     0.010 A 
HETATM   24  C   UNL     1       6.982  33.484  63.391  1.00  0.00    -0.055 A 
HETATM   25  C   UNL     1       7.987  32.513  63.518  1.00  0.00     0.010 A 
HETATM   26  C   UNL     1       8.247  31.610  62.484  1.00  0.00     0.030 A 
BRANCH  24  27
HETATM   27  C   UNL     1       6.716  34.422  64.559  1.00  0.00     0.010 C 
HETATM   28  C   UNL     1       6.924  33.803  65.945  1.00  0.00     0.015 C 
HETATM   29  C   UNL     1       5.308  35.018  64.462  1.00  0.00     0.015 C 
ENDBRANCH  24  27
ENDBRANCH  18  21
ENDBRANCH  16  17
ENDBRANCH  15  16
ENDBRANCH   1  15
BRANCH  13  30
HETATM   30  C   UNL     1       5.305  28.047  52.210  1.00  0.00     0.140 C 
BRANCH  30  31
HETATM   31  C   UNL     1       4.230  28.845  51.518  1.00  0.00     0.220 C 
HETATM   32  N   UNL     1       3.559  28.142  50.543  1.00  0.00    -0.356 N 
HETATM   33  H   UNL     1       3.826  27.181  50.377  1.00  0.00     0.162 HD
HETATM   34  O   UNL     1       4.012  30.020  51.792  1.00  0.00    -0.274 OA
BRANCH  32  35
HETATM   35  C   UNL     1       2.701  28.799  49.566  1.00  0.00     0.084 C 
HETATM   36  C   UNL     1       3.533  29.338  48.392  1.00  0.00     0.025 C 
HETATM   37  C   UNL     1       4.117  28.214  47.536  1.00  0.00     0.002 C 
HETATM   38  C   UNL     1       3.028  27.271  47.034  1.00  0.00     0.000 C 
HETATM   39  C   UNL     1       2.173  26.725  48.173  1.00  0.00     0.002 C 
HETATM   40  C   UNL     1       1.615  27.839  49.061  1.00  0.00     0.025 C 
ENDBRANCH  32  35
ENDBRANCH  30  31
ENDBRANCH  13  30
TORSDOF 8
ENDMDL
MODEL 10
REMARK VINA RESULT:     -10.0      3.093     10.109
REMARK  8 active torsions:
REMARK  status: ('A' for Active; 'I' for Inactive)
REMARK    1  A    between atoms: C_2  and  C_3 
REMARK    2  A    between atoms: C_6  and  N_7 
REMARK       I    between atoms: N_7  and  C_8 
REMARK    3  A    between atoms: C_8  and  C_9 
REMARK    4  A    between atoms: C_9  and  S_10 
REMARK    5  A    between atoms: S_10  and  C_11 
REMARK    6  A    between atoms: C_23  and  C_24 
REMARK    7  A    between atoms: C_24  and  C_25 
REMARK       I    between atoms: C_25  and  N_26 
REMARK    8  A    between atoms: N_26  and  C_27 
ROOT
HETATM    1  C   UNL     1       6.375  30.746  57.602  1.00  0.00     0.178 A 
HETATM    2  N   UNL     1       6.940  29.574  57.123  1.00  0.00    -0.241 N 
HETATM    3  C   UNL     1       6.446  28.955  56.022  1.00  0.00     0.147 A 
HETATM    4  N   UNL     1       6.954  27.806  55.700  1.00  0.00    -0.256 NA
HETATM    5  C   UNL     1       5.370  29.620  55.289  1.00  0.00     0.039 A 
HETATM    6  C   UNL     1       4.900  30.826  55.818  1.00  0.00     0.073 A 
HETATM    7  C   UNL     1       4.841  29.079  54.113  1.00  0.00     0.018 A 
HETATM    8  C   UNL     1       3.813  29.753  53.456  1.00  0.00     0.001 A 
HETATM    9  C   UNL     1       3.321  30.950  53.977  1.00  0.00     0.002 A 
HETATM   10  C   UNL     1       3.861  31.481  55.154  1.00  0.00     0.032 A 
HETATM   11  C   UNL     1       7.988  28.813  57.589  1.00  0.00     0.257 A 
HETATM   12  O   UNL     1       8.780  29.063  58.483  1.00  0.00    -0.270 OA
HETATM   13  C   UNL     1       8.021  27.572  56.718  1.00  0.00     0.211 A 
HETATM   14  N   UNL     1       5.416  31.381  57.004  1.00  0.00    -0.223 NA
ENDROOT
BRANCH   1  15
HETATM   15  S   UNL     1       6.900  31.405  59.129  1.00  0.00    -0.082 SA
BRANCH  15  16
HETATM   16  C   UNL     1       5.465  32.430  59.531  1.00  0.00     0.185 C 
BRANCH  16  17
HETATM   17  C   UNL     1       5.591  33.220  60.828  1.00  0.00     0.231 C 
HETATM   18  N   UNL     1       6.044  32.504  61.917  1.00  0.00    -0.327 N 
HETATM   19  H   UNL     1       6.411  31.573  61.735  1.00  0.00     0.169 HD
HETATM   20  O   UNL     1       5.198  34.386  60.854  1.00  0.00    -0.272 OA
BRANCH  18  21
HETATM   21  C   UNL     1       6.055  32.901  63.270  1.00  0.00     0.034 A 
HETATM   22  C   UNL     1       7.210  33.103  64.021  1.00  0.00     0.030 A 
HETATM   23  C   UNL     1       7.130  33.568  65.341  1.00  0.00     0.010 A 
HETATM   24  C   UNL     1       5.895  33.855  65.934  1.00  0.00    -0.055 A 
HETATM   25  C   UNL     1       4.736  33.621  65.180  1.00  0.00     0.010 A 
HETATM   26  C   UNL     1       4.817  33.143  63.869  1.00  0.00     0.030 A 
BRANCH  24  27
HETATM   27  C   UNL     1       5.755  34.407  67.345  1.00  0.00     0.010 C 
HETATM   28  C   UNL     1       4.993  35.733  67.446  1.00  0.00     0.015 C 
HETATM   29  C   UNL     1       7.128  34.545  68.010  1.00  0.00     0.015 C 
ENDBRANCH  24  27
ENDBRANCH  18  21
ENDBRANCH  16  17
ENDBRANCH  15  16
ENDBRANCH   1  15
BRANCH  13  30
HETATM   30  C   UNL     1       7.697  26.362  57.569  1.00  0.00     0.140 C 
BRANCH  30  31
HETATM   31  C   UNL     1       6.753  25.427  56.856  1.00  0.00     0.220 C 
HETATM   32  N   UNL     1       7.290  24.857  55.724  1.00  0.00    -0.356 N 
HETATM   33  H   UNL     1       8.239  25.097  55.471  1.00  0.00     0.162 HD
HETATM   34  O   UNL     1       5.608  25.233  57.248  1.00  0.00    -0.274 OA
BRANCH  32  35
HETATM   35  C   UNL     1       6.466  24.167  54.739  1.00  0.00     0.084 C 
HETATM   36  C   UNL     1       5.842  25.173  53.758  1.00  0.00     0.025 C 
HETATM   37  C   UNL     1       6.889  25.811  52.845  1.00  0.00     0.002 C 
HETATM   38  C   UNL     1       7.693  24.756  52.093  1.00  0.00     0.000 C 
HETATM   39  C   UNL     1       8.319  23.732  53.036  1.00  0.00     0.002 C 
HETATM   40  C   UNL     1       7.287  23.115  53.983  1.00  0.00     0.025 C 
ENDBRANCH  32  35
ENDBRANCH  30  31
ENDBRANCH  13  30
TORSDOF 8
ENDMDL
