MODEL 1
REMARK VINA RESULT:      -8.2      0.000      0.000
REMARK  10 active torsions:
REMARK  status: ('A' for Active; 'I' for Inactive)
REMARK    1  A    between atoms: C_2  and  C_3 
REMARK    2  A    between atoms: C_3  and  C_4 
REMARK    3  A    between atoms: C_4  and  N_5 
REMARK    4  A    between atoms: C_4  and  C_22 
REMARK    5  A    between atoms: N_5  and  C_6 
REMARK    6  A    between atoms: C_8  and  C_9 
REMARK    7  A    between atoms: C_16  and  C_17 
REMARK       I    between atoms: C_22  and  N_23 
REMARK    8  A    between atoms: N_23  and  C_24 
REMARK    9  A    between atoms: C_24  and  C_25 
REMARK   10  A    between atoms: C_25  and  O_26 
ROOT
HETATM    1  C   UNL     1       6.358  25.651  55.924  1.00  0.00     0.108 A 
HETATM    2  N   UNL     1       6.927  24.444  56.006  1.00  0.00    -0.215 NA
HETATM    3  C   UNL     1       6.996  23.692  54.888  1.00  0.00     0.180 A 
HETATM    4  N   UNL     1       6.501  24.081  53.697  1.00  0.00    -0.222 NA
HETATM    5  C   UNL     1       5.901  25.292  53.636  1.00  0.00     0.146 A 
HETATM    6  C   UNL     1       5.823  26.119  54.744  1.00  0.00     0.080 A 
ENDROOT
BRANCH   1   7
HETATM    7  N   UNL     1       6.237  26.458  57.072  1.00  0.00    -0.264 NA
HETATM    8  H   UNL     1       5.367  26.220  57.539  1.00  0.00     0.130 HD
BRANCH   7   9
HETATM    9  C   UNL     1       6.355  27.922  56.823  1.00  0.00     0.154 C 
BRANCH   9  10
HETATM   10  C   UNL     1       5.076  28.637  57.301  1.00  0.00     0.033 C 
BRANCH  10  11
HETATM   11  C   UNL     1       4.152  29.159  56.180  1.00  0.00    -0.021 C 
HETATM   12  C   UNL     1       4.926  29.650  54.955  1.00  0.00     0.009 C 
HETATM   13  C   UNL     1       3.277  30.292  56.723  1.00  0.00     0.009 C 
ENDBRANCH  10  11
ENDBRANCH   9  10
BRANCH   9  14
HETATM   14  C   UNL     1       7.551  28.514  57.615  1.00  0.00     0.235 C 
HETATM   15  N   UNL     1       7.249  29.687  58.280  1.00  0.00    -0.358 N 
HETATM   16  H   UNL     1       6.255  29.794  58.470  1.00  0.00     0.162 HD
HETATM   17  O   UNL     1       8.678  28.026  57.581  1.00  0.00    -0.272 OA
BRANCH  15  18
HETATM   18  C   UNL     1       8.150  30.234  59.274  1.00  0.00     0.148 C 
BRANCH  18  19
HETATM   19  C   UNL     1       8.001  31.749  59.381  1.00  0.00     0.186 C 
BRANCH  19  20
HETATM   20  O   UNL     1       9.285  32.355  59.181  1.00  0.00    -0.394 OA
HETATM   21  C   UNL     1      10.154  31.513  58.437  1.00  0.00     0.201 C 
ENDBRANCH  19  20
ENDBRANCH  18  19
ENDBRANCH  15  18
ENDBRANCH   9  14
ENDBRANCH   7   9
ENDBRANCH   1   7
BRANCH   3  22
HETATM   22  C   UNL     1       7.677  22.375  54.986  1.00  0.00     0.104 A 
HETATM   23  N   UNL     1       8.054  21.954  56.229  1.00  0.00    -0.257 NA
HETATM   24  C   UNL     1       8.656  20.751  56.340  1.00  0.00     0.117 A 
HETATM   25  C   UNL     1       8.912  19.915  55.268  1.00  0.00     0.019 A 
HETATM   26  C   UNL     1       8.530  20.341  54.003  1.00  0.00     0.004 A 
HETATM   27  C   UNL     1       7.910  21.580  53.859  1.00  0.00     0.036 A 
ENDBRANCH   3  22
BRANCH   5  28
HETATM   28  C   UNL     1       5.300  25.770  52.328  1.00  0.00     0.434 C 
HETATM   29  F   UNL     1       6.204  26.205  51.406  1.00  0.00    -0.165 F 
HETATM   30  F   UNL     1       4.573  24.797  51.703  1.00  0.00    -0.165 F 
HETATM   31  F   UNL     1       4.427  26.806  52.511  1.00  0.00    -0.165 F 
ENDBRANCH   5  28
TORSDOF 10
ENDMDL
MODEL 2
REMARK VINA RESULT:      -8.0      3.920      8.062
REMARK  10 active torsions:
REMARK  status: ('A' for Active; 'I' for Inactive)
REMARK    1  A    between atoms: C_2  and  C_3 
REMARK    2  A    between atoms: C_3  and  C_4 
REMARK    3  A    between atoms: C_4  and  N_5 
REMARK    4  A    between atoms: C_4  and  C_22 
REMARK    5  A    between atoms: N_5  and  C_6 
REMARK    6  A    between atoms: C_8  and  C_9 
REMARK    7  A    between atoms: C_16  and  C_17 
REMARK       I    between atoms: C_22  and  N_23 
REMARK    8  A    between atoms: N_23  and  C_24 
REMARK    9  A    between atoms: C_24  and  C_25 
REMARK   10  A    between atoms: C_25  and  O_26 
ROOT
HETATM    1  C   UNL     1       6.139  26.535  55.589  1.00  0.00     0.108 A 
HETATM    2  N   UNL     1       6.235  27.696  56.245  1.00  0.00    -0.215 NA
HETATM    3  C   UNL     1       7.143  27.796  57.239  1.00  0.00     0.180 A 
HETATM    4  N   UNL     1       7.943  26.782  57.621  1.00  0.00    -0.222 NA
HETATM    5  C   UNL     1       7.814  25.604  56.968  1.00  0.00     0.146 A 
HETATM    6  C   UNL     1       6.918  25.449  55.924  1.00  0.00     0.080 A 
ENDROOT
BRANCH   1   7
HETATM    7  N   UNL     1       5.186  26.375  54.565  1.00  0.00    -0.264 NA
HETATM    8  H   UNL     1       4.572  25.606  54.818  1.00  0.00     0.130 HD
BRANCH   7   9
HETATM    9  C   UNL     1       5.755  26.208  53.198  1.00  0.00     0.154 C 
BRANCH   9  10
HETATM   10  C   UNL     1       5.664  24.729  52.773  1.00  0.00     0.033 C 
BRANCH  10  11
HETATM   11  C   UNL     1       7.010  24.056  52.429  1.00  0.00    -0.021 C 
HETATM   12  C   UNL     1       7.396  22.960  53.423  1.00  0.00     0.009 C 
HETATM   13  C   UNL     1       8.115  25.115  52.377  1.00  0.00     0.009 C 
ENDBRANCH  10  11
ENDBRANCH   9  10
BRANCH   9  14
HETATM   14  C   UNL     1       4.954  27.046  52.168  1.00  0.00     0.235 C 
HETATM   15  N   UNL     1       5.410  26.913  50.871  1.00  0.00    -0.358 N 
HETATM   16  H   UNL     1       5.923  26.047  50.714  1.00  0.00     0.162 HD
HETATM   17  O   UNL     1       4.054  27.817  52.494  1.00  0.00    -0.272 OA
BRANCH  15  18
HETATM   18  C   UNL     1       4.631  27.402  49.752  1.00  0.00     0.148 C 
BRANCH  18  19
HETATM   19  C   UNL     1       4.228  26.264  48.818  1.00  0.00     0.186 C 
BRANCH  19  20
HETATM   20  O   UNL     1       4.510  26.652  47.467  1.00  0.00    -0.394 OA
HETATM   21  C   UNL     1       5.296  27.835  47.414  1.00  0.00     0.201 C 
ENDBRANCH  19  20
ENDBRANCH  18  19
ENDBRANCH  15  18
ENDBRANCH   9  14
ENDBRANCH   7   9
ENDBRANCH   1   7
BRANCH   3  22
HETATM   22  C   UNL     1       7.270  29.108  57.923  1.00  0.00     0.104 A 
HETATM   23  N   UNL     1       8.307  29.264  58.797  1.00  0.00    -0.257 NA
HETATM   24  C   UNL     1       8.449  30.456  59.413  1.00  0.00     0.117 A 
HETATM   25  C   UNL     1       7.608  31.535  59.209  1.00  0.00     0.019 A 
HETATM   26  C   UNL     1       6.552  31.380  58.321  1.00  0.00     0.004 A 
HETATM   27  C   UNL     1       6.379  30.158  57.674  1.00  0.00     0.036 A 
ENDBRANCH   3  22
BRANCH   5  28
HETATM   28  C   UNL     1       8.668  24.418  57.376  1.00  0.00     0.434 C 
HETATM   29  F   UNL     1       8.069  23.204  57.231  1.00  0.00    -0.165 F 
HETATM   30  F   UNL     1       9.831  24.346  56.662  1.00  0.00    -0.165 F 
HETATM   31  F   UNL     1       9.057  24.489  58.684  1.00  0.00    -0.165 F 
ENDBRANCH   5  28
TORSDOF 10
ENDMDL
MODEL 3
REMARK VINA RESULT:      -8.0      1.921      2.778
REMARK  10 active torsions:
REMARK  status: ('A' for Active; 'I' for Inactive)
REMARK    1  A    between atoms: C_2  and  C_3 
REMARK    2  A    between atoms: C_3  and  C_4 
REMARK    3  A    between atoms: C_4  and  N_5 
REMARK    4  A    between atoms: C_4  and  C_22 
REMARK    5  A    between atoms: N_5  and  C_6 
REMARK    6  A    between atoms: C_8  and  C_9 
REMARK    7  A    between atoms: C_16  and  C_17 
REMARK       I    between atoms: C_22  and  N_23 
REMARK    8  A    between atoms: N_23  and  C_24 
REMARK    9  A    between atoms: C_24  and  C_25 
REMARK   10  A    between atoms: C_25  and  O_26 
ROOT
HETATM    1  C   UNL     1       7.400  26.732  53.987  1.00  0.00     0.108 A 
HETATM    2  N   UNL     1       7.655  25.453  54.278  1.00  0.00    -0.215 NA
HETATM    3  C   UNL     1       7.134  24.499  53.478  1.00  0.00     0.180 A 
HETATM    4  N   UNL     1       6.352  24.764  52.415  1.00  0.00    -0.222 NA
HETATM    5  C   UNL     1       6.077  26.062  52.149  1.00  0.00     0.146 A 
HETATM    6  C   UNL     1       6.604  27.086  52.919  1.00  0.00     0.080 A 
ENDROOT
BRANCH   1   7
HETATM    7  N   UNL     1       7.898  27.761  54.810  1.00  0.00    -0.264 NA
HETATM    8  H   UNL     1       8.913  27.728  54.781  1.00  0.00     0.130 HD
BRANCH   7   9
HETATM    9  C   UNL     1       7.379  27.754  56.206  1.00  0.00     0.154 C 
BRANCH   9  10
HETATM   10  C   UNL     1       8.396  27.066  57.137  1.00  0.00     0.033 C 
BRANCH  10  11
HETATM   11  C   UNL     1       7.893  25.784  57.834  1.00  0.00    -0.021 C 
HETATM   12  C   UNL     1       8.816  24.585  57.605  1.00  0.00     0.009 C 
HETATM   13  C   UNL     1       6.483  25.449  57.337  1.00  0.00     0.009 C 
ENDBRANCH  10  11
ENDBRANCH   9  10
BRANCH   9  14
HETATM   14  C   UNL     1       7.175  29.204  56.718  1.00  0.00     0.235 C 
HETATM   15  N   UNL     1       7.761  29.446  57.945  1.00  0.00    -0.358 N 
HETATM   16  H   UNL     1       8.524  28.806  58.157  1.00  0.00     0.162 HD
HETATM   17  O   UNL     1       6.486  30.029  56.122  1.00  0.00    -0.272 OA
BRANCH  15  18
HETATM   18  C   UNL     1       7.902  30.796  58.451  1.00  0.00     0.148 C 
BRANCH  18  19
HETATM   19  C   UNL     1       9.368  31.220  58.491  1.00  0.00     0.186 C 
BRANCH  19  20
HETATM   20  O   UNL     1       9.479  32.427  59.259  1.00  0.00    -0.394 OA
HETATM   21  C   UNL     1       8.514  32.477  60.301  1.00  0.00     0.201 C 
ENDBRANCH  19  20
ENDBRANCH  18  19
ENDBRANCH  15  18
ENDBRANCH   9  14
ENDBRANCH   7   9
ENDBRANCH   1   7
BRANCH   3  22
HETATM   22  C   UNL     1       7.469  23.085  53.788  1.00  0.00     0.104 A 
HETATM   23  N   UNL     1       7.822  22.279  52.744  1.00  0.00    -0.257 NA
HETATM   24  C   UNL     1       8.148  20.996  53.010  1.00  0.00     0.117 A 
HETATM   25  C   UNL     1       8.151  20.449  54.280  1.00  0.00     0.019 A 
HETATM   26  C   UNL     1       7.792  21.265  55.343  1.00  0.00     0.004 A 
HETATM   27  C   UNL     1       7.446  22.593  55.097  1.00  0.00     0.036 A 
ENDBRANCH   3  22
BRANCH   5  28
HETATM   28  C   UNL     1       5.177  26.420  50.982  1.00  0.00     0.434 C 
HETATM   29  F   UNL     1       5.817  26.970  49.913  1.00  0.00    -0.165 F 
HETATM   30  F   UNL     1       4.505  25.336  50.493  1.00  0.00    -0.165 F 
HETATM   31  F   UNL     1       4.205  27.313  51.336  1.00  0.00    -0.165 F 
ENDBRANCH   5  28
TORSDOF 10
ENDMDL
MODEL 4
REMARK VINA RESULT:      -7.7      4.021      6.435
REMARK  10 active torsions:
REMARK  status: ('A' for Active; 'I' for Inactive)
REMARK    1  A    between atoms: C_2  and  C_3 
REMARK    2  A    between atoms: C_3  and  C_4 
REMARK    3  A    between atoms: C_4  and  N_5 
REMARK    4  A    between atoms: C_4  and  C_22 
REMARK    5  A    between atoms: N_5  and  C_6 
REMARK    6  A    between atoms: C_8  and  C_9 
REMARK    7  A    between atoms: C_16  and  C_17 
REMARK       I    between atoms: C_22  and  N_23 
REMARK    8  A    between atoms: N_23  and  C_24 
REMARK    9  A    between atoms: C_24  and  C_25 
REMARK   10  A    between atoms: C_25  and  O_26 
ROOT
HETATM    1  C   UNL     1       6.723  26.576  53.757  1.00  0.00     0.108 A 
HETATM    2  N   UNL     1       6.986  25.281  53.554  1.00  0.00    -0.215 NA
HETATM    3  C   UNL     1       7.421  24.546  54.600  1.00  0.00     0.180 A 
HETATM    4  N   UNL     1       7.627  25.051  55.831  1.00  0.00    -0.222 NA
HETATM    5  C   UNL     1       7.385  26.369  56.014  1.00  0.00     0.146 A 
HETATM    6  C   UNL     1       6.913  27.169  54.986  1.00  0.00     0.080 A 
ENDROOT
BRANCH   1   7
HETATM    7  N   UNL     1       6.295  27.389  52.689  1.00  0.00    -0.264 NA
HETATM    8  H   UNL     1       6.326  28.358  52.994  1.00  0.00     0.130 HD
BRANCH   7   9
HETATM    9  C   UNL     1       4.968  27.026  52.118  1.00  0.00     0.154 C 
BRANCH   9  10
HETATM   10  C   UNL     1       3.879  27.947  52.701  1.00  0.00     0.033 C 
BRANCH  10  11
HETATM   11  C   UNL     1       4.357  29.355  53.115  1.00  0.00    -0.021 C 
HETATM   12  C   UNL     1       4.074  29.669  54.586  1.00  0.00     0.009 C 
HETATM   13  C   UNL     1       3.685  30.407  52.227  1.00  0.00     0.009 C 
ENDBRANCH  10  11
ENDBRANCH   9  10
BRANCH   9  14
HETATM   14  C   UNL     1       4.969  27.212  50.577  1.00  0.00     0.235 C 
HETATM   15  N   UNL     1       4.339  26.189  49.895  1.00  0.00    -0.358 N 
HETATM   16  H   UNL     1       3.665  25.683  50.467  1.00  0.00     0.162 HD
HETATM   17  O   UNL     1       5.550  28.141  50.020  1.00  0.00    -0.272 OA
BRANCH  15  18
HETATM   18  C   UNL     1       4.011  26.321  48.491  1.00  0.00     0.148 C 
BRANCH  18  19
HETATM   19  C   UNL     1       2.548  26.715  48.299  1.00  0.00     0.186 C 
BRANCH  19  20
HETATM   20  O   UNL     1       2.458  28.145  48.248  1.00  0.00    -0.394 OA
HETATM   21  C   UNL     1       1.755  28.668  49.368  1.00  0.00     0.201 C 
ENDBRANCH  19  20
ENDBRANCH  18  19
ENDBRANCH  15  18
ENDBRANCH   9  14
ENDBRANCH   7   9
ENDBRANCH   1   7
BRANCH   3  22
HETATM   22  C   UNL     1       7.660  23.098  54.368  1.00  0.00     0.104 A 
HETATM   23  N   UNL     1       7.642  22.276  55.457  1.00  0.00    -0.257 NA
HETATM   24  C   UNL     1       7.838  20.954  55.263  1.00  0.00     0.117 A 
HETATM   25  C   UNL     1       8.053  20.381  54.023  1.00  0.00     0.019 A 
HETATM   26  C   UNL     1       8.073  21.214  52.913  1.00  0.00     0.004 A 
HETATM   27  C   UNL     1       7.877  22.584  53.085  1.00  0.00     0.036 A 
ENDBRANCH   3  22
BRANCH   5  28
HETATM   28  C   UNL     1       7.627  26.999  57.373  1.00  0.00     0.434 C 
HETATM   29  F   UNL     1       8.810  27.663  57.493  1.00  0.00    -0.165 F 
HETATM   30  F   UNL     1       6.659  27.903  57.706  1.00  0.00    -0.165 F 
HETATM   31  F   UNL     1       7.614  26.074  58.378  1.00  0.00    -0.165 F 
ENDBRANCH   5  28
TORSDOF 10
ENDMDL
MODEL 5
REMARK VINA RESULT:      -7.5      2.150      3.119
REMARK  10 active torsions:
REMARK  status: ('A' for Active; 'I' for Inactive)
REMARK    1  A    between atoms: C_2  and  C_3 
REMARK    2  A    between atoms: C_3  and  C_4 
REMARK    3  A    between atoms: C_4  and  N_5 
REMARK    4  A    between atoms: C_4  and  C_22 
REMARK    5  A    between atoms: N_5  and  C_6 
REMARK    6  A    between atoms: C_8  and  C_9 
REMARK    7  A    between atoms: C_16  and  C_17 
REMARK       I    between atoms: C_22  and  N_23 
REMARK    8  A    between atoms: N_23  and  C_24 
REMARK    9  A    between atoms: C_24  and  C_25 
REMARK   10  A    between atoms: C_25  and  O_26 
ROOT
HETATM    1  C   UNL     1       7.275  27.609  54.120  1.00  0.00     0.108 A 
HETATM    2  N   UNL     1       7.538  26.329  54.400  1.00  0.00    -0.215 NA
HETATM    3  C   UNL     1       7.040  25.379  53.579  1.00  0.00     0.180 A 
HETATM    4  N   UNL     1       6.275  25.650  52.505  1.00  0.00    -0.222 NA
HETATM    5  C   UNL     1       5.993  26.948  52.250  1.00  0.00     0.146 A 
HETATM    6  C   UNL     1       6.495  27.968  53.042  1.00  0.00     0.080 A 
ENDROOT
BRANCH   1   7
HETATM    7  N   UNL     1       7.749  28.632  54.964  1.00  0.00    -0.264 NA
HETATM    8  H   UNL     1       8.764  28.612  54.950  1.00  0.00     0.130 HD
BRANCH   7   9
HETATM    9  C   UNL     1       7.209  28.599  56.353  1.00  0.00     0.154 C 
BRANCH   9  10
HETATM   10  C   UNL     1       8.370  28.663  57.364  1.00  0.00     0.033 C 
BRANCH  10  11
HETATM   11  C   UNL     1       9.359  29.831  57.163  1.00  0.00    -0.021 C 
HETATM   12  C   UNL     1      10.728  29.368  56.660  1.00  0.00     0.009 C 
HETATM   13  C   UNL     1       9.526  30.594  58.480  1.00  0.00     0.009 C 
ENDBRANCH  10  11
ENDBRANCH   9  10
BRANCH   9  14
HETATM   14  C   UNL     1       6.290  29.822  56.609  1.00  0.00     0.235 C 
HETATM   15  N   UNL     1       5.972  30.006  57.941  1.00  0.00    -0.358 N 
HETATM   16  H   UNL     1       6.645  29.581  58.575  1.00  0.00     0.162 HD
HETATM   17  O   UNL     1       5.827  30.508  55.701  1.00  0.00    -0.272 OA
BRANCH  15  18
HETATM   18  C   UNL     1       5.353  31.233  58.396  1.00  0.00     0.148 C 
BRANCH  18  19
HETATM   19  C   UNL     1       6.332  32.079  59.207  1.00  0.00     0.186 C 
BRANCH  19  20
HETATM   20  O   UNL     1       5.588  32.918  60.101  1.00  0.00    -0.394 OA
HETATM   21  C   UNL     1       6.033  32.780  61.444  1.00  0.00     0.201 C 
ENDBRANCH  19  20
ENDBRANCH  18  19
ENDBRANCH  15  18
ENDBRANCH   9  14
ENDBRANCH   7   9
ENDBRANCH   1   7
BRANCH   3  22
HETATM   22  C   UNL     1       7.383  23.965  53.878  1.00  0.00     0.104 A 
HETATM   23  N   UNL     1       7.259  23.547  55.172  1.00  0.00    -0.257 NA
HETATM   24  C   UNL     1       7.548  22.260  55.458  1.00  0.00     0.117 A 
HETATM   25  C   UNL     1       7.960  21.335  54.516  1.00  0.00     0.019 A 
HETATM   26  C   UNL     1       8.089  21.756  53.200  1.00  0.00     0.004 A 
HETATM   27  C   UNL     1       7.801  23.081  52.877  1.00  0.00     0.036 A 
ENDBRANCH   3  22
BRANCH   5  28
HETATM   28  C   UNL     1       5.111  27.312  51.071  1.00  0.00     0.434 C 
HETATM   29  F   UNL     1       5.724  28.047  50.103  1.00  0.00    -0.165 F 
HETATM   30  F   UNL     1       4.610  26.210  50.437  1.00  0.00    -0.165 F 
HETATM   31  F   UNL     1       4.015  28.034  51.451  1.00  0.00    -0.165 F 
ENDBRANCH   5  28
TORSDOF 10
ENDMDL
MODEL 6
REMARK VINA RESULT:      -7.5      3.420      5.569
REMARK  10 active torsions:
REMARK  status: ('A' for Active; 'I' for Inactive)
REMARK    1  A    between atoms: C_2  and  C_3 
REMARK    2  A    between atoms: C_3  and  C_4 
REMARK    3  A    between atoms: C_4  and  N_5 
REMARK    4  A    between atoms: C_4  and  C_22 
REMARK    5  A    between atoms: N_5  and  C_6 
REMARK    6  A    between atoms: C_8  and  C_9 
REMARK    7  A    between atoms: C_16  and  C_17 
REMARK       I    between atoms: C_22  and  N_23 
REMARK    8  A    between atoms: N_23  and  C_24 
REMARK    9  A    between atoms: C_24  and  C_25 
REMARK   10  A    between atoms: C_25  and  O_26 
ROOT
HETATM    1  C   UNL     1       5.591  25.588  53.359  1.00  0.00     0.108 A 
HETATM    2  N   UNL     1       6.113  24.358  53.330  1.00  0.00    -0.215 NA
HETATM    3  C   UNL     1       7.045  24.037  54.252  1.00  0.00     0.180 A 
HETATM    4  N   UNL     1       7.495  24.897  55.186  1.00  0.00    -0.222 NA
HETATM    5  C   UNL     1       6.980  26.147  55.184  1.00  0.00     0.146 A 
HETATM    6  C   UNL     1       6.003  26.527  54.280  1.00  0.00     0.080 A 
ENDROOT
BRANCH   1   7
HETATM    7  N   UNL     1       4.637  25.977  52.399  1.00  0.00    -0.264 NA
HETATM    8  H   UNL     1       4.085  25.162  52.149  1.00  0.00     0.130 HD
BRANCH   7   9
HETATM    9  C   UNL     1       5.197  26.661  51.199  1.00  0.00     0.154 C 
BRANCH   9  10
HETATM   10  C   UNL     1       4.618  26.026  49.920  1.00  0.00     0.033 C 
BRANCH  10  11
HETATM   11  C   UNL     1       4.157  27.024  48.837  1.00  0.00    -0.021 C 
HETATM   12  C   UNL     1       2.723  26.768  48.368  1.00  0.00     0.009 C 
HETATM   13  C   UNL     1       5.108  26.957  47.638  1.00  0.00     0.009 C 
ENDBRANCH  10  11
ENDBRANCH   9  10
BRANCH   9  14
HETATM   14  C   UNL     1       4.809  28.163  51.198  1.00  0.00     0.235 C 
HETATM   15  N   UNL     1       3.591  28.421  51.799  1.00  0.00    -0.358 N 
HETATM   16  H   UNL     1       3.311  27.700  52.460  1.00  0.00     0.162 HD
HETATM   17  O   UNL     1       5.486  29.025  50.642  1.00  0.00    -0.272 OA
BRANCH  15  18
HETATM   18  C   UNL     1       3.193  29.775  52.126  1.00  0.00     0.148 C 
BRANCH  18  19
HETATM   19  C   UNL     1       3.633  30.154  53.538  1.00  0.00     0.186 C 
BRANCH  19  20
HETATM   20  O   UNL     1       3.630  28.976  54.355  1.00  0.00    -0.394 OA
HETATM   21  C   UNL     1       4.044  29.258  55.686  1.00  0.00     0.201 C 
ENDBRANCH  19  20
ENDBRANCH  18  19
ENDBRANCH  15  18
ENDBRANCH   9  14
ENDBRANCH   7   9
ENDBRANCH   1   7
BRANCH   3  22
HETATM   22  C   UNL     1       7.577  22.651  54.236  1.00  0.00     0.104 A 
HETATM   23  N   UNL     1       7.731  22.022  55.437  1.00  0.00    -0.257 NA
HETATM   24  C   UNL     1       8.195  20.754  55.441  1.00  0.00     0.117 A 
HETATM   25  C   UNL     1       8.522  20.050  54.296  1.00  0.00     0.019 A 
HETATM   26  C   UNL     1       8.368  20.687  53.072  1.00  0.00     0.004 A 
HETATM   27  C   UNL     1       7.894  21.997  53.040  1.00  0.00     0.036 A 
ENDBRANCH   3  22
BRANCH   5  28
HETATM   28  C   UNL     1       7.471  27.167  56.195  1.00  0.00     0.434 C 
HETATM   29  F   UNL     1       7.921  28.334  55.658  1.00  0.00    -0.165 F 
HETATM   30  F   UNL     1       6.501  27.520  57.090  1.00  0.00    -0.165 F 
HETATM   31  F   UNL     1       8.499  26.684  56.955  1.00  0.00    -0.165 F 
ENDBRANCH   5  28
TORSDOF 10
ENDMDL
MODEL 7
REMARK VINA RESULT:      -7.4      3.940      7.668
REMARK  10 active torsions:
REMARK  status: ('A' for Active; 'I' for Inactive)
REMARK    1  A    between atoms: C_2  and  C_3 
REMARK    2  A    between atoms: C_3  and  C_4 
REMARK    3  A    between atoms: C_4  and  N_5 
REMARK    4  A    between atoms: C_4  and  C_22 
REMARK    5  A    between atoms: N_5  and  C_6 
REMARK    6  A    between atoms: C_8  and  C_9 
REMARK    7  A    between atoms: C_16  and  C_17 
REMARK       I    between atoms: C_22  and  N_23 
REMARK    8  A    between atoms: N_23  and  C_24 
REMARK    9  A    between atoms: C_24  and  C_25 
REMARK   10  A    between atoms: C_25  and  O_26 
ROOT
HETATM    1  C   UNL     1       7.279  27.358  54.933  1.00  0.00     0.108 A 
HETATM    2  N   UNL     1       7.669  28.381  55.701  1.00  0.00    -0.215 NA
HETATM    3  C   UNL     1       8.327  28.106  56.847  1.00  0.00     0.180 A 
HETATM    4  N   UNL     1       8.593  26.855  57.271  1.00  0.00    -0.222 NA
HETATM    5  C   UNL     1       8.167  25.830  56.499  1.00  0.00     0.146 A 
HETATM    6  C   UNL     1       7.509  26.050  55.300  1.00  0.00     0.080 A 
ENDROOT
BRANCH   1   7
HETATM    7  N   UNL     1       6.563  27.596  53.744  1.00  0.00    -0.264 NA
HETATM    8  H   UNL     1       6.481  28.601  53.617  1.00  0.00     0.130 HD
BRANCH   7   9
HETATM    9  C   UNL     1       5.242  26.913  53.659  1.00  0.00     0.154 C 
BRANCH   9  10
HETATM   10  C   UNL     1       4.113  27.961  53.653  1.00  0.00     0.033 C 
BRANCH  10  11
HETATM   11  C   UNL     1       4.361  29.206  54.531  1.00  0.00    -0.021 C 
HETATM   12  C   UNL     1       4.019  28.971  56.003  1.00  0.00     0.009 C 
HETATM   13  C   UNL     1       3.541  30.384  53.995  1.00  0.00     0.009 C 
ENDBRANCH  10  11
ENDBRANCH   9  10
BRANCH   9  14
HETATM   14  C   UNL     1       5.136  26.094  52.346  1.00  0.00     0.235 C 
HETATM   15  N   UNL     1       4.605  26.809  51.289  1.00  0.00    -0.358 N 
HETATM   16  H   UNL     1       4.708  27.817  51.396  1.00  0.00     0.162 HD
HETATM   17  O   UNL     1       5.421  24.901  52.281  1.00  0.00    -0.272 OA
BRANCH  15  18
HETATM   18  C   UNL     1       4.676  26.301  49.935  1.00  0.00     0.148 C 
BRANCH  18  19
HETATM   19  C   UNL     1       3.983  27.244  48.954  1.00  0.00     0.186 C 
BRANCH  19  20
HETATM   20  O   UNL     1       2.849  26.572  48.390  1.00  0.00    -0.394 OA
HETATM   21  C   UNL     1       3.142  25.217  48.079  1.00  0.00     0.201 C 
ENDBRANCH  19  20
ENDBRANCH  18  19
ENDBRANCH  15  18
ENDBRANCH   9  14
ENDBRANCH   7   9
ENDBRANCH   1   7
BRANCH   3  22
HETATM   22  C   UNL     1       8.796  29.255  57.662  1.00  0.00     0.104 A 
HETATM   23  N   UNL     1       8.163  29.484  58.850  1.00  0.00    -0.257 NA
HETATM   24  C   UNL     1       8.589  30.513  59.613  1.00  0.00     0.117 A 
HETATM   25  C   UNL     1       9.634  31.350  59.265  1.00  0.00     0.019 A 
HETATM   26  C   UNL     1      10.279  31.121  58.058  1.00  0.00     0.004 A 
HETATM   27  C   UNL     1       9.857  30.068  57.248  1.00  0.00     0.036 A 
ENDBRANCH   3  22
BRANCH   5  28
HETATM   28  C   UNL     1       8.413  24.400  56.941  1.00  0.00     0.434 C 
HETATM   29  F   UNL     1       9.208  23.671  56.109  1.00  0.00    -0.165 F 
HETATM   30  F   UNL     1       9.003  24.330  58.171  1.00  0.00    -0.165 F 
HETATM   31  F   UNL     1       7.251  23.691  57.062  1.00  0.00    -0.165 F 
ENDBRANCH   5  28
TORSDOF 10
ENDMDL
MODEL 8
REMARK VINA RESULT:      -7.4      3.468      6.518
REMARK  10 active torsions:
REMARK  status: ('A' for Active; 'I' for Inactive)
REMARK    1  A    between atoms: C_2  and  C_3 
REMARK    2  A    between atoms: C_3  and  C_4 
REMARK    3  A    between atoms: C_4  and  N_5 
REMARK    4  A    between atoms: C_4  and  C_22 
REMARK    5  A    between atoms: N_5  and  C_6 
REMARK    6  A    between atoms: C_8  and  C_9 
REMARK    7  A    between atoms: C_16  and  C_17 
REMARK       I    between atoms: C_22  and  N_23 
REMARK    8  A    between atoms: N_23  and  C_24 
REMARK    9  A    between atoms: C_24  and  C_25 
REMARK   10  A    between atoms: C_25  and  O_26 
ROOT
HETATM    1  C   UNL     1       6.171  27.053  56.203  1.00  0.00     0.108 A 
HETATM    2  N   UNL     1       6.781  28.134  56.699  1.00  0.00    -0.215 NA
HETATM    3  C   UNL     1       7.973  27.971  57.311  1.00  0.00     0.180 A 
HETATM    4  N   UNL     1       8.571  26.775  57.469  1.00  0.00    -0.222 NA
HETATM    5  C   UNL     1       7.928  25.686  56.988  1.00  0.00     0.146 A 
HETATM    6  C   UNL     1       6.715  25.793  56.329  1.00  0.00     0.080 A 
ENDROOT
BRANCH   1   7
HETATM    7  N   UNL     1       4.912  27.171  55.582  1.00  0.00    -0.264 NA
HETATM    8  H   UNL     1       4.430  26.281  55.668  1.00  0.00     0.130 HD
BRANCH   7   9
HETATM    9  C   UNL     1       4.951  27.651  54.172  1.00  0.00     0.154 C 
BRANCH   9  10
HETATM   10  C   UNL     1       4.511  26.518  53.224  1.00  0.00     0.033 C 
BRANCH  10  11
HETATM   11  C   UNL     1       5.618  25.956  52.307  1.00  0.00    -0.021 C 
HETATM   12  C   UNL     1       5.214  25.942  50.831  1.00  0.00     0.009 C 
HETATM   13  C   UNL     1       5.981  24.536  52.753  1.00  0.00     0.009 C 
ENDBRANCH  10  11
ENDBRANCH   9  10
BRANCH   9  14
HETATM   14  C   UNL     1       3.974  28.839  53.974  1.00  0.00     0.235 C 
HETATM   15  N   UNL     1       3.894  29.679  55.069  1.00  0.00    -0.358 N 
HETATM   16  H   UNL     1       4.716  29.633  55.668  1.00  0.00     0.162 HD
HETATM   17  O   UNL     1       3.278  28.969  52.969  1.00  0.00    -0.272 OA
BRANCH  15  18
HETATM   18  C   UNL     1       3.247  30.971  54.971  1.00  0.00     0.148 C 
BRANCH  18  19
HETATM   19  C   UNL     1       3.854  31.969  55.956  1.00  0.00     0.186 C 
BRANCH  19  20
HETATM   20  O   UNL     1       5.224  31.616  56.186  1.00  0.00    -0.394 OA
HETATM   21  C   UNL     1       5.593  31.798  57.547  1.00  0.00     0.201 C 
ENDBRANCH  19  20
ENDBRANCH  18  19
ENDBRANCH  15  18
ENDBRANCH   9  14
ENDBRANCH   7   9
ENDBRANCH   1   7
BRANCH   3  22
HETATM   22  C   UNL     1       8.660  29.189  57.812  1.00  0.00     0.104 A 
HETATM   23  N   UNL     1       8.227  29.713  58.995  1.00  0.00    -0.257 NA
HETATM   24  C   UNL     1       8.853  30.809  59.475  1.00  0.00     0.117 A 
HETATM   25  C   UNL     1       9.912  31.432  58.841  1.00  0.00     0.019 A 
HETATM   26  C   UNL     1      10.354  30.902  57.637  1.00  0.00     0.004 A 
HETATM   27  C   UNL     1       9.724  29.774  57.116  1.00  0.00     0.036 A 
ENDBRANCH   3  22
BRANCH   5  28
HETATM   28  C   UNL     1       8.541  24.309  57.164  1.00  0.00     0.434 C 
HETATM   29  F   UNL     1       7.652  23.278  57.127  1.00  0.00    -0.165 F 
HETATM   30  F   UNL     1       9.473  24.029  56.206  1.00  0.00    -0.165 F 
HETATM   31  F   UNL     1       9.203  24.189  58.353  1.00  0.00    -0.165 F 
ENDBRANCH   5  28
TORSDOF 10
ENDMDL
MODEL 9
REMARK VINA RESULT:      -7.4      5.693      8.703
REMARK  10 active torsions:
REMARK  status: ('A' for Active; 'I' for Inactive)
REMARK    1  A    between atoms: C_2  and  C_3 
REMARK    2  A    between atoms: C_3  and  C_4 
REMARK    3  A    between atoms: C_4  and  N_5 
REMARK    4  A    between atoms: C_4  and  C_22 
REMARK    5  A    between atoms: N_5  and  C_6 
REMARK    6  A    between atoms: C_8  and  C_9 
REMARK    7  A    between atoms: C_16  and  C_17 
REMARK       I    between atoms: C_22  and  N_23 
REMARK    8  A    between atoms: N_23  and  C_24 
REMARK    9  A    between atoms: C_24  and  C_25 
REMARK   10  A    between atoms: C_25  and  O_26 
ROOT
HETATM    1  C   UNL     1       6.501  32.065  59.526  1.00  0.00     0.108 A 
HETATM    2  N   UNL     1       6.591  31.142  58.564  1.00  0.00    -0.215 NA
HETATM    3  C   UNL     1       7.533  30.183  58.684  1.00  0.00     0.180 A 
HETATM    4  N   UNL     1       8.403  30.118  59.710  1.00  0.00    -0.222 NA
HETATM    5  C   UNL     1       8.319  31.075  60.662  1.00  0.00     0.146 A 
HETATM    6  C   UNL     1       7.357  32.070  60.606  1.00  0.00     0.080 A 
ENDROOT
BRANCH   1   7
HETATM    7  N   UNL     1       5.552  33.101  59.429  1.00  0.00    -0.264 NA
HETATM    8  H   UNL     1       6.031  33.943  59.122  1.00  0.00     0.130 HD
BRANCH   7   9
HETATM    9  C   UNL     1       4.749  33.334  60.661  1.00  0.00     0.154 C 
BRANCH   9  10
HETATM   10  C   UNL     1       5.083  34.720  61.247  1.00  0.00     0.033 C 
BRANCH  10  11
HETATM   11  C   UNL     1       5.891  34.705  62.562  1.00  0.00    -0.021 C 
HETATM   12  C   UNL     1       5.489  33.558  63.492  1.00  0.00     0.009 C 
HETATM   13  C   UNL     1       5.715  36.042  63.288  1.00  0.00     0.009 C 
ENDBRANCH  10  11
ENDBRANCH   9  10
BRANCH   9  14
HETATM   14  C   UNL     1       3.232  33.312  60.335  1.00  0.00     0.235 C 
HETATM   15  N   UNL     1       2.502  34.258  61.028  1.00  0.00    -0.358 N 
HETATM   16  H   UNL     1       3.066  35.045  61.344  1.00  0.00     0.162 HD
HETATM   17  O   UNL     1       2.724  32.475  59.592  1.00  0.00    -0.272 OA
BRANCH  15  18
HETATM   18  C   UNL     1       1.135  34.561  60.660  1.00  0.00     0.148 C 
BRANCH  18  19
HETATM   19  C   UNL     1       1.073  35.721  59.669  1.00  0.00     0.186 C 
BRANCH  19  20
HETATM   20  O   UNL     1       0.461  35.261  58.456  1.00  0.00    -0.394 OA
HETATM   21  C   UNL     1       1.297  35.485  57.329  1.00  0.00     0.201 C 
ENDBRANCH  19  20
ENDBRANCH  18  19
ENDBRANCH  15  18
ENDBRANCH   9  14
ENDBRANCH   7   9
ENDBRANCH   1   7
BRANCH   3  22
HETATM   22  C   UNL     1       7.586  29.137  57.630  1.00  0.00     0.104 A 
HETATM   23  N   UNL     1       7.919  27.871  58.017  1.00  0.00    -0.257 NA
HETATM   24  C   UNL     1       7.953  26.904  57.076  1.00  0.00     0.117 A 
HETATM   25  C   UNL     1       7.667  27.118  55.740  1.00  0.00     0.019 A 
HETATM   26  C   UNL     1       7.329  28.404  55.343  1.00  0.00     0.004 A 
HETATM   27  C   UNL     1       7.290  29.423  56.293  1.00  0.00     0.036 A 
ENDBRANCH   3  22
BRANCH   5  28
HETATM   28  C   UNL     1       9.292  31.069  61.826  1.00  0.00     0.434 C 
HETATM   29  F   UNL     1       9.928  29.884  62.035  1.00  0.00    -0.165 F 
HETATM   30  F   UNL     1      10.281  32.000  61.681  1.00  0.00    -0.165 F 
HETATM   31  F   UNL     1       8.681  31.379  63.009  1.00  0.00    -0.165 F 
ENDBRANCH   5  28
TORSDOF 10
ENDMDL
MODEL 10
REMARK VINA RESULT:      -7.4      4.116      6.236
REMARK  10 active torsions:
REMARK  status: ('A' for Active; 'I' for Inactive)
REMARK    1  A    between atoms: C_2  and  C_3 
REMARK    2  A    between atoms: C_3  and  C_4 
REMARK    3  A    between atoms: C_4  and  N_5 
REMARK    4  A    between atoms: C_4  and  C_22 
REMARK    5  A    between atoms: N_5  and  C_6 
REMARK    6  A    between atoms: C_8  and  C_9 
REMARK    7  A    between atoms: C_16  and  C_17 
REMARK       I    between atoms: C_22  and  N_23 
REMARK    8  A    between atoms: N_23  and  C_24 
REMARK    9  A    between atoms: C_24  and  C_25 
REMARK   10  A    between atoms: C_25  and  O_26 
ROOT
HETATM    1  C   UNL     1       5.503  25.670  53.361  1.00  0.00     0.108 A 
HETATM    2  N   UNL     1       6.041  24.447  53.322  1.00  0.00    -0.215 NA
HETATM    3  C   UNL     1       6.949  24.118  54.264  1.00  0.00     0.180 A 
HETATM    4  N   UNL     1       7.360  24.962  55.229  1.00  0.00    -0.222 NA
HETATM    5  C   UNL     1       6.830  26.206  55.239  1.00  0.00     0.146 A 
HETATM    6  C   UNL     1       5.875  26.594  54.313  1.00  0.00     0.080 A 
ENDROOT
BRANCH   1   7
HETATM    7  N   UNL     1       4.573  26.069  52.381  1.00  0.00    -0.264 NA
HETATM    8  H   UNL     1       4.072  25.244  52.063  1.00  0.00     0.130 HD
BRANCH   7   9
HETATM    9  C   UNL     1       5.151  26.842  51.246  1.00  0.00     0.154 C 
BRANCH   9  10
HETATM   10  C   UNL     1       4.725  26.203  49.910  1.00  0.00     0.033 C 
BRANCH  10  11
HETATM   11  C   UNL     1       4.149  27.180  48.863  1.00  0.00    -0.021 C 
HETATM   12  C   UNL     1       2.775  26.752  48.345  1.00  0.00     0.009 C 
HETATM   13  C   UNL     1       5.124  27.307  47.688  1.00  0.00     0.009 C 
ENDBRANCH  10  11
ENDBRANCH   9  10
BRANCH   9  14
HETATM   14  C   UNL     1       4.627  28.302  51.260  1.00  0.00     0.235 C 
HETATM   15  N   UNL     1       5.593  29.240  50.952  1.00  0.00    -0.358 N 
HETATM   16  H   UNL     1       6.367  28.855  50.414  1.00  0.00     0.162 HD
HETATM   17  O   UNL     1       3.481  28.595  51.595  1.00  0.00    -0.272 OA
BRANCH  15  18
HETATM   18  C   UNL     1       5.233  30.612  50.657  1.00  0.00     0.148 C 
BRANCH  18  19
HETATM   19  C   UNL     1       5.308  30.894  49.159  1.00  0.00     0.186 C 
BRANCH  19  20
HETATM   20  O   UNL     1       4.116  31.584  48.758  1.00  0.00    -0.394 OA
HETATM   21  C   UNL     1       2.986  30.723  48.756  1.00  0.00     0.201 C 
ENDBRANCH  19  20
ENDBRANCH  18  19
ENDBRANCH  15  18
ENDBRANCH   9  14
ENDBRANCH   7   9
ENDBRANCH   1   7
BRANCH   3  22
HETATM   22  C   UNL     1       7.499  22.738  54.235  1.00  0.00     0.104 A 
HETATM   23  N   UNL     1       7.662  22.101  55.431  1.00  0.00    -0.257 NA
HETATM   24  C   UNL     1       8.143  20.839  55.422  1.00  0.00     0.117 A 
HETATM   25  C   UNL     1       8.476  20.149  54.270  1.00  0.00     0.019 A 
HETATM   26  C   UNL     1       8.312  20.794  53.052  1.00  0.00     0.004 A 
HETATM   27  C   UNL     1       7.822  22.099  53.033  1.00  0.00     0.036 A 
ENDBRANCH   3  22
BRANCH   5  28
HETATM   28  C   UNL     1       7.278  27.209  56.285  1.00  0.00     0.434 C 
HETATM   29  F   UNL     1       7.546  28.455  55.806  1.00  0.00    -0.165 F 
HETATM   30  F   UNL     1       6.347  27.384  57.270  1.00  0.00    -0.165 F 
HETATM   31  F   UNL     1       8.412  26.806  56.933  1.00  0.00    -0.165 F 
ENDBRANCH   5  28
TORSDOF 10
ENDMDL
