MODEL 1
REMARK VINA RESULT:      -9.4      0.000      0.000
REMARK  5 active torsions:
REMARK  status: ('A' for Active; 'I' for Inactive)
REMARK    1  A    between atoms: C_5  and  C_6 
REMARK    2  A    between atoms: C_6  and  C_7 
REMARK    3  A    between atoms: C_7  and  C_8 
REMARK       I    between atoms: C_8  and  N_9 
REMARK    4  A    between atoms: N_9  and  C_10 
REMARK    5  A    between atoms: C_12  and  C_13 
ROOT
HETATM    1  C   UNL     1       7.410  26.427  57.383  1.00  0.00     0.222 C 
HETATM    2  N   UNL     1       7.573  27.706  56.888  1.00  0.00    -0.327 N 
HETATM    3  O   UNL     1       8.027  25.933  58.324  1.00  0.00    -0.273 OA
HETATM    4  H   UNL     1       7.104  27.930  56.021  1.00  0.00     0.169 HD
ENDROOT
BRANCH   2   5
HETATM    5  C   UNL     1       8.386  28.733  57.415  1.00  0.00     0.035 A 
HETATM    6  C   UNL     1       8.099  29.430  58.593  1.00  0.00     0.042 A 
HETATM    7  C   UNL     1       8.931  30.469  59.046  1.00  0.00    -0.021 A 
HETATM    8  C   UNL     1      10.070  30.795  58.296  1.00  0.00     0.012 A 
HETATM    9  C   UNL     1      10.364  30.107  57.119  1.00  0.00     0.003 A 
HETATM   10  C   UNL     1       9.522  29.086  56.678  1.00  0.00     0.029 A 
BRANCH   7  11
HETATM   11  C   UNL     1       8.618  31.217  60.256  1.00  0.00     0.010 A 
HETATM   12  C   UNL     1       7.750  32.317  60.468  1.00  0.00     0.152 A 
HETATM   13  N   UNL     1       7.732  32.731  61.738  1.00  0.00    -0.187 NA
HETATM   14  N   UNL     1       8.589  31.898  62.349  1.00  0.00    -0.289 N 
HETATM   15  H   UNL     1       8.747  32.013  63.344  1.00  0.00     0.188 HD
HETATM   16  C   UNL     1       9.146  30.979  61.507  1.00  0.00     0.123 A 
ENDBRANCH   7  11
ENDBRANCH   2   5
BRANCH   1  17
HETATM   17  C   UNL     1       6.294  25.633  56.718  1.00  0.00     0.108 C 
BRANCH  17  18
HETATM   18  C   UNL     1       6.413  25.406  55.212  1.00  0.00     0.047 C 
BRANCH  18  19
HETATM   19  C   UNL     1       7.018  24.112  54.719  1.00  0.00    -0.058 A 
HETATM   20  C   UNL     1       7.332  23.033  55.551  1.00  0.00     0.007 A 
HETATM   21  C   UNL     1       7.846  21.845  55.018  1.00  0.00     0.007 A 
HETATM   22  C   UNL     1       8.043  21.706  53.641  1.00  0.00    -0.062 A 
HETATM   23  C   UNL     1       8.583  20.434  53.060  1.00  0.00     0.048 C 
HETATM   24  C   UNL     1       7.730  22.779  52.803  1.00  0.00     0.007 A 
HETATM   25  C   UNL     1       7.220  23.966  53.336  1.00  0.00     0.007 A 
ENDBRANCH  18  19
ENDBRANCH  17  18
ENDBRANCH   1  17
TORSDOF 5
ENDMDL
MODEL 2
REMARK VINA RESULT:      -8.9      2.582      3.843
REMARK  5 active torsions:
REMARK  status: ('A' for Active; 'I' for Inactive)
REMARK    1  A    between atoms: C_5  and  C_6 
REMARK    2  A    between atoms: C_6  and  C_7 
REMARK    3  A    between atoms: C_7  and  C_8 
REMARK       I    between atoms: C_8  and  N_9 
REMARK    4  A    between atoms: N_9  and  C_10 
REMARK    5  A    between atoms: C_12  and  C_13 
ROOT
HETATM    1  C   UNL     1       6.115  26.442  53.300  1.00  0.00     0.222 C 
HETATM    2  N   UNL     1       6.135  26.352  54.679  1.00  0.00    -0.327 N 
HETATM    3  O   UNL     1       6.170  27.479  52.644  1.00  0.00    -0.273 OA
HETATM    4  H   UNL     1       5.937  25.449  55.087  1.00  0.00     0.169 HD
ENDROOT
BRANCH   2   5
HETATM    5  C   UNL     1       6.330  27.401  55.604  1.00  0.00     0.035 A 
HETATM    6  C   UNL     1       7.567  28.010  55.844  1.00  0.00     0.042 A 
HETATM    7  C   UNL     1       7.702  29.026  56.807  1.00  0.00    -0.021 A 
HETATM    8  C   UNL     1       6.568  29.430  57.524  1.00  0.00     0.012 A 
HETATM    9  C   UNL     1       5.332  28.827  57.293  1.00  0.00     0.003 A 
HETATM   10  C   UNL     1       5.216  27.813  56.342  1.00  0.00     0.029 A 
BRANCH   7  11
HETATM   11  C   UNL     1       8.995  29.641  57.082  1.00  0.00     0.010 A 
HETATM   12  C   UNL     1      10.239  29.523  56.414  1.00  0.00     0.152 A 
HETATM   13  N   UNL     1      11.205  30.255  56.976  1.00  0.00    -0.187 NA
HETATM   14  N   UNL     1      10.585  30.847  58.008  1.00  0.00    -0.289 N 
HETATM   15  H   UNL     1      11.123  31.471  58.600  1.00  0.00     0.188 HD
HETATM   16  C   UNL     1       9.266  30.511  58.116  1.00  0.00     0.123 A 
ENDBRANCH   7  11
ENDBRANCH   2   5
BRANCH   1  17
HETATM   17  C   UNL     1       6.106  25.099  52.583  1.00  0.00     0.108 C 
BRANCH  17  18
HETATM   18  C   UNL     1       7.456  24.413  52.388  1.00  0.00     0.047 C 
BRANCH  18  19
HETATM   19  C   UNL     1       7.845  23.295  53.328  1.00  0.00    -0.058 A 
HETATM   20  C   UNL     1       7.817  21.941  52.980  1.00  0.00     0.007 A 
HETATM   21  C   UNL     1       8.238  20.961  53.887  1.00  0.00     0.007 A 
HETATM   22  C   UNL     1       8.708  21.315  55.155  1.00  0.00    -0.062 A 
HETATM   23  C   UNL     1       9.171  20.273  56.128  1.00  0.00     0.048 C 
HETATM   24  C   UNL     1       8.741  22.665  55.508  1.00  0.00     0.007 A 
HETATM   25  C   UNL     1       8.318  23.643  54.605  1.00  0.00     0.007 A 
ENDBRANCH  18  19
ENDBRANCH  17  18
ENDBRANCH   1  17
TORSDOF 5
ENDMDL
MODEL 3
REMARK VINA RESULT:      -8.9      3.660      9.825
REMARK  5 active torsions:
REMARK  status: ('A' for Active; 'I' for Inactive)
REMARK    1  A    between atoms: C_5  and  C_6 
REMARK    2  A    between atoms: C_6  and  C_7 
REMARK    3  A    between atoms: C_7  and  C_8 
REMARK       I    between atoms: C_8  and  N_9 
REMARK    4  A    between atoms: N_9  and  C_10 
REMARK    5  A    between atoms: C_12  and  C_13 
ROOT
HETATM    1  C   UNL     1       9.431  31.770  60.086  1.00  0.00     0.222 C 
HETATM    2  N   UNL     1       9.560  30.480  59.608  1.00  0.00    -0.327 N 
HETATM    3  O   UNL     1       9.106  32.755  59.427  1.00  0.00    -0.273 OA
HETATM    4  H   UNL     1       9.974  29.796  60.226  1.00  0.00     0.169 HD
ENDROOT
BRANCH   2   5
HETATM    5  C   UNL     1       9.246  30.010  58.314  1.00  0.00     0.035 A 
HETATM    6  C   UNL     1       8.040  29.384  57.981  1.00  0.00     0.042 A 
HETATM    7  C   UNL     1       7.803  28.904  56.681  1.00  0.00    -0.021 A 
HETATM    8  C   UNL     1       8.800  29.072  55.710  1.00  0.00     0.012 A 
HETATM    9  C   UNL     1      10.007  29.692  56.032  1.00  0.00     0.003 A 
HETATM   10  C   UNL     1      10.230  30.153  57.329  1.00  0.00     0.029 A 
BRANCH   7  11
HETATM   11  C   UNL     1       6.561  28.224  56.339  1.00  0.00     0.010 A 
HETATM   12  C   UNL     1       6.261  27.304  55.304  1.00  0.00     0.152 A 
HETATM   13  N   UNL     1       4.989  26.896  55.319  1.00  0.00    -0.187 NA
HETATM   14  N   UNL     1       4.465  27.553  56.365  1.00  0.00    -0.289 N 
HETATM   15  H   UNL     1       3.487  27.404  56.588  1.00  0.00     0.188 HD
HETATM   16  C   UNL     1       5.361  28.360  57.005  1.00  0.00     0.123 A 
ENDBRANCH   7  11
ENDBRANCH   2   5
BRANCH   1  17
HETATM   17  C   UNL     1       9.641  31.907  61.588  1.00  0.00     0.108 C 
BRANCH  17  18
HETATM   18  C   UNL     1       8.452  31.568  62.484  1.00  0.00     0.047 C 
BRANCH  18  19
HETATM   19  C   UNL     1       7.603  32.697  63.020  1.00  0.00    -0.058 A 
HETATM   20  C   UNL     1       7.597  33.098  64.360  1.00  0.00     0.007 A 
HETATM   21  C   UNL     1       6.820  34.185  64.778  1.00  0.00     0.007 A 
HETATM   22  C   UNL     1       6.044  34.903  63.863  1.00  0.00    -0.062 A 
HETATM   23  C   UNL     1       5.218  36.075  64.299  1.00  0.00     0.048 C 
HETATM   24  C   UNL     1       6.047  34.510  62.522  1.00  0.00     0.007 A 
HETATM   25  C   UNL     1       6.819  33.423  62.106  1.00  0.00     0.007 A 
ENDBRANCH  18  19
ENDBRANCH  17  18
ENDBRANCH   1  17
TORSDOF 5
ENDMDL
MODEL 4
REMARK VINA RESULT:      -8.8      3.484     10.269
REMARK  5 active torsions:
REMARK  status: ('A' for Active; 'I' for Inactive)
REMARK    1  A    between atoms: C_5  and  C_6 
REMARK    2  A    between atoms: C_6  and  C_7 
REMARK    3  A    between atoms: C_7  and  C_8 
REMARK       I    between atoms: C_8  and  N_9 
REMARK    4  A    between atoms: N_9  and  C_10 
REMARK    5  A    between atoms: C_12  and  C_13 
ROOT
HETATM    1  C   UNL     1       8.993  30.925  61.485  1.00  0.00     0.222 C 
HETATM    2  N   UNL     1       8.670  31.275  60.187  1.00  0.00    -0.327 N 
HETATM    3  O   UNL     1       9.594  29.911  61.830  1.00  0.00    -0.273 OA
HETATM    4  H   UNL     1       8.049  32.061  60.060  1.00  0.00     0.169 HD
ENDROOT
BRANCH   2   5
HETATM    5  C   UNL     1       9.051  30.611  59.000  1.00  0.00     0.035 A 
HETATM    6  C   UNL     1       8.387  29.494  58.483  1.00  0.00     0.042 A 
HETATM    7  C   UNL     1       8.839  28.855  57.314  1.00  0.00    -0.021 A 
HETATM    8  C   UNL     1       9.971  29.364  56.664  1.00  0.00     0.012 A 
HETATM    9  C   UNL     1      10.642  30.476  57.173  1.00  0.00     0.003 A 
HETATM   10  C   UNL     1      10.187  31.092  58.339  1.00  0.00     0.029 A 
BRANCH   7  11
HETATM   11  C   UNL     1       8.168  27.673  56.790  1.00  0.00     0.010 A 
HETATM   12  C   UNL     1       8.007  26.377  57.340  1.00  0.00     0.152 A 
HETATM   13  N   UNL     1       7.319  25.553  56.544  1.00  0.00    -0.187 NA
HETATM   14  N   UNL     1       7.034  26.317  55.479  1.00  0.00    -0.289 N 
HETATM   15  H   UNL     1       6.502  25.906  54.719  1.00  0.00     0.188 HD
HETATM   16  C   UNL     1       7.521  27.589  55.575  1.00  0.00     0.123 A 
ENDBRANCH   7  11
ENDBRANCH   2   5
BRANCH   1  17
HETATM   17  C   UNL     1       8.617  31.968  62.528  1.00  0.00     0.108 C 
BRANCH  17  18
HETATM   18  C   UNL     1       7.199  32.531  62.460  1.00  0.00     0.047 C 
BRANCH  18  19
HETATM   19  C   UNL     1       6.574  33.075  63.724  1.00  0.00    -0.058 A 
HETATM   20  C   UNL     1       5.194  33.170  63.930  1.00  0.00     0.007 A 
HETATM   21  C   UNL     1       4.683  33.640  65.146  1.00  0.00     0.007 A 
HETATM   22  C   UNL     1       5.541  34.011  66.186  1.00  0.00    -0.062 A 
HETATM   23  C   UNL     1       5.003  34.504  67.495  1.00  0.00     0.048 C 
HETATM   24  C   UNL     1       6.920  33.916  65.988  1.00  0.00     0.007 A 
HETATM   25  C   UNL     1       7.430  33.450  64.774  1.00  0.00     0.007 A 
ENDBRANCH  18  19
ENDBRANCH  17  18
ENDBRANCH   1  17
TORSDOF 5
ENDMDL
MODEL 5
REMARK VINA RESULT:      -8.7      2.699      3.794
REMARK  5 active torsions:
REMARK  status: ('A' for Active; 'I' for Inactive)
REMARK    1  A    between atoms: C_5  and  C_6 
REMARK    2  A    between atoms: C_6  and  C_7 
REMARK    3  A    between atoms: C_7  and  C_8 
REMARK       I    between atoms: C_8  and  N_9 
REMARK    4  A    between atoms: N_9  and  C_10 
REMARK    5  A    between atoms: C_12  and  C_13 
ROOT
HETATM    1  C   UNL     1       6.062  26.069  53.173  1.00  0.00     0.222 C 
HETATM    2  N   UNL     1       6.610  27.328  53.329  1.00  0.00    -0.327 N 
HETATM    3  O   UNL     1       5.159  25.586  53.851  1.00  0.00    -0.273 OA
HETATM    4  H   UNL     1       7.443  27.540  52.798  1.00  0.00     0.169 HD
ENDROOT
BRANCH   2   5
HETATM    5  C   UNL     1       6.185  28.345  54.211  1.00  0.00     0.035 A 
HETATM    6  C   UNL     1       6.816  28.642  55.424  1.00  0.00     0.042 A 
HETATM    7  C   UNL     1       6.320  29.644  56.277  1.00  0.00    -0.021 A 
HETATM    8  C   UNL     1       5.177  30.354  55.887  1.00  0.00     0.012 A 
HETATM    9  C   UNL     1       4.538  30.064  54.682  1.00  0.00     0.003 A 
HETATM   10  C   UNL     1       5.037  29.060  53.852  1.00  0.00     0.029 A 
BRANCH   7  11
HETATM   11  C   UNL     1       6.958  29.935  57.554  1.00  0.00     0.010 A 
HETATM   12  C   UNL     1       8.059  29.322  58.202  1.00  0.00     0.152 A 
HETATM   13  N   UNL     1       8.350  29.882  59.380  1.00  0.00    -0.187 NA
HETATM   14  N   UNL     1       7.437  30.859  59.494  1.00  0.00    -0.289 N 
HETATM   15  H   UNL     1       7.454  31.441  60.324  1.00  0.00     0.188 HD
HETATM   16  C   UNL     1       6.582  30.930  58.432  1.00  0.00     0.123 A 
ENDBRANCH   7  11
ENDBRANCH   2   5
BRANCH   1  17
HETATM   17  C   UNL     1       6.608  25.290  51.984  1.00  0.00     0.108 C 
BRANCH  17  18
HETATM   18  C   UNL     1       7.935  24.561  52.189  1.00  0.00     0.047 C 
BRANCH  18  19
HETATM   19  C   UNL     1       8.024  23.506  53.267  1.00  0.00    -0.058 A 
HETATM   20  C   UNL     1       8.230  23.792  54.620  1.00  0.00     0.007 A 
HETATM   21  C   UNL     1       8.253  22.765  55.572  1.00  0.00     0.007 A 
HETATM   22  C   UNL     1       8.057  21.433  55.193  1.00  0.00    -0.062 A 
HETATM   23  C   UNL     1       8.070  20.329  56.207  1.00  0.00     0.048 C 
HETATM   24  C   UNL     1       7.849  21.141  53.843  1.00  0.00     0.007 A 
HETATM   25  C   UNL     1       7.829  22.165  52.893  1.00  0.00     0.007 A 
ENDBRANCH  18  19
ENDBRANCH  17  18
ENDBRANCH   1  17
TORSDOF 5
ENDMDL
MODEL 6
REMARK VINA RESULT:      -8.6      6.819      9.220
REMARK  5 active torsions:
REMARK  status: ('A' for Active; 'I' for Inactive)
REMARK    1  A    between atoms: C_5  and  C_6 
REMARK    2  A    between atoms: C_6  and  C_7 
REMARK    3  A    between atoms: C_7  and  C_8 
REMARK       I    between atoms: C_8  and  N_9 
REMARK    4  A    between atoms: N_9  and  C_10 
REMARK    5  A    between atoms: C_12  and  C_13 
ROOT
HETATM    1  C   UNL     1       5.756  26.096  51.884  1.00  0.00     0.222 C 
HETATM    2  N   UNL     1       5.714  26.646  50.617  1.00  0.00    -0.327 N 
HETATM    3  O   UNL     1       4.785  25.767  52.561  1.00  0.00    -0.273 OA
HETATM    4  H   UNL     1       6.580  27.003  50.238  1.00  0.00     0.169 HD
ENDROOT
BRANCH   2   5
HETATM    5  C   UNL     1       4.577  26.840  49.804  1.00  0.00     0.035 A 
HETATM    6  C   UNL     1       3.787  27.995  49.828  1.00  0.00     0.042 A 
HETATM    7  C   UNL     1       2.643  28.111  49.018  1.00  0.00    -0.021 A 
HETATM    8  C   UNL     1       2.306  27.047  48.172  1.00  0.00     0.012 A 
HETATM    9  C   UNL     1       3.085  25.890  48.143  1.00  0.00     0.003 A 
HETATM   10  C   UNL     1       4.211  25.786  48.960  1.00  0.00     0.029 A 
BRANCH   7  11
HETATM   11  C   UNL     1       1.802  29.300  49.064  1.00  0.00     0.010 A 
HETATM   12  C   UNL     1       1.305  30.125  48.024  1.00  0.00     0.152 A 
HETATM   13  N   UNL     1       0.555  31.136  48.473  1.00  0.00    -0.187 NA
HETATM   14  N   UNL     1       0.566  30.964  49.804  1.00  0.00    -0.289 N 
HETATM   15  H   UNL     1       0.052  31.622  50.379  1.00  0.00     0.188 HD
HETATM   16  C   UNL     1       1.298  29.885  50.207  1.00  0.00     0.123 A 
ENDBRANCH   7  11
ENDBRANCH   2   5
BRANCH   1  17
HETATM   17  C   UNL     1       7.161  25.821  52.403  1.00  0.00     0.108 C 
BRANCH  17  18
HETATM   18  C   UNL     1       7.772  24.465  52.053  1.00  0.00     0.047 C 
BRANCH  18  19
HETATM   19  C   UNL     1       7.764  23.374  53.099  1.00  0.00    -0.058 A 
HETATM   20  C   UNL     1       7.998  22.024  52.816  1.00  0.00     0.007 A 
HETATM   21  C   UNL     1       8.024  21.073  53.843  1.00  0.00     0.007 A 
HETATM   22  C   UNL     1       7.832  21.453  55.175  1.00  0.00    -0.062 A 
HETATM   23  C   UNL     1       7.869  20.443  56.282  1.00  0.00     0.048 C 
HETATM   24  C   UNL     1       7.601  22.800  55.464  1.00  0.00     0.007 A 
HETATM   25  C   UNL     1       7.571  23.748  54.439  1.00  0.00     0.007 A 
ENDBRANCH  18  19
ENDBRANCH  17  18
ENDBRANCH   1  17
TORSDOF 5
ENDMDL
MODEL 7
REMARK VINA RESULT:      -8.5      5.631      9.201
REMARK  5 active torsions:
REMARK  status: ('A' for Active; 'I' for Inactive)
REMARK    1  A    between atoms: C_5  and  C_6 
REMARK    2  A    between atoms: C_6  and  C_7 
REMARK    3  A    between atoms: C_7  and  C_8 
REMARK       I    between atoms: C_8  and  N_9 
REMARK    4  A    between atoms: N_9  and  C_10 
REMARK    5  A    between atoms: C_12  and  C_13 
ROOT
HETATM    1  C   UNL     1       5.986  25.747  52.093  1.00  0.00     0.222 C 
HETATM    2  N   UNL     1       5.717  25.605  53.441  1.00  0.00    -0.327 N 
HETATM    3  O   UNL     1       6.996  25.355  51.513  1.00  0.00    -0.273 OA
HETATM    4  H   UNL     1       4.918  26.102  53.809  1.00  0.00     0.169 HD
ENDROOT
BRANCH   2   5
HETATM    5  C   UNL     1       6.478  24.898  54.397  1.00  0.00     0.035 A 
HETATM    6  C   UNL     1       6.986  23.610  54.194  1.00  0.00     0.042 A 
HETATM    7  C   UNL     1       7.706  22.945  55.201  1.00  0.00    -0.021 A 
HETATM    8  C   UNL     1       7.917  23.599  56.423  1.00  0.00     0.012 A 
HETATM    9  C   UNL     1       7.412  24.882  56.636  1.00  0.00     0.003 A 
HETATM   10  C   UNL     1       6.691  25.524  55.630  1.00  0.00     0.029 A 
BRANCH   7  11
HETATM   11  C   UNL     1       8.210  21.592  55.004  1.00  0.00     0.010 A 
HETATM   12  C   UNL     1       8.362  20.822  53.824  1.00  0.00     0.152 A 
HETATM   13  N   UNL     1       8.867  19.606  54.056  1.00  0.00    -0.187 NA
HETATM   14  N   UNL     1       9.042  19.590  55.386  1.00  0.00    -0.289 N 
HETATM   15  H   UNL     1       9.426  18.754  55.812  1.00  0.00     0.188 HD
HETATM   16  C   UNL     1       8.662  20.750  55.998  1.00  0.00     0.123 A 
ENDBRANCH   7  11
ENDBRANCH   2   5
BRANCH   1  17
HETATM   17  C   UNL     1       4.857  26.380  51.290  1.00  0.00     0.108 C 
BRANCH  17  18
HETATM   18  C   UNL     1       5.003  26.370  49.770  1.00  0.00     0.047 C 
BRANCH  18  19
HETATM   19  C   UNL     1       3.787  26.667  48.923  1.00  0.00    -0.058 A 
HETATM   20  C   UNL     1       2.960  27.779  49.113  1.00  0.00     0.007 A 
HETATM   21  C   UNL     1       1.877  28.018  48.259  1.00  0.00     0.007 A 
HETATM   22  C   UNL     1       1.606  27.160  47.189  1.00  0.00    -0.062 A 
HETATM   23  C   UNL     1       0.455  27.414  46.263  1.00  0.00     0.048 C 
HETATM   24  C   UNL     1       2.429  26.049  46.992  1.00  0.00     0.007 A 
HETATM   25  C   UNL     1       3.508  25.808  47.847  1.00  0.00     0.007 A 
ENDBRANCH  18  19
ENDBRANCH  17  18
ENDBRANCH   1  17
TORSDOF 5
ENDMDL
MODEL 8
REMARK VINA RESULT:      -8.4      2.799      9.610
REMARK  5 active torsions:
REMARK  status: ('A' for Active; 'I' for Inactive)
REMARK    1  A    between atoms: C_5  and  C_6 
REMARK    2  A    between atoms: C_6  and  C_7 
REMARK    3  A    between atoms: C_7  and  C_8 
REMARK       I    between atoms: C_8  and  N_9 
REMARK    4  A    between atoms: N_9  and  C_10 
REMARK    5  A    between atoms: C_12  and  C_13 
ROOT
HETATM    1  C   UNL     1       7.468  28.777  57.912  1.00  0.00     0.222 C 
HETATM    2  N   UNL     1       8.277  27.765  57.432  1.00  0.00    -0.327 N 
HETATM    3  O   UNL     1       6.259  28.884  57.725  1.00  0.00    -0.273 OA
HETATM    4  H   UNL     1       9.275  27.879  57.539  1.00  0.00     0.169 HD
ENDROOT
BRANCH   2   5
HETATM    5  C   UNL     1       7.876  26.606  56.732  1.00  0.00     0.035 A 
HETATM    6  C   UNL     1       7.281  26.625  55.465  1.00  0.00     0.042 A 
HETATM    7  C   UNL     1       6.871  25.436  54.836  1.00  0.00    -0.021 A 
HETATM    8  C   UNL     1       7.075  24.218  55.499  1.00  0.00     0.012 A 
HETATM    9  C   UNL     1       7.665  24.189  56.762  1.00  0.00     0.003 A 
HETATM   10  C   UNL     1       8.058  25.378  57.377  1.00  0.00     0.029 A 
BRANCH   7  11
HETATM   11  C   UNL     1       6.222  25.455  53.531  1.00  0.00     0.010 A 
HETATM   12  C   UNL     1       6.732  25.772  52.247  1.00  0.00     0.152 A 
HETATM   13  N   UNL     1       5.813  25.671  51.282  1.00  0.00    -0.187 NA
HETATM   14  N   UNL     1       4.709  25.289  51.942  1.00  0.00    -0.289 N 
HETATM   15  H   UNL     1       3.857  25.141  51.412  1.00  0.00     0.188 HD
HETATM   16  C   UNL     1       4.900  25.150  53.287  1.00  0.00     0.123 A 
ENDBRANCH   7  11
ENDBRANCH   2   5
BRANCH   1  17
HETATM   17  C   UNL     1       8.180  29.773  58.817  1.00  0.00     0.108 C 
BRANCH  17  18
HETATM   18  C   UNL     1       7.518  31.139  58.993  1.00  0.00     0.047 C 
BRANCH  18  19
HETATM   19  C   UNL     1       7.505  31.766  60.368  1.00  0.00    -0.058 A 
HETATM   20  C   UNL     1       6.551  32.700  60.786  1.00  0.00     0.007 A 
HETATM   21  C   UNL     1       6.571  33.205  62.092  1.00  0.00     0.007 A 
HETATM   22  C   UNL     1       7.534  32.775  63.011  1.00  0.00    -0.062 A 
HETATM   23  C   UNL     1       7.555  33.302  64.414  1.00  0.00     0.048 C 
HETATM   24  C   UNL     1       8.487  31.841  62.600  1.00  0.00     0.007 A 
HETATM   25  C   UNL     1       8.470  31.340  61.296  1.00  0.00     0.007 A 
ENDBRANCH  18  19
ENDBRANCH  17  18
ENDBRANCH   1  17
TORSDOF 5
ENDMDL
MODEL 9
REMARK VINA RESULT:      -8.4      7.023     10.092
REMARK  5 active torsions:
REMARK  status: ('A' for Active; 'I' for Inactive)
REMARK    1  A    between atoms: C_5  and  C_6 
REMARK    2  A    between atoms: C_6  and  C_7 
REMARK    3  A    between atoms: C_7  and  C_8 
REMARK       I    between atoms: C_8  and  N_9 
REMARK    4  A    between atoms: N_9  and  C_10 
REMARK    5  A    between atoms: C_12  and  C_13 
ROOT
HETATM    1  C   UNL     1       5.140  26.133  51.604  1.00  0.00     0.222 C 
HETATM    2  N   UNL     1       5.163  26.207  50.225  1.00  0.00    -0.327 N 
HETATM    3  O   UNL     1       4.782  27.025  52.369  1.00  0.00    -0.273 OA
HETATM    4  H   UNL     1       5.618  25.454  49.727  1.00  0.00     0.169 HD
ENDROOT
BRANCH   2   5
HETATM    5  C   UNL     1       4.686  27.261  49.415  1.00  0.00     0.035 A 
HETATM    6  C   UNL     1       3.472  27.224  48.721  1.00  0.00     0.042 A 
HETATM    7  C   UNL     1       3.070  28.293  47.900  1.00  0.00    -0.021 A 
HETATM    8  C   UNL     1       3.909  29.411  47.792  1.00  0.00     0.012 A 
HETATM    9  C   UNL     1       5.122  29.456  48.478  1.00  0.00     0.003 A 
HETATM   10  C   UNL     1       5.511  28.383  49.280  1.00  0.00     0.029 A 
BRANCH   7  11
HETATM   11  C   UNL     1       1.821  28.245  47.151  1.00  0.00     0.010 A 
HETATM   12  C   UNL     1       1.107  29.263  46.472  1.00  0.00     0.152 A 
HETATM   13  N   UNL     1      -0.014  28.819  45.896  1.00  0.00    -0.187 NA
HETATM   14  N   UNL     1      -0.025  27.513  46.202  1.00  0.00    -0.289 N 
HETATM   15  H   UNL     1      -0.795  26.945  45.867  1.00  0.00     0.188 HD
HETATM   16  C   UNL     1       1.047  27.122  46.952  1.00  0.00     0.123 A 
ENDBRANCH   7  11
ENDBRANCH   2   5
BRANCH   1  17
HETATM   17  C   UNL     1       5.526  24.771  52.166  1.00  0.00     0.108 C 
BRANCH  17  18
HETATM   18  C   UNL     1       6.977  24.594  52.608  1.00  0.00     0.047 C 
BRANCH  18  19
HETATM   19  C   UNL     1       7.340  23.384  53.437  1.00  0.00    -0.058 A 
HETATM   20  C   UNL     1       7.795  22.177  52.895  1.00  0.00     0.007 A 
HETATM   21  C   UNL     1       8.159  21.112  53.727  1.00  0.00     0.007 A 
HETATM   22  C   UNL     1       8.091  21.235  55.118  1.00  0.00    -0.062 A 
HETATM   23  C   UNL     1       8.489  20.104  56.017  1.00  0.00     0.048 C 
HETATM   24  C   UNL     1       7.639  22.438  55.667  1.00  0.00     0.007 A 
HETATM   25  C   UNL     1       7.272  23.500  54.836  1.00  0.00     0.007 A 
ENDBRANCH  18  19
ENDBRANCH  17  18
ENDBRANCH   1  17
TORSDOF 5
ENDMDL
MODEL 10
REMARK VINA RESULT:      -8.3      3.500      6.176
REMARK  5 active torsions:
REMARK  status: ('A' for Active; 'I' for Inactive)
REMARK    1  A    between atoms: C_5  and  C_6 
REMARK    2  A    between atoms: C_6  and  C_7 
REMARK    3  A    between atoms: C_7  and  C_8 
REMARK       I    between atoms: C_8  and  N_9 
REMARK    4  A    between atoms: N_9  and  C_10 
REMARK    5  A    between atoms: C_12  and  C_13 
ROOT
HETATM    1  C   UNL     1       8.423  31.399  59.841  1.00  0.00     0.222 C 
HETATM    2  N   UNL     1       7.725  30.988  60.961  1.00  0.00    -0.327 N 
HETATM    3  O   UNL     1       8.716  32.558  59.559  1.00  0.00    -0.273 OA
HETATM    4  H   UNL     1       7.429  30.022  60.993  1.00  0.00     0.169 HD
ENDROOT
BRANCH   2   5
HETATM    5  C   UNL     1       7.305  31.783  62.049  1.00  0.00     0.035 A 
HETATM    6  C   UNL     1       5.983  32.197  62.249  1.00  0.00     0.042 A 
HETATM    7  C   UNL     1       5.635  33.021  63.335  1.00  0.00    -0.021 A 
HETATM    8  C   UNL     1       6.640  33.418  64.227  1.00  0.00     0.012 A 
HETATM    9  C   UNL     1       7.960  33.013  64.035  1.00  0.00     0.003 A 
HETATM   10  C   UNL     1       8.291  32.204  62.948  1.00  0.00     0.029 A 
BRANCH   7  11
HETATM   11  C   UNL     1       4.266  33.479  63.528  1.00  0.00     0.010 A 
HETATM   12  C   UNL     1       3.128  33.382  62.689  1.00  0.00     0.152 A 
HETATM   13  N   UNL     1       2.034  33.931  63.227  1.00  0.00    -0.187 NA
HETATM   14  N   UNL     1       2.465  34.382  64.415  1.00  0.00    -0.289 N 
HETATM   15  H   UNL     1       1.801  34.847  65.024  1.00  0.00     0.188 HD
HETATM   16  C   UNL     1       3.790  34.140  64.641  1.00  0.00     0.123 A 
ENDBRANCH   7  11
ENDBRANCH   2   5
BRANCH   1  17
HETATM   17  C   UNL     1       8.920  30.262  58.959  1.00  0.00     0.108 C 
BRANCH  17  18
HETATM   18  C   UNL     1       8.206  30.063  57.624  1.00  0.00     0.047 C 
BRANCH  18  19
HETATM   19  C   UNL     1       7.397  28.804  57.414  1.00  0.00    -0.058 A 
HETATM   20  C   UNL     1       6.009  28.792  57.240  1.00  0.00     0.007 A 
HETATM   21  C   UNL     1       5.329  27.591  57.002  1.00  0.00     0.007 A 
HETATM   22  C   UNL     1       6.023  26.380  56.919  1.00  0.00    -0.062 A 
HETATM   23  C   UNL     1       5.305  25.092  56.654  1.00  0.00     0.048 C 
HETATM   24  C   UNL     1       7.410  26.386  57.090  1.00  0.00     0.007 A 
HETATM   25  C   UNL     1       8.088  27.583  57.331  1.00  0.00     0.007 A 
ENDBRANCH  18  19
ENDBRANCH  17  18
ENDBRANCH   1  17
TORSDOF 5
ENDMDL
