MODEL 1
REMARK VINA RESULT:      -9.6      0.000      0.000
REMARK  2 active torsions:
REMARK  status: ('A' for Active; 'I' for Inactive)
REMARK    1  A    between atoms: C_9  and  C_10 
REMARK       I    between atoms: C_10  and  N_11 
REMARK    2  A    between atoms: N_11  and  N_12 
ROOT
HETATM    1  C   UNL     1       6.841  25.867  54.939  1.00  0.00     0.291 C 
HETATM    2  N   UNL     1       7.925  26.382  55.614  1.00  0.00    -0.251 N 
HETATM    3  O   UNL     1       5.676  26.205  55.135  1.00  0.00    -0.264 OA
HETATM    4  H   UNL     1       8.845  25.980  55.463  1.00  0.00     0.191 HD
ENDROOT
BRANCH   2   5
HETATM    5  N   UNL     1       7.765  27.392  56.539  1.00  0.00    -0.167 N 
HETATM    6  C   UNL     1       7.620  27.145  57.877  1.00  0.00     0.345 C 
HETATM    7  O   UNL     1       7.495  26.068  58.436  1.00  0.00    -0.245 OA
HETATM    8  N   UNL     1       7.713  28.352  58.541  1.00  0.00    -0.323 N 
HETATM    9  C   UNL     1       8.050  29.446  57.647  1.00  0.00     0.117 C 
HETATM   10  H   UNL     1       7.682  28.392  59.552  1.00  0.00     0.165 HD
HETATM   11  C   UNL     1       9.413  30.062  57.988  1.00  0.00     0.041 C 
HETATM   12  C   UNL     1       6.933  30.492  57.605  1.00  0.00     0.041 C 
HETATM   13  C   UNL     1       8.151  28.690  56.305  1.00  0.00     0.275 C 
HETATM   14  C   UNL     1       9.362  30.919  59.250  1.00  0.00     0.003 C 
HETATM   15  C   UNL     1       8.259  31.969  59.173  1.00  0.00     0.000 C 
HETATM   16  C   UNL     1       6.899  31.344  58.875  1.00  0.00     0.003 C 
HETATM   17  O   UNL     1       8.561  29.173  55.257  1.00  0.00    -0.268 OA
ENDBRANCH   2   5
BRANCH   1  18
HETATM   18  C   UNL     1       7.238  24.858  53.947  1.00  0.00     0.158 A 
HETATM   19  C   UNL     1       7.520  23.480  54.177  1.00  0.00     0.029 A 
HETATM   20  C   UNL     1       7.529  22.619  55.292  1.00  0.00     0.023 A 
HETATM   21  C   UNL     1       7.828  22.959  52.926  1.00  0.00     0.063 A 
HETATM   22  C   UNL     1       7.840  21.261  55.115  1.00  0.00    -0.061 A 
HETATM   23  C   UNL     1       7.837  20.322  56.287  1.00  0.00     0.048 C 
HETATM   24  C   UNL     1       8.156  20.779  53.838  1.00  0.00     0.009 A 
HETATM   25  C   UNL     1       8.159  21.618  52.718  1.00  0.00     0.032 A 
HETATM   26  N   UNL     1       7.722  24.012  52.061  1.00  0.00    -0.277 N 
HETATM   27  H   UNL     1       7.881  24.000  51.060  1.00  0.00     0.189 HD
HETATM   28  N   UNL     1       7.344  25.170  52.635  1.00  0.00    -0.168 NA
ENDBRANCH   1  18
TORSDOF 2
ENDMDL
MODEL 2
REMARK VINA RESULT:      -9.4      3.452      5.009
REMARK  2 active torsions:
REMARK  status: ('A' for Active; 'I' for Inactive)
REMARK    1  A    between atoms: C_9  and  C_10 
REMARK       I    between atoms: C_10  and  N_11 
REMARK    2  A    between atoms: N_11  and  N_12 
ROOT
HETATM    1  C   UNL     1       7.225  25.698  54.719  1.00  0.00     0.291 C 
HETATM    2  N   UNL     1       5.993  26.220  55.042  1.00  0.00    -0.251 N 
HETATM    3  O   UNL     1       7.932  26.105  53.800  1.00  0.00    -0.264 OA
HETATM    4  H   UNL     1       5.428  25.764  55.753  1.00  0.00     0.191 HD
ENDROOT
BRANCH   2   5
HETATM    5  N   UNL     1       5.490  27.312  54.368  1.00  0.00    -0.167 N 
HETATM    6  C   UNL     1       5.835  28.596  54.692  1.00  0.00     0.345 C 
HETATM    7  O   UNL     1       6.503  28.983  55.638  1.00  0.00    -0.245 OA
HETATM    8  N   UNL     1       5.350  29.426  53.700  1.00  0.00    -0.323 N 
HETATM    9  C   UNL     1       4.758  28.681  52.602  1.00  0.00     0.117 C 
HETATM   10  H   UNL     1       5.537  30.420  53.718  1.00  0.00     0.165 HD
HETATM   11  C   UNL     1       5.529  28.888  51.293  1.00  0.00     0.041 C 
HETATM   12  C   UNL     1       3.268  29.000  52.457  1.00  0.00     0.041 C 
HETATM   13  C   UNL     1       4.970  27.236  53.099  1.00  0.00     0.275 C 
HETATM   14  C   UNL     1       5.279  30.265  50.684  1.00  0.00     0.003 C 
HETATM   15  C   UNL     1       3.788  30.548  50.525  1.00  0.00     0.000 C 
HETATM   16  C   UNL     1       3.035  30.380  51.842  1.00  0.00     0.003 C 
HETATM   17  O   UNL     1       4.758  26.228  52.435  1.00  0.00    -0.268 OA
ENDBRANCH   2   5
BRANCH   1  18
HETATM   18  C   UNL     1       7.605  24.590  55.607  1.00  0.00     0.158 A 
HETATM   19  C   UNL     1       7.873  23.239  55.240  1.00  0.00     0.029 A 
HETATM   20  C   UNL     1       7.892  22.498  54.043  1.00  0.00     0.023 A 
HETATM   21  C   UNL     1       8.202  22.599  56.429  1.00  0.00     0.063 A 
HETATM   22  C   UNL     1       8.248  21.139  54.075  1.00  0.00    -0.061 A 
HETATM   23  C   UNL     1       8.293  20.335  52.807  1.00  0.00     0.048 C 
HETATM   24  C   UNL     1       8.561  20.530  55.297  1.00  0.00     0.009 A 
HETATM   25  C   UNL     1       8.543  21.246  56.500  1.00  0.00     0.032 A 
HETATM   26  N   UNL     1       8.111  23.563  57.394  1.00  0.00    -0.277 N 
HETATM   27  H   UNL     1       8.279  23.452  58.388  1.00  0.00     0.189 HD
HETATM   28  N   UNL     1       7.777  24.783  56.935  1.00  0.00    -0.168 NA
ENDBRANCH   1  18
TORSDOF 2
ENDMDL
MODEL 3
REMARK VINA RESULT:      -9.2      3.149      9.105
REMARK  2 active torsions:
REMARK  status: ('A' for Active; 'I' for Inactive)
REMARK    1  A    between atoms: C_9  and  C_10 
REMARK       I    between atoms: C_10  and  N_11 
REMARK    2  A    between atoms: N_11  and  N_12 
ROOT
HETATM    1  C   UNL     1       7.750  30.762  58.727  1.00  0.00     0.291 C 
HETATM    2  N   UNL     1       8.252  29.596  58.194  1.00  0.00    -0.251 N 
HETATM    3  O   UNL     1       7.085  31.582  58.100  1.00  0.00    -0.264 OA
HETATM    4  H   UNL     1       8.875  29.018  58.750  1.00  0.00     0.191 HD
ENDROOT
BRANCH   2   5
HETATM    5  N   UNL     1       7.970  29.237  56.893  1.00  0.00    -0.167 N 
HETATM    6  C   UNL     1       8.870  29.402  55.875  1.00  0.00     0.345 C 
HETATM    7  O   UNL     1       9.953  29.963  55.909  1.00  0.00    -0.245 OA
HETATM    8  N   UNL     1       8.377  28.744  54.765  1.00  0.00    -0.323 N 
HETATM    9  C   UNL     1       7.161  28.005  55.060  1.00  0.00     0.117 C 
HETATM   10  H   UNL     1       8.913  28.698  53.908  1.00  0.00     0.165 HD
HETATM   11  C   UNL     1       7.355  26.495  54.881  1.00  0.00     0.041 C 
HETATM   12  C   UNL     1       5.978  28.540  54.249  1.00  0.00     0.041 C 
HETATM   13  C   UNL     1       6.996  28.327  56.560  1.00  0.00     0.275 C 
HETATM   14  C   UNL     1       7.418  26.088  53.411  1.00  0.00     0.003 C 
HETATM   15  C   UNL     1       6.215  26.610  52.631  1.00  0.00     0.000 C 
HETATM   16  C   UNL     1       6.054  28.120  52.781  1.00  0.00     0.003 C 
HETATM   17  O   UNL     1       6.174  27.804  57.303  1.00  0.00    -0.268 OA
ENDBRANCH   2   5
BRANCH   1  18
HETATM   18  C   UNL     1       8.104  30.915  60.146  1.00  0.00     0.158 A 
HETATM   19  C   UNL     1       7.605  31.886  61.062  1.00  0.00     0.029 A 
HETATM   20  C   UNL     1       6.688  32.955  61.009  1.00  0.00     0.023 A 
HETATM   21  C   UNL     1       8.230  31.599  62.270  1.00  0.00     0.063 A 
HETATM   22  C   UNL     1       6.422  33.696  62.172  1.00  0.00    -0.061 A 
HETATM   23  C   UNL     1       5.434  34.827  62.143  1.00  0.00     0.048 C 
HETATM   24  C   UNL     1       7.083  33.380  63.366  1.00  0.00     0.009 A 
HETATM   25  C   UNL     1       8.002  32.327  63.440  1.00  0.00     0.032 A 
HETATM   26  N   UNL     1       9.033  30.524  62.013  1.00  0.00    -0.277 N 
HETATM   27  H   UNL     1       9.644  30.046  62.667  1.00  0.00     0.189 HD
HETATM   28  N   UNL     1       8.967  30.066  60.749  1.00  0.00    -0.168 NA
ENDBRANCH   1  18
TORSDOF 2
ENDMDL
MODEL 4
REMARK VINA RESULT:      -9.1      3.932      6.038
REMARK  2 active torsions:
REMARK  status: ('A' for Active; 'I' for Inactive)
REMARK    1  A    between atoms: C_9  and  C_10 
REMARK       I    between atoms: C_10  and  N_11 
REMARK    2  A    between atoms: N_11  and  N_12 
ROOT
HETATM    1  C   UNL     1       6.685  26.026  54.129  1.00  0.00     0.291 C 
HETATM    2  N   UNL     1       5.406  25.833  53.662  1.00  0.00    -0.251 N 
HETATM    3  O   UNL     1       7.434  26.925  53.753  1.00  0.00    -0.264 OA
HETATM    4  H   UNL     1       4.886  25.009  53.951  1.00  0.00     0.191 HD
ENDROOT
BRANCH   2   5
HETATM    5  N   UNL     1       4.846  26.708  52.756  1.00  0.00    -0.167 N 
HETATM    6  C   UNL     1       4.227  27.867  53.141  1.00  0.00     0.345 C 
HETATM    7  O   UNL     1       3.974  28.246  54.273  1.00  0.00    -0.245 OA
HETATM    8  N   UNL     1       3.985  28.613  52.005  1.00  0.00    -0.323 N 
HETATM    9  C   UNL     1       4.558  28.007  50.816  1.00  0.00     0.117 C 
HETATM   10  H   UNL     1       3.575  29.536  52.068  1.00  0.00     0.165 HD
HETATM   11  C   UNL     1       5.650  28.888  50.197  1.00  0.00     0.041 C 
HETATM   12  C   UNL     1       3.471  27.631  49.806  1.00  0.00     0.041 C 
HETATM   13  C   UNL     1       5.203  26.746  51.429  1.00  0.00     0.275 C 
HETATM   14  C   UNL     1       5.074  30.103  49.474  1.00  0.00     0.003 C 
HETATM   15  C   UNL     1       4.013  29.700  48.455  1.00  0.00     0.000 C 
HETATM   16  C   UNL     1       2.908  28.859  49.089  1.00  0.00     0.003 C 
HETATM   17  O   UNL     1       5.943  25.974  50.831  1.00  0.00    -0.268 OA
ENDBRANCH   2   5
BRANCH   1  18
HETATM   18  C   UNL     1       7.059  25.028  55.142  1.00  0.00     0.158 A 
HETATM   19  C   UNL     1       7.419  23.666  54.924  1.00  0.00     0.029 A 
HETATM   20  C   UNL     1       7.556  22.820  53.807  1.00  0.00     0.023 A 
HETATM   21  C   UNL     1       7.698  23.158  56.187  1.00  0.00     0.063 A 
HETATM   22  C   UNL     1       7.976  21.492  53.992  1.00  0.00    -0.061 A 
HETATM   23  C   UNL     1       8.149  20.578  52.812  1.00  0.00     0.048 C 
HETATM   24  C   UNL     1       8.236  21.017  55.284  1.00  0.00     0.009 A 
HETATM   25  C   UNL     1       8.100  21.839  56.408  1.00  0.00     0.032 A 
HETATM   26  N   UNL     1       7.492  24.200  57.047  1.00  0.00    -0.277 N 
HETATM   27  H   UNL     1       7.598  24.191  58.056  1.00  0.00     0.189 HD
HETATM   28  N   UNL     1       7.130  25.352  56.453  1.00  0.00    -0.168 NA
ENDBRANCH   1  18
TORSDOF 2
ENDMDL
MODEL 5
REMARK VINA RESULT:      -9.0      3.625      5.023
REMARK  2 active torsions:
REMARK  status: ('A' for Active; 'I' for Inactive)
REMARK    1  A    between atoms: C_9  and  C_10 
REMARK       I    between atoms: C_10  and  N_11 
REMARK    2  A    between atoms: N_11  and  N_12 
ROOT
HETATM    1  C   UNL     1       6.419  25.079  55.439  1.00  0.00     0.291 C 
HETATM    2  N   UNL     1       6.812  25.352  54.149  1.00  0.00    -0.251 N 
HETATM    3  O   UNL     1       5.486  25.635  56.013  1.00  0.00    -0.264 OA
HETATM    4  H   UNL     1       7.654  24.920  53.779  1.00  0.00     0.191 HD
ENDROOT
BRANCH   2   5
HETATM    5  N   UNL     1       6.115  26.255  53.375  1.00  0.00    -0.167 N 
HETATM    6  C   UNL     1       4.914  25.950  52.793  1.00  0.00     0.345 C 
HETATM    7  O   UNL     1       4.346  24.870  52.756  1.00  0.00    -0.245 OA
HETATM    8  N   UNL     1       4.380  27.120  52.289  1.00  0.00    -0.323 N 
HETATM    9  C   UNL     1       5.178  28.283  52.638  1.00  0.00     0.117 C 
HETATM   10  H   UNL     1       3.465  27.128  51.857  1.00  0.00     0.165 HD
HETATM   11  C   UNL     1       4.405  29.255  53.537  1.00  0.00     0.041 C 
HETATM   12  C   UNL     1       5.737  28.966  51.387  1.00  0.00     0.041 C 
HETATM   13  C   UNL     1       6.304  27.614  53.454  1.00  0.00     0.275 C 
HETATM   14  C   UNL     1       3.342  30.035  52.769  1.00  0.00     0.003 C 
HETATM   15  C   UNL     1       3.928  30.728  51.543  1.00  0.00     0.000 C 
HETATM   16  C   UNL     1       4.660  29.746  50.632  1.00  0.00     0.003 C 
HETATM   17  O   UNL     1       7.160  28.215  54.092  1.00  0.00    -0.268 OA
ENDBRANCH   2   5
BRANCH   1  18
HETATM   18  C   UNL     1       7.247  24.034  56.058  1.00  0.00     0.158 A 
HETATM   19  C   UNL     1       7.708  22.825  55.459  1.00  0.00     0.029 A 
HETATM   20  C   UNL     1       7.588  22.208  54.198  1.00  0.00     0.023 A 
HETATM   21  C   UNL     1       8.460  22.197  56.444  1.00  0.00     0.063 A 
HETATM   22  C   UNL     1       8.234  20.984  53.963  1.00  0.00    -0.061 A 
HETATM   23  C   UNL     1       8.137  20.318  52.620  1.00  0.00     0.048 C 
HETATM   24  C   UNL     1       8.974  20.378  54.988  1.00  0.00     0.009 A 
HETATM   25  C   UNL     1       9.100  20.970  56.250  1.00  0.00     0.032 A 
HETATM   26  N   UNL     1       8.403  23.028  57.527  1.00  0.00    -0.277 N 
HETATM   27  H   UNL     1       8.836  22.885  58.432  1.00  0.00     0.189 HD
HETATM   28  N   UNL     1       7.701  24.159  57.326  1.00  0.00    -0.168 NA
ENDBRANCH   1  18
TORSDOF 2
ENDMDL
MODEL 6
REMARK VINA RESULT:      -9.0      1.943      2.485
REMARK  2 active torsions:
REMARK  status: ('A' for Active; 'I' for Inactive)
REMARK    1  A    between atoms: C_9  and  C_10 
REMARK       I    between atoms: C_10  and  N_11 
REMARK    2  A    between atoms: N_11  and  N_12 
ROOT
HETATM    1  C   UNL     1       6.521  26.392  55.731  1.00  0.00     0.291 C 
HETATM    2  N   UNL     1       6.766  27.740  55.604  1.00  0.00    -0.251 N 
HETATM    3  O   UNL     1       5.888  25.885  56.653  1.00  0.00    -0.264 OA
HETATM    4  H   UNL     1       7.381  28.070  54.866  1.00  0.00     0.191 HD
ENDROOT
BRANCH   2   5
HETATM    5  N   UNL     1       6.242  28.641  56.507  1.00  0.00    -0.167 N 
HETATM    6  C   UNL     1       6.880  28.968  57.673  1.00  0.00     0.345 C 
HETATM    7  O   UNL     1       7.890  28.472  58.144  1.00  0.00    -0.245 OA
HETATM    8  N   UNL     1       6.218  30.045  58.228  1.00  0.00    -0.323 N 
HETATM    9  C   UNL     1       5.167  30.550  57.362  1.00  0.00     0.117 C 
HETATM   10  H   UNL     1       6.557  30.481  59.076  1.00  0.00     0.165 HD
HETATM   11  C   UNL     1       5.451  31.983  56.896  1.00  0.00     0.041 C 
HETATM   12  C   UNL     1       3.792  30.414  58.023  1.00  0.00     0.041 C 
HETATM   13  C   UNL     1       5.303  29.585  56.165  1.00  0.00     0.275 C 
HETATM   14  C   UNL     1       5.228  33.008  58.004  1.00  0.00     0.003 C 
HETATM   15  C   UNL     1       3.843  32.870  58.628  1.00  0.00     0.000 C 
HETATM   16  C   UNL     1       3.584  31.451  59.127  1.00  0.00     0.003 C 
HETATM   17  O   UNL     1       4.713  29.702  55.099  1.00  0.00    -0.268 OA
ENDBRANCH   2   5
BRANCH   1  18
HETATM   18  C   UNL     1       7.105  25.619  54.624  1.00  0.00     0.158 A 
HETATM   19  C   UNL     1       7.431  24.232  54.614  1.00  0.00     0.029 A 
HETATM   20  C   UNL     1       7.339  23.162  55.526  1.00  0.00     0.023 A 
HETATM   21  C   UNL     1       7.933  23.987  53.342  1.00  0.00     0.063 A 
HETATM   22  C   UNL     1       7.747  21.878  55.129  1.00  0.00    -0.061 A 
HETATM   23  C   UNL     1       7.639  20.719  56.078  1.00  0.00     0.048 C 
HETATM   24  C   UNL     1       8.259  21.677  53.840  1.00  0.00     0.009 A 
HETATM   25  C   UNL     1       8.365  22.727  52.921  1.00  0.00     0.032 A 
HETATM   26  N   UNL     1       7.885  25.191  52.698  1.00  0.00    -0.277 N 
HETATM   27  H   UNL     1       8.179  25.389  51.748  1.00  0.00     0.189 HD
HETATM   28  N   UNL     1       7.369  26.196  53.430  1.00  0.00    -0.168 NA
ENDBRANCH   1  18
TORSDOF 2
ENDMDL
MODEL 7
REMARK VINA RESULT:      -8.8      4.320      6.582
REMARK  2 active torsions:
REMARK  status: ('A' for Active; 'I' for Inactive)
REMARK    1  A    between atoms: C_9  and  C_10 
REMARK       I    between atoms: C_10  and  N_11 
REMARK    2  A    between atoms: N_11  and  N_12 
ROOT
HETATM    1  C   UNL     1       5.892  26.081  53.575  1.00  0.00     0.291 C 
HETATM    2  N   UNL     1       6.479  26.326  52.355  1.00  0.00    -0.251 N 
HETATM    3  O   UNL     1       4.723  26.343  53.848  1.00  0.00    -0.264 OA
HETATM    4  H   UNL     1       7.476  26.171  52.239  1.00  0.00     0.191 HD
ENDROOT
BRANCH   2   5
HETATM    5  N   UNL     1       5.744  26.839  51.307  1.00  0.00    -0.167 N 
HETATM    6  C   UNL     1       4.813  26.097  50.631  1.00  0.00     0.345 C 
HETATM    7  O   UNL     1       4.569  24.907  50.745  1.00  0.00    -0.245 OA
HETATM    8  N   UNL     1       4.105  26.955  49.812  1.00  0.00    -0.323 N 
HETATM    9  C   UNL     1       4.479  28.344  50.016  1.00  0.00     0.117 C 
HETATM   10  H   UNL     1       3.330  26.618  49.256  1.00  0.00     0.165 HD
HETATM   11  C   UNL     1       3.309  29.175  50.557  1.00  0.00     0.041 C 
HETATM   12  C   UNL     1       5.083  28.947  48.746  1.00  0.00     0.041 C 
HETATM   13  C   UNL     1       5.548  28.186  51.118  1.00  0.00     0.275 C 
HETATM   14  C   UNL     1       2.260  29.465  49.487  1.00  0.00     0.003 C 
HETATM   15  C   UNL     1       2.883  30.089  48.243  1.00  0.00     0.000 C 
HETATM   16  C   UNL     1       4.019  29.235  47.687  1.00  0.00     0.003 C 
HETATM   17  O   UNL     1       6.064  29.112  51.732  1.00  0.00    -0.268 OA
ENDBRANCH   2   5
BRANCH   1  18
HETATM   18  C   UNL     1       6.829  25.464  54.524  1.00  0.00     0.158 A 
HETATM   19  C   UNL     1       7.412  24.165  54.445  1.00  0.00     0.029 A 
HETATM   20  C   UNL     1       7.352  23.079  53.551  1.00  0.00     0.023 A 
HETATM   21  C   UNL     1       8.232  24.068  55.564  1.00  0.00     0.063 A 
HETATM   22  C   UNL     1       8.122  21.932  53.802  1.00  0.00    -0.061 A 
HETATM   23  C   UNL     1       8.089  20.770  52.851  1.00  0.00     0.048 C 
HETATM   24  C   UNL     1       8.927  21.871  54.948  1.00  0.00     0.009 A 
HETATM   25  C   UNL     1       8.997  22.935  55.853  1.00  0.00     0.032 A 
HETATM   26  N   UNL     1       8.092  25.260  56.218  1.00  0.00    -0.277 N 
HETATM   27  H   UNL     1       8.543  25.540  57.082  1.00  0.00     0.189 HD
HETATM   28  N   UNL     1       7.273  26.138  55.609  1.00  0.00    -0.168 NA
ENDBRANCH   1  18
TORSDOF 2
ENDMDL
MODEL 8
REMARK VINA RESULT:      -8.7      5.986     11.551
REMARK  2 active torsions:
REMARK  status: ('A' for Active; 'I' for Inactive)
REMARK    1  A    between atoms: C_9  and  C_10 
REMARK       I    between atoms: C_10  and  N_11 
REMARK    2  A    between atoms: N_11  and  N_12 
ROOT
HETATM    1  C   UNL     1       5.967  32.509  62.351  1.00  0.00     0.291 C 
HETATM    2  N   UNL     1       7.300  32.737  62.101  1.00  0.00    -0.251 N 
HETATM    3  O   UNL     1       5.289  31.656  61.783  1.00  0.00    -0.264 OA
HETATM    4  H   UNL     1       7.765  33.526  62.541  1.00  0.00     0.191 HD
ENDROOT
BRANCH   2   5
HETATM    5  N   UNL     1       7.996  31.947  61.210  1.00  0.00    -0.167 N 
HETATM    6  C   UNL     1       8.616  30.787  61.587  1.00  0.00     0.345 C 
HETATM    7  O   UNL     1       8.757  30.338  62.713  1.00  0.00    -0.245 OA
HETATM    8  N   UNL     1       9.017  30.131  60.440  1.00  0.00    -0.323 N 
HETATM    9  C   UNL     1       8.555  30.799  59.235  1.00  0.00     0.117 C 
HETATM   10  H   UNL     1       9.456  29.221  60.489  1.00  0.00     0.165 HD
HETATM   11  C   UNL     1       7.579  29.926  58.438  1.00  0.00     0.041 C 
HETATM   12  C   UNL     1       9.732  31.282  58.384  1.00  0.00     0.041 C 
HETATM   13  C   UNL     1       7.792  31.990  59.852  1.00  0.00     0.275 C 
HETATM   14  C   UNL     1       8.284  28.785  57.708  1.00  0.00     0.003 C 
HETATM   15  C   UNL     1       9.435  29.295  56.847  1.00  0.00     0.000 C 
HETATM   16  C   UNL     1      10.424  30.128  57.658  1.00  0.00     0.003 C 
HETATM   17  O   UNL     1       7.092  32.776  59.224  1.00  0.00    -0.268 OA
ENDBRANCH   2   5
BRANCH   1  18
HETATM   18  C   UNL     1       5.438  33.410  63.386  1.00  0.00     0.158 A 
HETATM   19  C   UNL     1       5.473  34.835  63.394  1.00  0.00     0.029 A 
HETATM   20  C   UNL     1       5.951  35.843  62.535  1.00  0.00     0.023 A 
HETATM   21  C   UNL     1       4.834  35.206  64.572  1.00  0.00     0.063 A 
HETATM   22  C   UNL     1       5.767  37.192  62.880  1.00  0.00    -0.061 A 
HETATM   23  C   UNL     1       6.252  38.283  61.969  1.00  0.00     0.048 C 
HETATM   24  C   UNL     1       5.129  37.522  64.083  1.00  0.00     0.009 A 
HETATM   25  C   UNL     1       4.651  36.537  64.954  1.00  0.00     0.032 A 
HETATM   26  N   UNL     1       4.477  34.032  65.173  1.00  0.00    -0.277 N 
HETATM   27  H   UNL     1       3.994  33.919  66.058  1.00  0.00     0.189 HD
HETATM   28  N   UNL     1       4.802  32.926  64.478  1.00  0.00    -0.168 NA
ENDBRANCH   1  18
TORSDOF 2
ENDMDL
MODEL 9
REMARK VINA RESULT:      -8.7      1.822      7.715
REMARK  2 active torsions:
REMARK  status: ('A' for Active; 'I' for Inactive)
REMARK    1  A    between atoms: C_9  and  C_10 
REMARK       I    between atoms: C_10  and  N_11 
REMARK    2  A    between atoms: N_11  and  N_12 
ROOT
HETATM    1  C   UNL     1       5.993  26.716  56.856  1.00  0.00     0.291 C 
HETATM    2  N   UNL     1       7.050  26.300  56.079  1.00  0.00    -0.251 N 
HETATM    3  O   UNL     1       5.019  26.020  57.133  1.00  0.00    -0.264 OA
HETATM    4  H   UNL     1       7.770  26.966  55.815  1.00  0.00     0.191 HD
ENDROOT
BRANCH   2   5
HETATM    5  N   UNL     1       7.110  25.008  55.602  1.00  0.00    -0.167 N 
HETATM    6  C   UNL     1       6.462  24.616  54.462  1.00  0.00     0.345 C 
HETATM    7  O   UNL     1       5.678  25.258  53.781  1.00  0.00    -0.245 OA
HETATM    8  N   UNL     1       6.903  23.348  54.140  1.00  0.00    -0.323 N 
HETATM    9  C   UNL     1       7.973  22.900  55.015  1.00  0.00     0.117 C 
HETATM   10  H   UNL     1       6.585  22.886  53.298  1.00  0.00     0.165 HD
HETATM   11  C   UNL     1       9.284  22.686  54.250  1.00  0.00     0.041 C 
HETATM   12  C   UNL     1       7.555  21.661  55.812  1.00  0.00     0.041 C 
HETATM   13  C   UNL     1       8.113  24.130  55.937  1.00  0.00     0.275 C 
HETATM   14  C   UNL     1       9.258  21.421  53.397  1.00  0.00     0.003 C 
HETATM   15  C   UNL     1       8.864  20.197  54.218  1.00  0.00     0.000 C 
HETATM   16  C   UNL     1       7.538  20.403  54.944  1.00  0.00     0.003 C 
HETATM   17  O   UNL     1       9.002  24.289  56.765  1.00  0.00    -0.268 OA
ENDBRANCH   2   5
BRANCH   1  18
HETATM   18  C   UNL     1       6.163  28.099  57.324  1.00  0.00     0.158 A 
HETATM   19  C   UNL     1       7.380  28.834  57.432  1.00  0.00     0.029 A 
HETATM   20  C   UNL     1       8.741  28.585  57.169  1.00  0.00     0.023 A 
HETATM   21  C   UNL     1       7.006  30.087  57.902  1.00  0.00     0.063 A 
HETATM   22  C   UNL     1       9.684  29.606  57.378  1.00  0.00    -0.061 A 
HETATM   23  C   UNL     1      11.138  29.369  57.085  1.00  0.00     0.048 C 
HETATM   24  C   UNL     1       9.265  30.851  57.864  1.00  0.00     0.009 A 
HETATM   25  C   UNL     1       7.919  31.118  58.138  1.00  0.00     0.032 A 
HETATM   26  N   UNL     1       5.648  30.027  58.045  1.00  0.00    -0.277 N 
HETATM   27  H   UNL     1       5.035  30.765  58.374  1.00  0.00     0.189 HD
HETATM   28  N   UNL     1       5.099  28.853  57.683  1.00  0.00    -0.168 NA
ENDBRANCH   1  18
TORSDOF 2
ENDMDL
MODEL 10
REMARK VINA RESULT:      -8.6      1.960      8.084
REMARK  2 active torsions:
REMARK  status: ('A' for Active; 'I' for Inactive)
REMARK    1  A    between atoms: C_9  and  C_10 
REMARK       I    between atoms: C_10  and  N_11 
REMARK    2  A    between atoms: N_11  and  N_12 
ROOT
HETATM    1  C   UNL     1       6.444  26.741  57.086  1.00  0.00     0.291 C 
HETATM    2  N   UNL     1       7.413  26.253  56.238  1.00  0.00    -0.251 N 
HETATM    3  O   UNL     1       5.461  26.104  57.457  1.00  0.00    -0.264 OA
HETATM    4  H   UNL     1       8.142  26.874  55.901  1.00  0.00     0.191 HD
ENDROOT
BRANCH   2   5
HETATM    5  N   UNL     1       7.368  24.949  55.791  1.00  0.00    -0.167 N 
HETATM    6  C   UNL     1       6.606  24.567  54.720  1.00  0.00     0.345 C 
HETATM    7  O   UNL     1       5.801  25.233  54.091  1.00  0.00    -0.245 OA
HETATM    8  N   UNL     1       6.956  23.271  54.396  1.00  0.00    -0.323 N 
HETATM    9  C   UNL     1       8.073  22.788  55.190  1.00  0.00     0.117 C 
HETATM   10  H   UNL     1       6.545  22.808  53.596  1.00  0.00     0.165 HD
HETATM   11  C   UNL     1       9.302  22.491  54.322  1.00  0.00     0.041 C 
HETATM   12  C   UNL     1       7.663  21.590  56.050  1.00  0.00     0.041 C 
HETATM   13  C   UNL     1       8.351  24.029  56.064  1.00  0.00     0.275 C 
HETATM   14  C   UNL     1       9.141  21.210  53.508  1.00  0.00     0.003 C 
HETATM   15  C   UNL     1       8.759  20.026  54.391  1.00  0.00     0.000 C 
HETATM   16  C   UNL     1       7.510  20.315  55.219  1.00  0.00     0.003 C 
HETATM   17  O   UNL     1       9.313  24.160  56.810  1.00  0.00    -0.268 OA
ENDBRANCH   2   5
BRANCH   1  18
HETATM   18  C   UNL     1       6.721  28.123  57.502  1.00  0.00     0.158 A 
HETATM   19  C   UNL     1       5.903  29.271  57.294  1.00  0.00     0.029 A 
HETATM   20  C   UNL     1       4.656  29.533  56.693  1.00  0.00     0.023 A 
HETATM   21  C   UNL     1       6.595  30.322  57.885  1.00  0.00     0.063 A 
HETATM   22  C   UNL     1       4.140  30.839  56.711  1.00  0.00    -0.061 A 
HETATM   23  C   UNL     1       2.803  31.136  56.093  1.00  0.00     0.048 C 
HETATM   24  C   UNL     1       4.875  31.871  57.308  1.00  0.00     0.009 A 
HETATM   25  C   UNL     1       6.119  31.635  57.905  1.00  0.00     0.032 A 
HETATM   26  N   UNL     1       7.738  29.763  58.385  1.00  0.00    -0.277 N 
HETATM   27  H   UNL     1       8.484  30.238  58.881  1.00  0.00     0.189 HD
HETATM   28  N   UNL     1       7.840  28.435  58.196  1.00  0.00    -0.168 NA
ENDBRANCH   1  18
TORSDOF 2
ENDMDL
