MODEL 1
REMARK VINA RESULT:      -8.2      0.000      0.000
REMARK  6 active torsions:
REMARK  status: ('A' for Active; 'I' for Inactive)
REMARK    1  A    between atoms: C_3  and  C_4 
REMARK    2  A    between atoms: C_4  and  N_5 
REMARK    3  A    between atoms: C_4  and  C_19 
REMARK    4  A    between atoms: N_9  and  C_10 
REMARK    5  A    between atoms: C_25  and  N_26 
REMARK       I    between atoms: N_26  and  C_27 
REMARK    6  A    between atoms: C_27  and  C_28 
ROOT
HETATM    1  C   UNL     1       6.212  31.704  58.697  1.00  0.00     0.259 C 
ENDROOT
BRANCH   1   2
HETATM    2  C   UNL     1       5.014  32.542  59.118  1.00  0.00     0.018 A 
HETATM    3  C   UNL     1       4.500  33.639  58.285  1.00  0.00    -0.038 A 
HETATM    4  C   UNL     1       5.127  34.112  57.002  1.00  0.00     0.050 C 
HETATM    5  C   UNL     1       3.355  34.207  58.821  1.00  0.00    -0.013 A 
HETATM    6  S   UNL     1       2.928  33.502  60.303  1.00  0.00    -0.076 SA
HETATM    7  C   UNL     1       2.524  35.332  58.282  1.00  0.00     0.057 C 
HETATM    8  C   UNL     1       4.208  32.392  60.243  1.00  0.00     0.086 A 
BRANCH   8   9
HETATM    9  N   UNL     1       4.417  31.595  61.348  1.00  0.00    -0.315 N 
HETATM   10  C   UNL     1       4.826  31.942  62.626  1.00  0.00     0.280 C 
HETATM   11  O   UNL     1       5.199  31.007  63.339  1.00  0.00    -0.265 OA
HETATM   12  H   UNL     1       4.480  30.596  61.200  1.00  0.00     0.170 HD
BRANCH  10  13
HETATM   13  C   UNL     1       4.641  33.281  63.141  1.00  0.00     0.142 A 
HETATM   14  O   UNL     1       3.531  33.590  63.890  1.00  0.00    -0.317 OA
HETATM   15  C   UNL     1       3.623  34.908  64.211  1.00  0.00     0.143 A 
HETATM   16  C   UNL     1       4.809  35.434  63.758  1.00  0.00     0.027 A 
HETATM   17  C   UNL     1       5.476  34.381  63.090  1.00  0.00     0.045 A 
ENDBRANCH  10  13
ENDBRANCH   8   9
ENDBRANCH   1   2
BRANCH   1  18
HETATM   18  N   UNL     1       5.954  30.326  58.057  1.00  0.00    -0.056 N 
HETATM   19  H   UNL     1       6.054  29.675  58.845  1.00  0.00     0.281 HD
HETATM   20  C   UNL     1       4.564  30.062  57.500  1.00  0.00     0.256 C 
HETATM   21  C   UNL     1       4.416  28.579  57.067  1.00  0.00     0.152 C 
HETATM   22  N   UNL     1       5.490  28.181  56.125  1.00  0.00    -0.364 N 
HETATM   23  C   UNL     1       6.861  28.456  56.628  1.00  0.00     0.152 C 
HETATM   24  C   UNL     1       7.043  29.934  57.058  1.00  0.00     0.256 C 
BRANCH  22  25
HETATM   25  C   UNL     1       5.230  28.219  54.763  1.00  0.00     0.102 A 
HETATM   26  N   UNL     1       3.950  28.125  54.351  1.00  0.00    -0.352 N 
HETATM   27  H   UNL     1       3.236  27.973  55.058  1.00  0.00     0.166 HD
HETATM   28  C   UNL     1       3.570  28.134  53.063  1.00  0.00     0.089 A 
HETATM   29  C   UNL     1       4.518  28.229  52.059  1.00  0.00     0.017 A 
HETATM   30  C   UNL     1       5.855  28.293  52.415  1.00  0.00     0.005 A 
HETATM   31  C   UNL     1       6.213  28.281  53.763  1.00  0.00     0.048 A 
ENDBRANCH  22  25
ENDBRANCH   1  18
BRANCH   1  32
HETATM   32  C   UNL     1       7.289  31.714  59.765  1.00  0.00    -0.005 A 
HETATM   33  C   UNL     1       8.049  30.552  59.933  1.00  0.00     0.125 A 
HETATM   34  N   UNL     1       8.994  30.374  60.875  1.00  0.00    -0.273 NA
HETATM   35  C   UNL     1       9.273  31.421  61.675  1.00  0.00     0.116 A 
HETATM   36  C   UNL     1       8.619  32.633  61.579  1.00  0.00     0.020 A 
HETATM   37  C   UNL     1       7.617  32.779  60.616  1.00  0.00     0.012 A 
ENDBRANCH   1  32
TORSDOF 6
ENDMDL
MODEL 2
REMARK VINA RESULT:      -7.9      4.403      7.023
REMARK  6 active torsions:
REMARK  status: ('A' for Active; 'I' for Inactive)
REMARK    1  A    between atoms: C_3  and  C_4 
REMARK    2  A    between atoms: C_4  and  N_5 
REMARK    3  A    between atoms: C_4  and  C_19 
REMARK    4  A    between atoms: N_9  and  C_10 
REMARK    5  A    between atoms: C_25  and  N_26 
REMARK       I    between atoms: N_26  and  C_27 
REMARK    6  A    between atoms: C_27  and  C_28 
ROOT
HETATM    1  C   UNL     1       6.951  28.267  54.225  1.00  0.00     0.259 C 
ENDROOT
BRANCH   1   2
HETATM    2  C   UNL     1       7.213  28.939  55.565  1.00  0.00     0.018 A 
HETATM    3  C   UNL     1       8.573  29.270  56.017  1.00  0.00    -0.038 A 
HETATM    4  C   UNL     1       9.835  28.917  55.278  1.00  0.00     0.050 C 
HETATM    5  C   UNL     1       8.569  29.952  57.223  1.00  0.00    -0.013 A 
HETATM    6  S   UNL     1       7.000  30.148  57.838  1.00  0.00    -0.076 SA
HETATM    7  C   UNL     1       9.732  30.474  58.010  1.00  0.00     0.057 C 
HETATM    8  C   UNL     1       6.287  29.390  56.500  1.00  0.00     0.086 A 
BRANCH   8   9
HETATM    9  N   UNL     1       4.930  29.153  56.547  1.00  0.00    -0.315 N 
HETATM   10  C   UNL     1       3.871  30.037  56.412  1.00  0.00     0.280 C 
HETATM   11  O   UNL     1       2.771  29.610  56.771  1.00  0.00    -0.265 OA
HETATM   12  H   UNL     1       4.622  28.265  56.919  1.00  0.00     0.170 HD
BRANCH  10  13
HETATM   13  C   UNL     1       4.023  31.299  55.720  1.00  0.00     0.142 A 
HETATM   14  O   UNL     1       4.171  31.327  54.354  1.00  0.00    -0.317 OA
HETATM   15  C   UNL     1       4.310  32.631  53.997  1.00  0.00     0.143 A 
HETATM   16  C   UNL     1       4.170  33.450  55.092  1.00  0.00     0.027 A 
HETATM   17  C   UNL     1       3.961  32.594  56.198  1.00  0.00     0.045 A 
ENDBRANCH  10  13
ENDBRANCH   8   9
ENDBRANCH   1   2
BRANCH   1  18
HETATM   18  N   UNL     1       5.751  28.749  53.386  1.00  0.00    -0.056 N 
HETATM   19  H   UNL     1       5.414  29.570  53.902  1.00  0.00     0.281 HD
HETATM   20  C   UNL     1       6.037  29.254  51.981  1.00  0.00     0.256 C 
HETATM   21  C   UNL     1       4.761  29.871  51.347  1.00  0.00     0.152 C 
HETATM   22  N   UNL     1       3.623  28.922  51.389  1.00  0.00    -0.364 N 
HETATM   23  C   UNL     1       3.338  28.385  52.745  1.00  0.00     0.152 C 
HETATM   24  C   UNL     1       4.592  27.751  53.400  1.00  0.00     0.256 C 
BRANCH  22  25
HETATM   25  C   UNL     1       3.358  28.150  50.268  1.00  0.00     0.102 A 
HETATM   26  N   UNL     1       2.155  28.273  49.673  1.00  0.00    -0.352 N 
HETATM   27  H   UNL     1       1.473  28.887  50.108  1.00  0.00     0.166 HD
HETATM   28  C   UNL     1       1.773  27.572  48.592  1.00  0.00     0.089 A 
HETATM   29  C   UNL     1       2.629  26.642  48.028  1.00  0.00     0.017 A 
HETATM   30  C   UNL     1       3.868  26.442  48.614  1.00  0.00     0.005 A 
HETATM   31  C   UNL     1       4.231  27.188  49.735  1.00  0.00     0.048 A 
ENDBRANCH  22  25
ENDBRANCH   1  18
BRANCH   1  32
HETATM   32  C   UNL     1       7.083  26.760  54.334  1.00  0.00    -0.005 A 
HETATM   33  C   UNL     1       7.600  26.072  53.231  1.00  0.00     0.125 A 
HETATM   34  N   UNL     1       7.721  24.734  53.140  1.00  0.00    -0.273 NA
HETATM   35  C   UNL     1       7.377  24.009  54.222  1.00  0.00     0.116 A 
HETATM   36  C   UNL     1       6.892  24.577  55.383  1.00  0.00     0.020 A 
HETATM   37  C   UNL     1       6.743  25.965  55.438  1.00  0.00     0.012 A 
ENDBRANCH   1  32
TORSDOF 6
ENDMDL
MODEL 3
REMARK VINA RESULT:      -7.9      5.328      8.727
REMARK  6 active torsions:
REMARK  status: ('A' for Active; 'I' for Inactive)
REMARK    1  A    between atoms: C_3  and  C_4 
REMARK    2  A    between atoms: C_4  and  N_5 
REMARK    3  A    between atoms: C_4  and  C_19 
REMARK    4  A    between atoms: N_9  and  C_10 
REMARK    5  A    between atoms: C_25  and  N_26 
REMARK       I    between atoms: N_26  and  C_27 
REMARK    6  A    between atoms: C_27  and  C_28 
ROOT
HETATM    1  C   UNL     1       4.379  28.877  54.709  1.00  0.00     0.259 C 
ENDROOT
BRANCH   1   2
HETATM    2  C   UNL     1       5.488  27.984  55.245  1.00  0.00     0.018 A 
HETATM    3  C   UNL     1       6.676  28.535  55.915  1.00  0.00    -0.038 A 
HETATM    4  C   UNL     1       6.975  30.001  56.069  1.00  0.00     0.050 C 
HETATM    5  C   UNL     1       7.510  27.538  56.398  1.00  0.00    -0.013 A 
HETATM    6  S   UNL     1       6.935  25.988  56.018  1.00  0.00    -0.076 SA
HETATM    7  C   UNL     1       8.802  27.675  57.143  1.00  0.00     0.057 C 
HETATM    8  C   UNL     1       5.544  26.593  55.262  1.00  0.00     0.086 A 
BRANCH   8   9
HETATM    9  N   UNL     1       4.724  25.694  54.616  1.00  0.00    -0.315 N 
HETATM   10  C   UNL     1       4.942  24.972  53.453  1.00  0.00     0.280 C 
HETATM   11  O   UNL     1       3.941  24.456  52.950  1.00  0.00    -0.265 OA
HETATM   12  H   UNL     1       3.749  25.673  54.884  1.00  0.00     0.170 HD
BRANCH  10  13
HETATM   13  C   UNL     1       6.279  24.690  52.979  1.00  0.00     0.142 A 
HETATM   14  O   UNL     1       6.921  23.535  53.358  1.00  0.00    -0.317 OA
HETATM   15  C   UNL     1       8.151  23.557  52.779  1.00  0.00     0.143 A 
HETATM   16  C   UNL     1       8.284  24.658  51.968  1.00  0.00     0.027 A 
HETATM   17  C   UNL     1       7.071  25.375  52.076  1.00  0.00     0.045 A 
ENDBRANCH  10  13
ENDBRANCH   8   9
ENDBRANCH   1   2
BRANCH   1  18
HETATM   18  N   UNL     1       4.421  29.285  53.223  1.00  0.00    -0.056 N 
HETATM   19  H   UNL     1       4.612  30.294  53.259  1.00  0.00     0.281 HD
HETATM   20  C   UNL     1       5.535  28.703  52.368  1.00  0.00     0.256 C 
HETATM   21  C   UNL     1       5.548  29.354  50.959  1.00  0.00     0.152 C 
HETATM   22  N   UNL     1       4.220  29.256  50.306  1.00  0.00    -0.364 N 
HETATM   23  C   UNL     1       3.104  29.789  51.131  1.00  0.00     0.152 C 
HETATM   24  C   UNL     1       3.059  29.148  52.542  1.00  0.00     0.256 C 
BRANCH  22  25
HETATM   25  C   UNL     1       3.990  28.217  49.417  1.00  0.00     0.102 A 
HETATM   26  N   UNL     1       2.715  27.884  49.134  1.00  0.00    -0.352 N 
HETATM   27  H   UNL     1       1.977  28.375  49.630  1.00  0.00     0.166 HD
HETATM   28  C   UNL     1       2.363  26.890  48.303  1.00  0.00     0.089 A 
HETATM   29  C   UNL     1       3.335  26.120  47.688  1.00  0.00     0.017 A 
HETATM   30  C   UNL     1       4.665  26.388  47.965  1.00  0.00     0.005 A 
HETATM   31  C   UNL     1       4.994  27.430  48.833  1.00  0.00     0.048 A 
ENDBRANCH  22  25
ENDBRANCH   1  18
BRANCH   1  32
HETATM   32  C   UNL     1       4.077  30.011  55.669  1.00  0.00    -0.005 A 
HETATM   33  C   UNL     1       4.207  31.319  55.191  1.00  0.00     0.125 A 
HETATM   34  N   UNL     1       4.041  32.433  55.929  1.00  0.00    -0.273 NA
HETATM   35  C   UNL     1       3.657  32.273  57.210  1.00  0.00     0.116 A 
HETATM   36  C   UNL     1       3.458  31.034  57.785  1.00  0.00     0.020 A 
HETATM   37  C   UNL     1       3.671  29.893  57.006  1.00  0.00     0.012 A 
ENDBRANCH   1  32
TORSDOF 6
ENDMDL
MODEL 4
REMARK VINA RESULT:      -7.8      3.547      6.304
REMARK  6 active torsions:
REMARK  status: ('A' for Active; 'I' for Inactive)
REMARK    1  A    between atoms: C_3  and  C_4 
REMARK    2  A    between atoms: C_4  and  N_5 
REMARK    3  A    between atoms: C_4  and  C_19 
REMARK    4  A    between atoms: N_9  and  C_10 
REMARK    5  A    between atoms: C_25  and  N_26 
REMARK       I    between atoms: N_26  and  C_27 
REMARK    6  A    between atoms: C_27  and  C_28 
ROOT
HETATM    1  C   UNL     1       5.181  28.264  56.108  1.00  0.00     0.259 C 
ENDROOT
BRANCH   1   2
HETATM    2  C   UNL     1       5.421  29.582  56.831  1.00  0.00     0.018 A 
HETATM    3  C   UNL     1       4.316  30.469  57.220  1.00  0.00    -0.038 A 
HETATM    4  C   UNL     1       2.867  30.238  56.885  1.00  0.00     0.050 C 
HETATM    5  C   UNL     1       4.759  31.568  57.939  1.00  0.00    -0.013 A 
HETATM    6  S   UNL     1       6.447  31.583  58.103  1.00  0.00    -0.076 SA
HETATM    7  C   UNL     1       3.959  32.692  58.524  1.00  0.00     0.057 C 
HETATM    8  C   UNL     1       6.627  30.112  57.280  1.00  0.00     0.086 A 
BRANCH   8   9
HETATM    9  N   UNL     1       7.908  29.687  57.001  1.00  0.00    -0.315 N 
HETATM   10  C   UNL     1       9.112  30.067  57.573  1.00  0.00     0.280 C 
HETATM   11  O   UNL     1      10.125  29.740  56.950  1.00  0.00    -0.265 OA
HETATM   12  H   UNL     1       8.055  29.175  56.142  1.00  0.00     0.170 HD
BRANCH  10  13
HETATM   13  C   UNL     1       9.171  30.636  58.902  1.00  0.00     0.142 A 
HETATM   14  O   UNL     1       8.739  29.911  59.987  1.00  0.00    -0.317 OA
HETATM   15  C   UNL     1       8.897  30.703  61.081  1.00  0.00     0.143 A 
HETATM   16  C   UNL     1       9.499  31.889  60.736  1.00  0.00     0.027 A 
HETATM   17  C   UNL     1       9.699  31.837  59.338  1.00  0.00     0.045 A 
ENDBRANCH  10  13
ENDBRANCH   8   9
ENDBRANCH   1   2
BRANCH   1  18
HETATM   18  N   UNL     1       5.986  27.027  56.553  1.00  0.00    -0.056 N 
HETATM   19  H   UNL     1       6.075  27.153  57.568  1.00  0.00     0.281 HD
HETATM   20  C   UNL     1       5.333  25.666  56.379  1.00  0.00     0.256 C 
HETATM   21  C   UNL     1       6.189  24.554  57.042  1.00  0.00     0.152 C 
HETATM   22  N   UNL     1       7.587  24.580  56.547  1.00  0.00    -0.364 N 
HETATM   23  C   UNL     1       8.244  25.907  56.675  1.00  0.00     0.152 C 
HETATM   24  C   UNL     1       7.416  27.037  56.011  1.00  0.00     0.256 C 
BRANCH  22  25
HETATM   25  C   UNL     1       7.944  23.725  55.516  1.00  0.00     0.102 A 
HETATM   26  N   UNL     1       8.825  22.739  55.774  1.00  0.00    -0.352 N 
HETATM   27  H   UNL     1       9.232  22.701  56.705  1.00  0.00     0.166 HD
HETATM   28  C   UNL     1       9.261  21.858  54.859  1.00  0.00     0.089 A 
HETATM   29  C   UNL     1       8.818  21.938  53.551  1.00  0.00     0.017 A 
HETATM   30  C   UNL     1       7.937  22.952  53.210  1.00  0.00     0.005 A 
HETATM   31  C   UNL     1       7.506  23.849  54.188  1.00  0.00     0.048 A 
ENDBRANCH  22  25
ENDBRANCH   1  18
BRANCH   1  32
HETATM   32  C   UNL     1       5.111  28.468  54.607  1.00  0.00    -0.005 A 
HETATM   33  C   UNL     1       6.308  28.407  53.886  1.00  0.00     0.125 A 
HETATM   34  N   UNL     1       6.428  28.631  52.564  1.00  0.00    -0.273 NA
HETATM   35  C   UNL     1       5.296  28.867  51.873  1.00  0.00     0.116 A 
HETATM   36  C   UNL     1       4.051  28.912  52.467  1.00  0.00     0.020 A 
HETATM   37  C   UNL     1       3.959  28.712  53.847  1.00  0.00     0.012 A 
ENDBRANCH   1  32
TORSDOF 6
ENDMDL
MODEL 5
REMARK VINA RESULT:      -7.6      4.008      6.977
REMARK  6 active torsions:
REMARK  status: ('A' for Active; 'I' for Inactive)
REMARK    1  A    between atoms: C_3  and  C_4 
REMARK    2  A    between atoms: C_4  and  N_5 
REMARK    3  A    between atoms: C_4  and  C_19 
REMARK    4  A    between atoms: N_9  and  C_10 
REMARK    5  A    between atoms: C_25  and  N_26 
REMARK       I    between atoms: N_26  and  C_27 
REMARK    6  A    between atoms: C_27  and  C_28 
ROOT
HETATM    1  C   UNL     1       5.864  28.685  53.881  1.00  0.00     0.259 C 
ENDROOT
BRANCH   1   2
HETATM    2  C   UNL     1       5.482  29.270  55.233  1.00  0.00     0.018 A 
HETATM    3  C   UNL     1       4.714  30.518  55.352  1.00  0.00    -0.038 A 
HETATM    4  C   UNL     1       4.302  31.390  54.198  1.00  0.00     0.050 C 
HETATM    5  C   UNL     1       4.407  30.815  56.671  1.00  0.00    -0.013 A 
HETATM    6  S   UNL     1       5.059  29.679  57.748  1.00  0.00    -0.076 SA
HETATM    7  C   UNL     1       3.637  31.979  57.216  1.00  0.00     0.057 C 
HETATM    8  C   UNL     1       5.710  28.738  56.498  1.00  0.00     0.086 A 
BRANCH   8   9
HETATM    9  N   UNL     1       6.513  27.674  56.850  1.00  0.00    -0.315 N 
HETATM   10  C   UNL     1       7.870  27.640  57.125  1.00  0.00     0.280 C 
HETATM   11  O   UNL     1       8.384  26.520  57.140  1.00  0.00    -0.265 OA
HETATM   12  H   UNL     1       6.143  26.743  56.711  1.00  0.00     0.170 HD
BRANCH  10  13
HETATM   13  C   UNL     1       8.583  28.824  57.554  1.00  0.00     0.142 A 
HETATM   14  O   UNL     1       8.369  29.348  58.807  1.00  0.00    -0.317 OA
HETATM   15  C   UNL     1       9.154  30.453  58.914  1.00  0.00     0.143 A 
HETATM   16  C   UNL     1       9.932  30.604  57.791  1.00  0.00     0.027 A 
HETATM   17  C   UNL     1       9.584  29.542  56.925  1.00  0.00     0.045 A 
ENDBRANCH  10  13
ENDBRANCH   8   9
ENDBRANCH   1   2
BRANCH   1  18
HETATM   18  N   UNL     1       5.038  29.095  52.645  1.00  0.00    -0.056 N 
HETATM   19  H   UNL     1       4.800  30.075  52.833  1.00  0.00     0.281 HD
HETATM   20  C   UNL     1       5.749  29.111  51.302  1.00  0.00     0.256 C 
HETATM   21  C   UNL     1       4.838  29.721  50.203  1.00  0.00     0.152 C 
HETATM   22  N   UNL     1       3.527  29.031  50.143  1.00  0.00    -0.364 N 
HETATM   23  C   UNL     1       2.821  28.970  51.449  1.00  0.00     0.152 C 
HETATM   24  C   UNL     1       3.703  28.354  52.565  1.00  0.00     0.256 C 
BRANCH  22  25
HETATM   25  C   UNL     1       3.348  28.020  49.210  1.00  0.00     0.102 A 
HETATM   26  N   UNL     1       2.091  27.663  48.883  1.00  0.00    -0.352 N 
HETATM   27  H   UNL     1       1.327  28.114  49.378  1.00  0.00     0.166 HD
HETATM   28  C   UNL     1       1.787  26.692  48.006  1.00  0.00     0.089 A 
HETATM   29  C   UNL     1       2.794  25.974  47.387  1.00  0.00     0.017 A 
HETATM   30  C   UNL     1       4.110  26.268  47.707  1.00  0.00     0.005 A 
HETATM   31  C   UNL     1       4.388  27.284  48.621  1.00  0.00     0.048 A 
ENDBRANCH  22  25
ENDBRANCH   1  18
BRANCH   1  32
HETATM   32  C   UNL     1       6.149  27.200  53.988  1.00  0.00    -0.005 A 
HETATM   33  C   UNL     1       7.435  26.759  53.657  1.00  0.00     0.125 A 
HETATM   34  N   UNL     1       7.830  25.472  53.636  1.00  0.00    -0.273 NA
HETATM   35  C   UNL     1       6.935  24.545  54.027  1.00  0.00     0.116 A 
HETATM   36  C   UNL     1       5.649  24.860  54.415  1.00  0.00     0.020 A 
HETATM   37  C   UNL     1       5.253  26.201  54.394  1.00  0.00     0.012 A 
ENDBRANCH   1  32
TORSDOF 6
ENDMDL
MODEL 6
REMARK VINA RESULT:      -7.4      5.282      9.878
REMARK  6 active torsions:
REMARK  status: ('A' for Active; 'I' for Inactive)
REMARK    1  A    between atoms: C_3  and  C_4 
REMARK    2  A    between atoms: C_4  and  N_5 
REMARK    3  A    between atoms: C_4  and  C_19 
REMARK    4  A    between atoms: N_9  and  C_10 
REMARK    5  A    between atoms: C_25  and  N_26 
REMARK       I    between atoms: N_26  and  C_27 
REMARK    6  A    between atoms: C_27  and  C_28 
ROOT
HETATM    1  C   UNL     1       5.396  29.416  52.251  1.00  0.00     0.259 C 
ENDROOT
BRANCH   1   2
HETATM    2  C   UNL     1       5.170  28.494  51.061  1.00  0.00     0.018 A 
HETATM    3  C   UNL     1       5.463  28.916  49.683  1.00  0.00    -0.038 A 
HETATM    4  C   UNL     1       5.920  30.292  49.283  1.00  0.00     0.050 C 
HETATM    5  C   UNL     1       5.264  27.891  48.772  1.00  0.00    -0.013 A 
HETATM    6  S   UNL     1       4.689  26.480  49.517  1.00  0.00    -0.076 SA
HETATM    7  C   UNL     1       5.457  27.904  47.286  1.00  0.00     0.057 C 
HETATM    8  C   UNL     1       4.746  27.169  51.065  1.00  0.00     0.086 A 
BRANCH   8   9
HETATM    9  N   UNL     1       4.228  26.436  52.111  1.00  0.00    -0.315 N 
HETATM   10  C   UNL     1       4.738  25.314  52.745  1.00  0.00     0.280 C 
HETATM   11  O   UNL     1       3.944  24.699  53.460  1.00  0.00    -0.265 OA
HETATM   12  H   UNL     1       3.258  26.586  52.352  1.00  0.00     0.170 HD
BRANCH  10  13
HETATM   13  C   UNL     1       6.152  25.006  52.715  1.00  0.00     0.142 A 
HETATM   14  O   UNL     1       6.719  24.256  53.717  1.00  0.00    -0.317 OA
HETATM   15  C   UNL     1       8.044  24.150  53.430  1.00  0.00     0.143 A 
HETATM   16  C   UNL     1       8.327  24.744  52.224  1.00  0.00     0.027 A 
HETATM   17  C   UNL     1       7.105  25.274  51.750  1.00  0.00     0.045 A 
ENDBRANCH  10  13
ENDBRANCH   8   9
ENDBRANCH   1   2
BRANCH   1  18
HETATM   18  N   UNL     1       5.662  28.780  53.630  1.00  0.00    -0.056 N 
HETATM   19  H   UNL     1       5.070  27.941  53.623  1.00  0.00     0.281 HD
HETATM   20  C   UNL     1       7.067  28.271  53.907  1.00  0.00     0.256 C 
HETATM   21  C   UNL     1       7.119  27.498  55.252  1.00  0.00     0.152 C 
HETATM   22  N   UNL     1       6.581  28.316  56.367  1.00  0.00    -0.364 N 
HETATM   23  C   UNL     1       5.219  28.856  56.112  1.00  0.00     0.152 C 
HETATM   24  C   UNL     1       5.140  29.643  54.779  1.00  0.00     0.256 C 
BRANCH  22  25
HETATM   25  C   UNL     1       7.469  29.022  57.164  1.00  0.00     0.102 A 
HETATM   26  N   UNL     1       6.975  29.769  58.170  1.00  0.00    -0.352 N 
HETATM   27  H   UNL     1       5.965  29.826  58.265  1.00  0.00     0.166 HD
HETATM   28  C   UNL     1       7.728  30.509  59.000  1.00  0.00     0.089 A 
HETATM   29  C   UNL     1       9.102  30.550  58.842  1.00  0.00     0.017 A 
HETATM   30  C   UNL     1       9.671  29.831  57.803  1.00  0.00     0.005 A 
HETATM   31  C   UNL     1       8.857  29.074  56.960  1.00  0.00     0.048 A 
ENDBRANCH  22  25
ENDBRANCH   1  18
BRANCH   1  32
HETATM   32  C   UNL     1       4.393  30.553  52.260  1.00  0.00    -0.005 A 
HETATM   33  C   UNL     1       3.079  30.263  51.877  1.00  0.00     0.125 A 
HETATM   34  N   UNL     1       2.088  31.167  51.767  1.00  0.00    -0.273 NA
HETATM   35  C   UNL     1       2.369  32.437  52.117  1.00  0.00     0.116 A 
HETATM   36  C   UNL     1       3.617  32.837  52.549  1.00  0.00     0.020 A 
HETATM   37  C   UNL     1       4.638  31.886  52.620  1.00  0.00     0.012 A 
ENDBRANCH   1  32
TORSDOF 6
ENDMDL
MODEL 7
REMARK VINA RESULT:      -7.3      3.258      5.762
REMARK  6 active torsions:
REMARK  status: ('A' for Active; 'I' for Inactive)
REMARK    1  A    between atoms: C_3  and  C_4 
REMARK    2  A    between atoms: C_4  and  N_5 
REMARK    3  A    between atoms: C_4  and  C_19 
REMARK    4  A    between atoms: N_9  and  C_10 
REMARK    5  A    between atoms: C_25  and  N_26 
REMARK       I    between atoms: N_26  and  C_27 
REMARK    6  A    between atoms: C_27  and  C_28 
ROOT
HETATM    1  C   UNL     1       4.614  34.969  61.195  1.00  0.00     0.259 C 
ENDROOT
BRANCH   1   2
HETATM    2  C   UNL     1       4.073  36.386  61.068  1.00  0.00     0.018 A 
HETATM    3  C   UNL     1       4.875  37.562  61.438  1.00  0.00    -0.038 A 
HETATM    4  C   UNL     1       6.248  37.509  62.050  1.00  0.00     0.050 C 
HETATM    5  C   UNL     1       4.217  38.749  61.160  1.00  0.00    -0.013 A 
HETATM    6  S   UNL     1       2.664  38.483  60.532  1.00  0.00    -0.076 SA
HETATM    7  C   UNL     1       4.686  40.156  61.374  1.00  0.00     0.057 C 
HETATM    8  C   UNL     1       2.847  36.798  60.556  1.00  0.00     0.086 A 
BRANCH   8   9
HETATM    9  N   UNL     1       1.748  36.030  60.238  1.00  0.00    -0.315 N 
HETATM   10  C   UNL     1       1.100  35.870  59.023  1.00  0.00     0.280 C 
HETATM   11  O   UNL     1      -0.015  35.347  59.078  1.00  0.00    -0.265 OA
HETATM   12  H   UNL     1       1.191  35.671  61.001  1.00  0.00     0.170 HD
BRANCH  10  13
HETATM   13  C   UNL     1       1.774  36.124  57.768  1.00  0.00     0.142 A 
HETATM   14  O   UNL     1       1.872  35.133  56.820  1.00  0.00    -0.317 OA
HETATM   15  C   UNL     1       2.565  35.655  55.772  1.00  0.00     0.143 A 
HETATM   16  C   UNL     1       2.842  36.983  55.989  1.00  0.00     0.027 A 
HETATM   17  C   UNL     1       2.312  37.293  57.263  1.00  0.00     0.045 A 
ENDBRANCH  10  13
ENDBRANCH   8   9
ENDBRANCH   1   2
BRANCH   1  18
HETATM   18  N   UNL     1       4.129  33.906  60.190  1.00  0.00    -0.056 N 
HETATM   19  H   UNL     1       3.140  34.144  60.052  1.00  0.00     0.281 HD
HETATM   20  C   UNL     1       4.739  33.929  58.798  1.00  0.00     0.256 C 
HETATM   21  C   UNL     1       4.014  32.926  57.861  1.00  0.00     0.152 C 
HETATM   22  N   UNL     1       3.984  31.564  58.447  1.00  0.00    -0.364 N 
HETATM   23  C   UNL     1       3.422  31.513  59.821  1.00  0.00     0.152 C 
HETATM   24  C   UNL     1       4.135  32.497  60.783  1.00  0.00     0.256 C 
BRANCH  22  25
HETATM   25  C   UNL     1       4.955  30.652  58.060  1.00  0.00     0.102 A 
HETATM   26  N   UNL     1       4.566  29.412  57.702  1.00  0.00    -0.352 N 
HETATM   27  H   UNL     1       3.579  29.184  57.787  1.00  0.00     0.166 HD
HETATM   28  C   UNL     1       5.408  28.437  57.325  1.00  0.00     0.089 A 
HETATM   29  C   UNL     1       6.772  28.667  57.299  1.00  0.00     0.017 A 
HETATM   30  C   UNL     1       7.241  29.911  57.690  1.00  0.00     0.005 A 
HETATM   31  C   UNL     1       6.336  30.900  58.076  1.00  0.00     0.048 A 
ENDBRANCH  22  25
ENDBRANCH   1  18
BRANCH   1  32
HETATM   32  C   UNL     1       4.624  34.515  62.642  1.00  0.00    -0.005 A 
HETATM   33  C   UNL     1       3.404  34.510  63.329  1.00  0.00     0.125 A 
HETATM   34  N   UNL     1       3.251  34.199  64.630  1.00  0.00    -0.273 NA
HETATM   35  C   UNL     1       4.347  33.801  65.303  1.00  0.00     0.116 A 
HETATM   36  C   UNL     1       5.598  33.727  64.724  1.00  0.00     0.020 A 
HETATM   37  C   UNL     1       5.736  34.089  63.381  1.00  0.00     0.012 A 
ENDBRANCH   1  32
TORSDOF 6
ENDMDL
MODEL 8
REMARK VINA RESULT:      -7.3      4.569      8.937
REMARK  6 active torsions:
REMARK  status: ('A' for Active; 'I' for Inactive)
REMARK    1  A    between atoms: C_3  and  C_4 
REMARK    2  A    between atoms: C_4  and  N_5 
REMARK    3  A    between atoms: C_4  and  C_19 
REMARK    4  A    between atoms: N_9  and  C_10 
REMARK    5  A    between atoms: C_25  and  N_26 
REMARK       I    between atoms: N_26  and  C_27 
REMARK    6  A    between atoms: C_27  and  C_28 
ROOT
HETATM    1  C   UNL     1       5.505  28.608  55.509  1.00  0.00     0.259 C 
ENDROOT
BRANCH   1   2
HETATM    2  C   UNL     1       5.631  27.699  54.295  1.00  0.00     0.018 A 
HETATM    3  C   UNL     1       5.624  26.234  54.416  1.00  0.00    -0.038 A 
HETATM    4  C   UNL     1       5.583  25.477  55.715  1.00  0.00     0.050 C 
HETATM    5  C   UNL     1       5.665  25.610  53.178  1.00  0.00    -0.013 A 
HETATM    6  S   UNL     1       5.768  26.727  51.906  1.00  0.00    -0.076 SA
HETATM    7  C   UNL     1       5.662  24.145  52.865  1.00  0.00     0.057 C 
HETATM    8  C   UNL     1       5.701  28.058  52.953  1.00  0.00     0.086 A 
BRANCH   8   9
HETATM    9  N   UNL     1       5.886  29.311  52.408  1.00  0.00    -0.315 N 
HETATM   10  C   UNL     1       5.274  29.900  51.313  1.00  0.00     0.280 C 
HETATM   11  O   UNL     1       5.821  30.916  50.878  1.00  0.00    -0.265 OA
HETATM   12  H   UNL     1       6.705  29.830  52.694  1.00  0.00     0.170 HD
BRANCH  10  13
HETATM   13  C   UNL     1       3.978  29.457  50.843  1.00  0.00     0.142 A 
HETATM   14  O   UNL     1       3.865  28.797  49.643  1.00  0.00    -0.317 OA
HETATM   15  C   UNL     1       2.544  28.528  49.462  1.00  0.00     0.143 A 
HETATM   16  C   UNL     1       1.816  28.926  50.558  1.00  0.00     0.027 A 
HETATM   17  C   UNL     1       2.741  29.501  51.458  1.00  0.00     0.045 A 
ENDBRANCH  10  13
ENDBRANCH   8   9
ENDBRANCH   1   2
BRANCH   1  18
HETATM   18  N   UNL     1       4.639  29.877  55.388  1.00  0.00    -0.056 N 
HETATM   19  H   UNL     1       4.280  29.829  54.427  1.00  0.00     0.281 HD
HETATM   20  C   UNL     1       3.403  29.969  56.268  1.00  0.00     0.256 C 
HETATM   21  C   UNL     1       2.548  31.209  55.892  1.00  0.00     0.152 C 
HETATM   22  N   UNL     1       3.358  32.452  55.917  1.00  0.00    -0.364 N 
HETATM   23  C   UNL     1       4.590  32.382  55.090  1.00  0.00     0.152 C 
HETATM   24  C   UNL     1       5.471  31.159  55.452  1.00  0.00     0.256 C 
BRANCH  22  25
HETATM   25  C   UNL     1       3.330  33.241  57.057  1.00  0.00     0.102 A 
HETATM   26  N   UNL     1       3.781  32.715  58.213  1.00  0.00    -0.352 N 
HETATM   27  H   UNL     1       4.069  31.741  58.209  1.00  0.00     0.166 HD
HETATM   28  C   UNL     1       3.792  33.370  59.385  1.00  0.00     0.089 A 
HETATM   29  C   UNL     1       3.308  34.664  59.464  1.00  0.00     0.017 A 
HETATM   30  C   UNL     1       2.797  35.251  58.317  1.00  0.00     0.005 A 
HETATM   31  C   UNL     1       2.801  34.540  57.117  1.00  0.00     0.048 A 
ENDBRANCH  22  25
ENDBRANCH   1  18
BRANCH   1  32
HETATM   32  C   UNL     1       6.850  28.821  56.176  1.00  0.00    -0.005 A 
HETATM   33  C   UNL     1       6.889  28.826  57.575  1.00  0.00     0.125 A 
HETATM   34  N   UNL     1       7.985  29.065  58.318  1.00  0.00    -0.273 NA
HETATM   35  C   UNL     1       9.147  29.250  57.662  1.00  0.00     0.116 A 
HETATM   36  C   UNL     1       9.243  29.227  56.285  1.00  0.00     0.020 A 
HETATM   37  C   UNL     1       8.083  29.012  55.536  1.00  0.00     0.012 A 
ENDBRANCH   1  32
TORSDOF 6
ENDMDL
MODEL 9
REMARK VINA RESULT:      -7.2      2.902      4.997
REMARK  6 active torsions:
REMARK  status: ('A' for Active; 'I' for Inactive)
REMARK    1  A    between atoms: C_3  and  C_4 
REMARK    2  A    between atoms: C_4  and  N_5 
REMARK    3  A    between atoms: C_4  and  C_19 
REMARK    4  A    between atoms: N_9  and  C_10 
REMARK    5  A    between atoms: C_25  and  N_26 
REMARK       I    between atoms: N_26  and  C_27 
REMARK    6  A    between atoms: C_27  and  C_28 
ROOT
HETATM    1  C   UNL     1       6.038  29.623  56.335  1.00  0.00     0.259 C 
ENDROOT
BRANCH   1   2
HETATM    2  C   UNL     1       5.780  30.553  57.512  1.00  0.00     0.018 A 
HETATM    3  C   UNL     1       4.425  30.797  58.029  1.00  0.00    -0.038 A 
HETATM    4  C   UNL     1       3.161  30.249  57.424  1.00  0.00     0.050 C 
HETATM    5  C   UNL     1       4.436  31.607  59.154  1.00  0.00    -0.013 A 
HETATM    6  S   UNL     1       6.002  32.116  59.557  1.00  0.00    -0.076 SA
HETATM    7  C   UNL     1       3.279  32.080  59.981  1.00  0.00     0.057 C 
HETATM    8  C   UNL     1       6.709  31.232  58.294  1.00  0.00     0.086 A 
BRANCH   8   9
HETATM    9  N   UNL     1       8.059  31.401  58.072  1.00  0.00    -0.315 N 
HETATM   10  C   UNL     1       9.070  31.720  58.963  1.00  0.00     0.280 C 
HETATM   11  O   UNL     1      10.135  32.081  58.456  1.00  0.00    -0.265 OA
HETATM   12  H   UNL     1       8.366  31.506  57.115  1.00  0.00     0.170 HD
BRANCH  10  13
HETATM   13  C   UNL     1       8.938  31.461  60.381  1.00  0.00     0.142 A 
HETATM   14  O   UNL     1       9.034  30.177  60.863  1.00  0.00    -0.317 OA
HETATM   15  C   UNL     1       8.852  30.245  62.209  1.00  0.00     0.143 A 
HETATM   16  C   UNL     1       8.725  31.552  62.615  1.00  0.00     0.027 A 
HETATM   17  C   UNL     1       8.805  32.338  61.442  1.00  0.00     0.045 A 
ENDBRANCH  10  13
ENDBRANCH   8   9
ENDBRANCH   1   2
BRANCH   1  18
HETATM   18  N   UNL     1       5.129  29.740  55.096  1.00  0.00    -0.056 N 
HETATM   19  H   UNL     1       4.240  29.338  55.414  1.00  0.00     0.281 HD
HETATM   20  C   UNL     1       4.781  31.139  54.612  1.00  0.00     0.256 C 
HETATM   21  C   UNL     1       3.717  31.083  53.483  1.00  0.00     0.152 C 
HETATM   22  N   UNL     1       4.147  30.190  52.379  1.00  0.00    -0.364 N 
HETATM   23  C   UNL     1       4.526  28.824  52.824  1.00  0.00     0.152 C 
HETATM   24  C   UNL     1       5.596  28.848  53.945  1.00  0.00     0.256 C 
BRANCH  22  25
HETATM   25  C   UNL     1       4.758  30.753  51.269  1.00  0.00     0.102 A 
HETATM   26  N   UNL     1       5.215  32.018  51.358  1.00  0.00    -0.352 N 
HETATM   27  H   UNL     1       5.039  32.524  52.221  1.00  0.00     0.166 HD
HETATM   28  C   UNL     1       5.810  32.678  50.351  1.00  0.00     0.089 A 
HETATM   29  C   UNL     1       5.974  32.067  49.120  1.00  0.00     0.017 A 
HETATM   30  C   UNL     1       5.494  30.778  48.951  1.00  0.00     0.005 A 
HETATM   31  C   UNL     1       4.882  30.123  50.020  1.00  0.00     0.048 A 
ENDBRANCH  22  25
ENDBRANCH   1  18
BRANCH   1  32
HETATM   32  C   UNL     1       6.289  28.204  56.805  1.00  0.00    -0.005 A 
HETATM   33  C   UNL     1       7.566  27.896  57.290  1.00  0.00     0.125 A 
HETATM   34  N   UNL     1       7.970  26.674  57.682  1.00  0.00    -0.273 NA
HETATM   35  C   UNL     1       7.055  25.686  57.668  1.00  0.00     0.116 A 
HETATM   36  C   UNL     1       5.753  25.876  57.249  1.00  0.00     0.020 A 
HETATM   37  C   UNL     1       5.369  27.146  56.813  1.00  0.00     0.012 A 
ENDBRANCH   1  32
TORSDOF 6
ENDMDL
MODEL 10
REMARK VINA RESULT:      -7.2      5.554      9.144
REMARK  6 active torsions:
REMARK  status: ('A' for Active; 'I' for Inactive)
REMARK    1  A    between atoms: C_3  and  C_4 
REMARK    2  A    between atoms: C_4  and  N_5 
REMARK    3  A    between atoms: C_4  and  C_19 
REMARK    4  A    between atoms: N_9  and  C_10 
REMARK    5  A    between atoms: C_25  and  N_26 
REMARK       I    between atoms: N_26  and  C_27 
REMARK    6  A    between atoms: C_27  and  C_28 
ROOT
HETATM    1  C   UNL     1       5.298  29.206  55.034  1.00  0.00     0.259 C 
ENDROOT
BRANCH   1   2
HETATM    2  C   UNL     1       5.543  28.073  54.048  1.00  0.00     0.018 A 
HETATM    3  C   UNL     1       5.501  26.661  54.458  1.00  0.00    -0.038 A 
HETATM    4  C   UNL     1       5.308  26.180  55.869  1.00  0.00     0.050 C 
HETATM    5  C   UNL     1       5.666  25.803  53.382  1.00  0.00    -0.013 A 
HETATM    6  S   UNL     1       5.923  26.642  51.931  1.00  0.00    -0.076 SA
HETATM    7  C   UNL     1       5.676  24.304  53.370  1.00  0.00     0.057 C 
HETATM    8  C   UNL     1       5.763  28.156  52.676  1.00  0.00     0.086 A 
BRANCH   8   9
HETATM    9  N   UNL     1       6.023  29.275  51.915  1.00  0.00    -0.315 N 
HETATM   10  C   UNL     1       5.561  29.616  50.654  1.00  0.00     0.280 C 
HETATM   11  O   UNL     1       6.166  30.533  50.094  1.00  0.00    -0.265 OA
HETATM   12  H   UNL     1       6.801  29.859  52.192  1.00  0.00     0.170 HD
BRANCH  10  13
HETATM   13  C   UNL     1       4.336  29.059  50.122  1.00  0.00     0.142 A 
HETATM   14  O   UNL     1       4.378  28.111  49.129  1.00  0.00    -0.317 OA
HETATM   15  C   UNL     1       3.091  27.797  48.825  1.00  0.00     0.143 A 
HETATM   16  C   UNL     1       2.222  28.460  49.658  1.00  0.00     0.027 A 
HETATM   17  C   UNL     1       3.023  29.254  50.511  1.00  0.00     0.045 A 
ENDBRANCH  10  13
ENDBRANCH   8   9
ENDBRANCH   1   2
BRANCH   1  18
HETATM   18  N   UNL     1       4.796  30.557  54.489  1.00  0.00    -0.056 N 
HETATM   19  H   UNL     1       5.500  30.805  53.783  1.00  0.00     0.281 HD
HETATM   20  C   UNL     1       3.471  30.563  53.744  1.00  0.00     0.256 C 
HETATM   21  C   UNL     1       3.204  31.951  53.103  1.00  0.00     0.152 C 
HETATM   22  N   UNL     1       3.296  33.038  54.108  1.00  0.00    -0.364 N 
HETATM   23  C   UNL     1       4.569  33.040  54.876  1.00  0.00     0.152 C 
HETATM   24  C   UNL     1       4.856  31.668  55.538  1.00  0.00     0.256 C 
BRANCH  22  25
HETATM   25  C   UNL     1       2.130  33.499  54.699  1.00  0.00     0.102 A 
HETATM   26  N   UNL     1       0.958  32.948  54.324  1.00  0.00    -0.352 N 
HETATM   27  H   UNL     1       0.979  32.255  53.580  1.00  0.00     0.166 HD
HETATM   28  C   UNL     1      -0.238  33.317  54.809  1.00  0.00     0.089 A 
HETATM   29  C   UNL     1      -0.327  34.333  55.744  1.00  0.00     0.017 A 
HETATM   30  C   UNL     1       0.839  34.965  56.146  1.00  0.00     0.005 A 
HETATM   31  C   UNL     1       2.064  34.555  55.621  1.00  0.00     0.048 A 
ENDBRANCH  22  25
ENDBRANCH   1  18
BRANCH   1  32
HETATM   32  C   UNL     1       6.429  29.309  56.039  1.00  0.00    -0.005 A 
HETATM   33  C   UNL     1       7.739  29.275  55.548  1.00  0.00     0.125 A 
HETATM   34  N   UNL     1       8.851  29.289  56.308  1.00  0.00    -0.273 NA
HETATM   35  C   UNL     1       8.687  29.410  57.640  1.00  0.00     0.116 A 
HETATM   36  C   UNL     1       7.446  29.493  58.238  1.00  0.00     0.020 A 
HETATM   37  C   UNL     1       6.307  29.440  57.430  1.00  0.00     0.012 A 
ENDBRANCH   1  32
TORSDOF 6
ENDMDL
