MODEL 1
REMARK VINA RESULT:      -9.7      0.000      0.000
REMARK  7 active torsions:
REMARK  status: ('A' for Active; 'I' for Inactive)
REMARK    1  A    between atoms: O_2  and  C_3 
REMARK    2  A    between atoms: C_6  and  C_7 
REMARK       I    between atoms: C_7  and  N_8 
REMARK    3  A    between atoms: N_8  and  C_9 
REMARK    4  A    between atoms: C_9  and  C_10 
REMARK    5  A    between atoms: C_10  and  N_11 
REMARK       I    between atoms: N_11  and  C_12 
REMARK    6  A    between atoms: C_12  and  C_13 
REMARK    7  A    between atoms: C_15  and  C_16 
ROOT
HETATM    1  N   UNL     1       7.691  26.679  56.598  1.00  0.00    -0.355 N 
HETATM    2  C   UNL     1       6.804  26.502  55.557  1.00  0.00     0.251 C 
HETATM    3  O   UNL     1       5.704  27.042  55.516  1.00  0.00    -0.268 OA
HETATM    4  H   UNL     1       8.485  26.060  56.694  1.00  0.00     0.162 HD
ENDROOT
BRANCH   1   5
HETATM    5  C   UNL     1       7.356  27.511  57.740  1.00  0.00     0.142 C 
BRANCH   5   6
HETATM    6  C   UNL     1       7.870  28.948  57.594  1.00  0.00     0.142 C 
BRANCH   6   7
HETATM    7  N   UNL     1       7.549  29.782  58.737  1.00  0.00    -0.355 N 
HETATM    8  C   UNL     1       8.529  30.492  59.401  1.00  0.00     0.251 C 
HETATM    9  O   UNL     1       9.706  30.483  59.056  1.00  0.00    -0.268 OA
HETATM   10  H   UNL     1       6.574  29.971  58.920  1.00  0.00     0.162 HD
BRANCH   8  11
HETATM   11  C   UNL     1       8.092  31.314  60.564  1.00  0.00     0.032 A 
HETATM   12  C   UNL     1       8.783  31.317  61.782  1.00  0.00     0.020 A 
HETATM   13  C   UNL     1       8.351  32.127  62.841  1.00  0.00     0.038 A 
HETATM   14  C   UNL     1       7.232  32.947  62.688  1.00  0.00     0.068 A 
HETATM   15  C   UNL     1       6.547  32.948  61.470  1.00  0.00     0.038 A 
HETATM   16  C   UNL     1       6.975  32.143  60.411  1.00  0.00     0.020 A 
BRANCH  14  17
HETATM   17  O   UNL     1       6.714  33.787  63.635  1.00  0.00    -0.356 OA
HETATM   18  C   UNL     1       7.204  33.641  64.962  1.00  0.00     0.210 C 
ENDBRANCH  14  17
ENDBRANCH   8  11
ENDBRANCH   6   7
ENDBRANCH   5   6
ENDBRANCH   1   5
BRANCH   2  19
HETATM   19  C   UNL     1       7.224  25.568  54.474  1.00  0.00     0.032 A 
HETATM   20  C   UNL     1       7.471  24.229  54.813  1.00  0.00     0.029 A 
HETATM   21  C   UNL     1       7.867  23.305  53.835  1.00  0.00    -0.023 A 
HETATM   22  C   UNL     1       8.009  23.743  52.512  1.00  0.00     0.012 A 
HETATM   23  C   UNL     1       7.747  25.071  52.166  1.00  0.00     0.002 A 
HETATM   24  C   UNL     1       7.350  25.984  53.144  1.00  0.00     0.017 A 
BRANCH  21  25
HETATM   25  C   UNL     1       8.133  21.915  54.174  1.00  0.00    -0.002 A 
HETATM   26  C   UNL     1       8.502  20.942  53.265  1.00  0.00     0.153 A 
HETATM   27  O   UNL     1       8.693  19.748  53.883  1.00  0.00    -0.334 OA
HETATM   28  C   UNL     1       8.452  19.946  55.203  1.00  0.00     0.142 A 
HETATM   29  C   UNL     1       8.110  21.257  55.437  1.00  0.00     0.038 A 
ENDBRANCH  21  25
ENDBRANCH   2  19
TORSDOF 7
ENDMDL
MODEL 2
REMARK VINA RESULT:      -9.6      1.494      2.083
REMARK  7 active torsions:
REMARK  status: ('A' for Active; 'I' for Inactive)
REMARK    1  A    between atoms: O_2  and  C_3 
REMARK    2  A    between atoms: C_6  and  C_7 
REMARK       I    between atoms: C_7  and  N_8 
REMARK    3  A    between atoms: N_8  and  C_9 
REMARK    4  A    between atoms: C_9  and  C_10 
REMARK    5  A    between atoms: C_10  and  N_11 
REMARK       I    between atoms: N_11  and  C_12 
REMARK    6  A    between atoms: C_12  and  C_13 
REMARK    7  A    between atoms: C_15  and  C_16 
ROOT
HETATM    1  N   UNL     1       7.485  28.101  57.095  1.00  0.00    -0.355 N 
HETATM    2  C   UNL     1       7.522  26.727  57.196  1.00  0.00     0.251 C 
HETATM    3  O   UNL     1       7.991  26.139  58.165  1.00  0.00    -0.268 OA
HETATM    4  H   UNL     1       7.287  28.537  56.204  1.00  0.00     0.162 HD
ENDROOT
BRANCH   1   5
HETATM    5  C   UNL     1       8.034  28.949  58.140  1.00  0.00     0.142 C 
BRANCH   5   6
HETATM    6  C   UNL     1       7.500  30.384  58.077  1.00  0.00     0.142 C 
BRANCH   6   7
HETATM    7  N   UNL     1       7.188  30.930  59.384  1.00  0.00    -0.355 N 
HETATM    8  C   UNL     1       7.926  31.964  59.922  1.00  0.00     0.251 C 
HETATM    9  O   UNL     1       8.858  32.494  59.327  1.00  0.00    -0.268 OA
HETATM   10  H   UNL     1       6.312  30.658  59.808  1.00  0.00     0.162 HD
BRANCH   8  11
HETATM   11  C   UNL     1       7.524  32.446  61.273  1.00  0.00     0.032 A 
HETATM   12  C   UNL     1       6.319  33.124  61.499  1.00  0.00     0.020 A 
HETATM   13  C   UNL     1       5.969  33.537  62.791  1.00  0.00     0.038 A 
HETATM   14  C   UNL     1       6.814  33.267  63.869  1.00  0.00     0.068 A 
HETATM   15  C   UNL     1       8.013  32.586  63.643  1.00  0.00     0.038 A 
HETATM   16  C   UNL     1       8.365  32.172  62.356  1.00  0.00     0.020 A 
BRANCH  14  17
HETATM   17  O   UNL     1       6.587  33.606  65.174  1.00  0.00    -0.356 OA
HETATM   18  C   UNL     1       5.232  33.792  65.565  1.00  0.00     0.210 C 
ENDBRANCH  14  17
ENDBRANCH   8  11
ENDBRANCH   6   7
ENDBRANCH   5   6
ENDBRANCH   1   5
BRANCH   2  19
HETATM   19  C   UNL     1       6.997  25.959  56.032  1.00  0.00     0.032 A 
HETATM   20  C   UNL     1       7.488  24.662  55.819  1.00  0.00     0.029 A 
HETATM   21  C   UNL     1       7.029  23.891  54.741  1.00  0.00    -0.023 A 
HETATM   22  C   UNL     1       6.070  24.440  53.880  1.00  0.00     0.012 A 
HETATM   23  C   UNL     1       5.565  25.724  54.098  1.00  0.00     0.002 A 
HETATM   24  C   UNL     1       6.024  26.483  55.175  1.00  0.00     0.017 A 
BRANCH  21  25
HETATM   25  C   UNL     1       7.535  22.547  54.504  1.00  0.00    -0.002 A 
HETATM   26  C   UNL     1       7.572  21.544  55.454  1.00  0.00     0.153 A 
HETATM   27  O   UNL     1       8.084  20.400  54.931  1.00  0.00    -0.334 OA
HETATM   28  C   UNL     1       8.377  20.658  53.632  1.00  0.00     0.142 A 
HETATM   29  C   UNL     1       8.056  21.957  53.317  1.00  0.00     0.038 A 
ENDBRANCH  21  25
ENDBRANCH   2  19
TORSDOF 7
ENDMDL
MODEL 3
REMARK VINA RESULT:      -9.5      1.809     10.954
REMARK  7 active torsions:
REMARK  status: ('A' for Active; 'I' for Inactive)
REMARK    1  A    between atoms: O_2  and  C_3 
REMARK    2  A    between atoms: C_6  and  C_7 
REMARK       I    between atoms: C_7  and  N_8 
REMARK    3  A    between atoms: N_8  and  C_9 
REMARK    4  A    between atoms: C_9  and  C_10 
REMARK    5  A    between atoms: C_10  and  N_11 
REMARK       I    between atoms: N_11  and  C_12 
REMARK    6  A    between atoms: C_12  and  C_13 
REMARK    7  A    between atoms: C_15  and  C_16 
ROOT
HETATM    1  N   UNL     1       6.664  30.229  58.452  1.00  0.00    -0.355 N 
HETATM    2  C   UNL     1       6.782  31.541  58.856  1.00  0.00     0.251 C 
HETATM    3  O   UNL     1       6.350  32.485  58.202  1.00  0.00    -0.268 OA
HETATM    4  H   UNL     1       7.210  29.509  58.907  1.00  0.00     0.162 HD
ENDROOT
BRANCH   1   5
HETATM    5  C   UNL     1       6.030  29.883  57.191  1.00  0.00     0.142 C 
BRANCH   5   6
HETATM    6  C   UNL     1       7.042  29.469  56.117  1.00  0.00     0.142 C 
BRANCH   6   7
HETATM    7  N   UNL     1       7.111  28.033  55.928  1.00  0.00    -0.355 N 
HETATM    8  C   UNL     1       7.866  27.238  56.766  1.00  0.00     0.251 C 
HETATM    9  O   UNL     1       8.493  27.685  57.720  1.00  0.00    -0.268 OA
HETATM   10  H   UNL     1       6.454  27.612  55.287  1.00  0.00     0.162 HD
BRANCH   8  11
HETATM   11  C   UNL     1       7.870  25.775  56.481  1.00  0.00     0.032 A 
HETATM   12  C   UNL     1       8.473  24.846  57.339  1.00  0.00     0.020 A 
HETATM   13  C   UNL     1       8.430  23.477  57.044  1.00  0.00     0.038 A 
HETATM   14  C   UNL     1       7.776  23.024  55.898  1.00  0.00     0.068 A 
HETATM   15  C   UNL     1       7.170  23.951  55.047  1.00  0.00     0.038 A 
HETATM   16  C   UNL     1       7.209  25.317  55.336  1.00  0.00     0.020 A 
BRANCH  14  17
HETATM   17  O   UNL     1       7.654  21.721  55.502  1.00  0.00    -0.356 OA
HETATM   18  C   UNL     1       7.830  21.449  54.118  1.00  0.00     0.210 C 
ENDBRANCH  14  17
ENDBRANCH   8  11
ENDBRANCH   6   7
ENDBRANCH   5   6
ENDBRANCH   1   5
BRANCH   2  19
HETATM   19  C   UNL     1       7.515  31.783  60.131  1.00  0.00     0.032 A 
HETATM   20  C   UNL     1       6.778  32.195  61.251  1.00  0.00     0.029 A 
HETATM   21  C   UNL     1       7.414  32.436  62.478  1.00  0.00    -0.023 A 
HETATM   22  C   UNL     1       8.800  32.255  62.565  1.00  0.00     0.012 A 
HETATM   23  C   UNL     1       9.537  31.827  61.457  1.00  0.00     0.002 A 
HETATM   24  C   UNL     1       8.896  31.587  60.241  1.00  0.00     0.017 A 
BRANCH  21  25
HETATM   25  C   UNL     1       6.662  32.870  63.646  1.00  0.00    -0.002 A 
HETATM   26  C   UNL     1       5.318  32.625  63.850  1.00  0.00     0.153 A 
HETATM   27  O   UNL     1       4.906  33.143  65.035  1.00  0.00    -0.334 OA
HETATM   28  C   UNL     1       5.989  33.724  65.609  1.00  0.00     0.142 A 
HETATM   29  C   UNL     1       7.093  33.582  64.802  1.00  0.00     0.038 A 
ENDBRANCH  21  25
ENDBRANCH   2  19
TORSDOF 7
ENDMDL
MODEL 4
REMARK VINA RESULT:      -9.1      2.360      3.802
REMARK  7 active torsions:
REMARK  status: ('A' for Active; 'I' for Inactive)
REMARK    1  A    between atoms: O_2  and  C_3 
REMARK    2  A    between atoms: C_6  and  C_7 
REMARK       I    between atoms: C_7  and  N_8 
REMARK    3  A    between atoms: N_8  and  C_9 
REMARK    4  A    between atoms: C_9  and  C_10 
REMARK    5  A    between atoms: C_10  and  N_11 
REMARK       I    between atoms: N_11  and  C_12 
REMARK    6  A    between atoms: C_12  and  C_13 
REMARK    7  A    between atoms: C_15  and  C_16 
ROOT
HETATM    1  N   UNL     1       5.584  26.415  54.247  1.00  0.00    -0.355 N 
HETATM    2  C   UNL     1       5.688  26.071  55.577  1.00  0.00     0.251 C 
HETATM    3  O   UNL     1       4.979  26.557  56.452  1.00  0.00    -0.268 OA
HETATM    4  H   UNL     1       6.316  26.155  53.599  1.00  0.00     0.162 HD
ENDROOT
BRANCH   1   5
HETATM    5  C   UNL     1       4.625  27.412  53.799  1.00  0.00     0.142 C 
BRANCH   5   6
HETATM    6  C   UNL     1       5.241  28.811  53.682  1.00  0.00     0.142 C 
BRANCH   6   7
HETATM    7  N   UNL     1       6.093  29.148  54.807  1.00  0.00    -0.355 N 
HETATM    8  C   UNL     1       5.597  29.829  55.900  1.00  0.00     0.251 C 
HETATM    9  O   UNL     1       4.421  30.161  55.999  1.00  0.00    -0.268 OA
HETATM   10  H   UNL     1       7.005  28.717  54.849  1.00  0.00     0.162 HD
BRANCH   8  11
HETATM   11  C   UNL     1       6.559  30.129  56.998  1.00  0.00     0.032 A 
HETATM   12  C   UNL     1       6.370  31.192  57.890  1.00  0.00     0.020 A 
HETATM   13  C   UNL     1       7.287  31.420  58.925  1.00  0.00     0.038 A 
HETATM   14  C   UNL     1       8.393  30.583  59.083  1.00  0.00     0.068 A 
HETATM   15  C   UNL     1       8.576  29.520  58.196  1.00  0.00     0.038 A 
HETATM   16  C   UNL     1       7.664  29.287  57.164  1.00  0.00     0.020 A 
BRANCH  14  17
HETATM   17  O   UNL     1       9.352  30.691  60.051  1.00  0.00    -0.356 OA
HETATM   18  C   UNL     1       8.918  30.590  61.402  1.00  0.00     0.210 C 
ENDBRANCH  14  17
ENDBRANCH   8  11
ENDBRANCH   6   7
ENDBRANCH   5   6
ENDBRANCH   1   5
BRANCH   2  19
HETATM   19  C   UNL     1       6.755  25.093  55.931  1.00  0.00     0.032 A 
HETATM   20  C   UNL     1       6.946  23.987  55.090  1.00  0.00     0.029 A 
HETATM   21  C   UNL     1       7.936  23.035  55.372  1.00  0.00    -0.023 A 
HETATM   22  C   UNL     1       8.735  23.210  56.510  1.00  0.00     0.012 A 
HETATM   23  C   UNL     1       8.561  24.319  57.342  1.00  0.00     0.002 A 
HETATM   24  C   UNL     1       7.576  25.264  57.052  1.00  0.00     0.017 A 
BRANCH  21  25
HETATM   25  C   UNL     1       8.140  21.879  54.512  1.00  0.00    -0.002 A 
HETATM   26  C   UNL     1       8.583  20.645  54.947  1.00  0.00     0.153 A 
HETATM   27  O   UNL     1       8.660  19.766  53.915  1.00  0.00    -0.334 OA
HETATM   28  C   UNL     1       8.260  20.430  52.802  1.00  0.00     0.142 A 
HETATM   29  C   UNL     1       7.925  21.728  53.112  1.00  0.00     0.038 A 
ENDBRANCH  21  25
ENDBRANCH   2  19
TORSDOF 7
ENDMDL
MODEL 5
REMARK VINA RESULT:      -9.1      1.906      9.998
REMARK  7 active torsions:
REMARK  status: ('A' for Active; 'I' for Inactive)
REMARK    1  A    between atoms: O_2  and  C_3 
REMARK    2  A    between atoms: C_6  and  C_7 
REMARK       I    between atoms: C_7  and  N_8 
REMARK    3  A    between atoms: N_8  and  C_9 
REMARK    4  A    between atoms: C_9  and  C_10 
REMARK    5  A    between atoms: C_10  and  N_11 
REMARK       I    between atoms: N_11  and  C_12 
REMARK    6  A    between atoms: C_12  and  C_13 
REMARK    7  A    between atoms: C_15  and  C_16 
ROOT
HETATM    1  N   UNL     1       6.268  29.032  55.020  1.00  0.00    -0.355 N 
HETATM    2  C   UNL     1       6.780  28.504  56.185  1.00  0.00     0.251 C 
HETATM    3  O   UNL     1       6.290  27.533  56.752  1.00  0.00    -0.268 OA
HETATM    4  H   UNL     1       6.567  29.945  54.705  1.00  0.00     0.162 HD
ENDROOT
BRANCH   1   5
HETATM    5  C   UNL     1       5.079  28.473  54.398  1.00  0.00     0.142 C 
BRANCH   5   6
HETATM    6  C   UNL     1       5.394  27.702  53.111  1.00  0.00     0.142 C 
BRANCH   6   7
HETATM    7  N   UNL     1       5.752  26.317  53.356  1.00  0.00    -0.355 N 
HETATM    8  C   UNL     1       7.068  25.938  53.519  1.00  0.00     0.251 C 
HETATM    9  O   UNL     1       7.999  26.736  53.494  1.00  0.00    -0.268 OA
HETATM   10  H   UNL     1       5.007  25.674  53.583  1.00  0.00     0.162 HD
BRANCH   8  11
HETATM   11  C   UNL     1       7.326  24.490  53.762  1.00  0.00     0.032 A 
HETATM   12  C   UNL     1       7.756  23.625  52.748  1.00  0.00     0.020 A 
HETATM   13  C   UNL     1       8.011  22.276  53.029  1.00  0.00     0.038 A 
HETATM   14  C   UNL     1       7.848  21.783  54.324  1.00  0.00     0.068 A 
HETATM   15  C   UNL     1       7.425  22.649  55.335  1.00  0.00     0.038 A 
HETATM   16  C   UNL     1       7.170  23.995  55.061  1.00  0.00     0.020 A 
BRANCH  14  17
HETATM   17  O   UNL     1       8.071  20.497  54.730  1.00  0.00    -0.356 OA
HETATM   18  C   UNL     1       8.529  20.312  56.064  1.00  0.00     0.210 C 
ENDBRANCH  14  17
ENDBRANCH   8  11
ENDBRANCH   6   7
ENDBRANCH   5   6
ENDBRANCH   1   5
BRANCH   2  19
HETATM   19  C   UNL     1       7.958  29.203  56.773  1.00  0.00     0.032 A 
HETATM   20  C   UNL     1       7.817  29.785  58.042  1.00  0.00     0.029 A 
HETATM   21  C   UNL     1       8.892  30.454  58.646  1.00  0.00    -0.023 A 
HETATM   22  C   UNL     1      10.110  30.530  57.959  1.00  0.00     0.012 A 
HETATM   23  C   UNL     1      10.261  29.936  56.703  1.00  0.00     0.002 A 
HETATM   24  C   UNL     1       9.188  29.270  56.110  1.00  0.00     0.017 A 
BRANCH  21  25
HETATM   25  C   UNL     1       8.757  31.068  59.958  1.00  0.00    -0.002 A 
HETATM   26  C   UNL     1       9.209  30.507  61.137  1.00  0.00     0.153 A 
HETATM   27  O   UNL     1       8.951  31.322  62.192  1.00  0.00    -0.334 OA
HETATM   28  C   UNL     1       8.333  32.423  61.696  1.00  0.00     0.142 A 
HETATM   29  C   UNL     1       8.193  32.322  60.332  1.00  0.00     0.038 A 
ENDBRANCH  21  25
ENDBRANCH   2  19
TORSDOF 7
ENDMDL
MODEL 6
REMARK VINA RESULT:      -8.8      2.144     11.650
REMARK  7 active torsions:
REMARK  status: ('A' for Active; 'I' for Inactive)
REMARK    1  A    between atoms: O_2  and  C_3 
REMARK    2  A    between atoms: C_6  and  C_7 
REMARK       I    between atoms: C_7  and  N_8 
REMARK    3  A    between atoms: N_8  and  C_9 
REMARK    4  A    between atoms: C_9  and  C_10 
REMARK    5  A    between atoms: C_10  and  N_11 
REMARK       I    between atoms: N_11  and  C_12 
REMARK    6  A    between atoms: C_12  and  C_13 
REMARK    7  A    between atoms: C_15  and  C_16 
ROOT
HETATM    1  N   UNL     1       7.791  30.513  59.778  1.00  0.00    -0.355 N 
HETATM    2  C   UNL     1       8.259  31.773  60.084  1.00  0.00     0.251 C 
HETATM    3  O   UNL     1       9.055  32.382  59.376  1.00  0.00    -0.268 OA
HETATM    4  H   UNL     1       7.310  29.969  60.481  1.00  0.00     0.162 HD
ENDROOT
BRANCH   1   5
HETATM    5  C   UNL     1       8.242  29.810  58.588  1.00  0.00     0.142 C 
BRANCH   5   6
HETATM    6  C   UNL     1       7.085  29.200  57.790  1.00  0.00     0.142 C 
BRANCH   6   7
HETATM    7  N   UNL     1       7.226  27.769  57.595  1.00  0.00    -0.355 N 
HETATM    8  C   UNL     1       7.517  27.242  56.354  1.00  0.00     0.251 C 
HETATM    9  O   UNL     1       7.698  27.940  55.362  1.00  0.00    -0.268 OA
HETATM   10  H   UNL     1       7.285  27.188  58.419  1.00  0.00     0.162 HD
BRANCH   8  11
HETATM   11  C   UNL     1       7.637  25.760  56.264  1.00  0.00     0.032 A 
HETATM   12  C   UNL     1       7.017  25.018  55.250  1.00  0.00     0.020 A 
HETATM   13  C   UNL     1       7.179  23.627  55.189  1.00  0.00     0.038 A 
HETATM   14  C   UNL     1       7.968  22.969  56.133  1.00  0.00     0.068 A 
HETATM   15  C   UNL     1       8.590  23.711  57.140  1.00  0.00     0.038 A 
HETATM   16  C   UNL     1       8.433  25.097  57.204  1.00  0.00     0.020 A 
BRANCH  14  17
HETATM   17  O   UNL     1       8.212  21.624  56.180  1.00  0.00    -0.356 OA
HETATM   18  C   UNL     1       8.209  20.925  54.942  1.00  0.00     0.210 C 
ENDBRANCH  14  17
ENDBRANCH   8  11
ENDBRANCH   6   7
ENDBRANCH   5   6
ENDBRANCH   1   5
BRANCH   2  19
HETATM   19  C   UNL     1       7.785  32.367  61.366  1.00  0.00     0.032 A 
HETATM   20  C   UNL     1       6.600  33.118  61.349  1.00  0.00     0.029 A 
HETATM   21  C   UNL     1       6.104  33.699  62.526  1.00  0.00    -0.023 A 
HETATM   22  C   UNL     1       6.814  33.515  63.719  1.00  0.00     0.012 A 
HETATM   23  C   UNL     1       7.986  32.754  63.744  1.00  0.00     0.002 A 
HETATM   24  C   UNL     1       8.470  32.176  62.570  1.00  0.00     0.017 A 
BRANCH  21  25
HETATM   25  C   UNL     1       4.880  34.486  62.521  1.00  0.00    -0.002 A 
HETATM   26  C   UNL     1       3.616  33.972  62.739  1.00  0.00     0.153 A 
HETATM   27  O   UNL     1       2.679  34.953  62.686  1.00  0.00    -0.334 OA
HETATM   28  C   UNL     1       3.336  36.113  62.439  1.00  0.00     0.142 A 
HETATM   29  C   UNL     1       4.688  35.885  62.333  1.00  0.00     0.038 A 
ENDBRANCH  21  25
ENDBRANCH   2  19
TORSDOF 7
ENDMDL
MODEL 7
REMARK VINA RESULT:      -8.6      5.820      9.448
REMARK  7 active torsions:
REMARK  status: ('A' for Active; 'I' for Inactive)
REMARK    1  A    between atoms: O_2  and  C_3 
REMARK    2  A    between atoms: C_6  and  C_7 
REMARK       I    between atoms: C_7  and  N_8 
REMARK    3  A    between atoms: N_8  and  C_9 
REMARK    4  A    between atoms: C_9  and  C_10 
REMARK    5  A    between atoms: C_10  and  N_11 
REMARK       I    between atoms: N_11  and  C_12 
REMARK    6  A    between atoms: C_12  and  C_13 
REMARK    7  A    between atoms: C_15  and  C_16 
ROOT
HETATM    1  N   UNL     1       5.312  27.451  55.150  1.00  0.00    -0.355 N 
HETATM    2  C   UNL     1       5.516  26.240  54.524  1.00  0.00     0.251 C 
HETATM    3  O   UNL     1       4.868  25.872  53.549  1.00  0.00    -0.268 OA
HETATM    4  H   UNL     1       5.714  27.621  56.062  1.00  0.00     0.162 HD
ENDROOT
BRANCH   1   5
HETATM    5  C   UNL     1       4.280  28.368  54.698  1.00  0.00     0.142 C 
BRANCH   5   6
HETATM    6  C   UNL     1       4.670  29.109  53.414  1.00  0.00     0.142 C 
BRANCH   6   7
HETATM    7  N   UNL     1       3.923  28.660  52.254  1.00  0.00    -0.355 N 
HETATM    8  C   UNL     1       4.559  28.368  51.065  1.00  0.00     0.251 C 
HETATM    9  O   UNL     1       5.775  28.443  50.925  1.00  0.00    -0.268 OA
HETATM   10  H   UNL     1       2.959  28.395  52.392  1.00  0.00     0.162 HD
BRANCH   8  11
HETATM   11  C   UNL     1       3.698  27.919  49.935  1.00  0.00     0.032 A 
HETATM   12  C   UNL     1       4.069  26.874  49.079  1.00  0.00     0.020 A 
HETATM   13  C   UNL     1       3.215  26.467  48.045  1.00  0.00     0.038 A 
HETATM   14  C   UNL     1       1.981  27.093  47.864  1.00  0.00     0.068 A 
HETATM   15  C   UNL     1       1.610  28.131  48.722  1.00  0.00     0.038 A 
HETATM   16  C   UNL     1       2.457  28.540  49.755  1.00  0.00     0.020 A 
BRANCH  14  17
HETATM   17  O   UNL     1       1.056  26.788  46.904  1.00  0.00    -0.356 OA
HETATM   18  C   UNL     1       0.324  27.872  46.346  1.00  0.00     0.210 C 
ENDBRANCH  14  17
ENDBRANCH   8  11
ENDBRANCH   6   7
ENDBRANCH   5   6
ENDBRANCH   1   5
BRANCH   2  19
HETATM   19  C   UNL     1       6.552  25.348  55.118  1.00  0.00     0.032 A 
HETATM   20  C   UNL     1       6.827  24.133  54.474  1.00  0.00     0.029 A 
HETATM   21  C   UNL     1       7.793  23.253  54.986  1.00  0.00    -0.023 A 
HETATM   22  C   UNL     1       8.480  23.613  56.153  1.00  0.00     0.012 A 
HETATM   23  C   UNL     1       8.221  24.830  56.789  1.00  0.00     0.002 A 
HETATM   24  C   UNL     1       7.262  25.701  56.271  1.00  0.00     0.017 A 
BRANCH  21  25
HETATM   25  C   UNL     1       8.084  21.987  54.332  1.00  0.00    -0.002 A 
HETATM   26  C   UNL     1       8.501  20.843  54.985  1.00  0.00     0.153 A 
HETATM   27  O   UNL     1       8.678  19.821  54.109  1.00  0.00    -0.334 OA
HETATM   28  C   UNL     1       8.370  20.301  52.878  1.00  0.00     0.142 A 
HETATM   29  C   UNL     1       7.995  21.621  52.958  1.00  0.00     0.038 A 
ENDBRANCH  21  25
ENDBRANCH   2  19
TORSDOF 7
ENDMDL
MODEL 8
REMARK VINA RESULT:      -8.5      5.350      8.997
REMARK  7 active torsions:
REMARK  status: ('A' for Active; 'I' for Inactive)
REMARK    1  A    between atoms: O_2  and  C_3 
REMARK    2  A    between atoms: C_6  and  C_7 
REMARK       I    between atoms: C_7  and  N_8 
REMARK    3  A    between atoms: N_8  and  C_9 
REMARK    4  A    between atoms: C_9  and  C_10 
REMARK    5  A    between atoms: C_10  and  N_11 
REMARK       I    between atoms: N_11  and  C_12 
REMARK    6  A    between atoms: C_12  and  C_13 
REMARK    7  A    between atoms: C_15  and  C_16 
ROOT
HETATM    1  N   UNL     1       5.966  27.910  54.250  1.00  0.00    -0.355 N 
HETATM    2  C   UNL     1       5.921  26.664  54.837  1.00  0.00     0.251 C 
HETATM    3  O   UNL     1       5.340  26.443  55.894  1.00  0.00    -0.268 OA
HETATM    4  H   UNL     1       6.623  28.092  53.502  1.00  0.00     0.162 HD
ENDROOT
BRANCH   1   5
HETATM    5  C   UNL     1       5.338  29.062  54.875  1.00  0.00     0.142 C 
BRANCH   5   6
HETATM    6  C   UNL     1       3.998  29.427  54.226  1.00  0.00     0.142 C 
BRANCH   6   7
HETATM    7  N   UNL     1       3.792  28.771  52.948  1.00  0.00    -0.355 N 
HETATM    8  C   UNL     1       4.187  29.367  51.768  1.00  0.00     0.251 C 
HETATM    9  O   UNL     1       4.752  30.455  51.729  1.00  0.00    -0.268 OA
HETATM   10  H   UNL     1       3.520  27.799  52.960  1.00  0.00     0.162 HD
BRANCH   8  11
HETATM   11  C   UNL     1       3.925  28.609  50.512  1.00  0.00     0.032 A 
HETATM   12  C   UNL     1       3.020  29.056  49.542  1.00  0.00     0.020 A 
HETATM   13  C   UNL     1       2.825  28.324  48.363  1.00  0.00     0.038 A 
HETATM   14  C   UNL     1       3.539  27.146  48.140  1.00  0.00     0.068 A 
HETATM   15  C   UNL     1       4.445  26.704  49.106  1.00  0.00     0.038 A 
HETATM   16  C   UNL     1       4.645  27.431  50.283  1.00  0.00     0.020 A 
BRANCH  14  17
HETATM   17  O   UNL     1       3.448  26.347  47.034  1.00  0.00    -0.356 OA
HETATM   18  C   UNL     1       2.909  25.044  47.223  1.00  0.00     0.210 C 
ENDBRANCH  14  17
ENDBRANCH   8  11
ENDBRANCH   6   7
ENDBRANCH   5   6
ENDBRANCH   1   5
BRANCH   2  19
HETATM   19  C   UNL     1       6.662  25.573  54.144  1.00  0.00     0.032 A 
HETATM   20  C   UNL     1       6.971  24.415  54.874  1.00  0.00     0.029 A 
HETATM   21  C   UNL     1       7.665  23.354  54.274  1.00  0.00    -0.023 A 
HETATM   22  C   UNL     1       8.044  23.471  52.931  1.00  0.00     0.012 A 
HETATM   23  C   UNL     1       7.724  24.615  52.194  1.00  0.00     0.002 A 
HETATM   24  C   UNL     1       7.030  25.664  52.798  1.00  0.00     0.017 A 
BRANCH  21  25
HETATM   25  C   UNL     1       7.998  22.150  55.022  1.00  0.00    -0.002 A 
HETATM   26  C   UNL     1       8.304  22.122  56.368  1.00  0.00     0.153 A 
HETATM   27  O   UNL     1       8.555  20.853  56.781  1.00  0.00    -0.334 OA
HETATM   28  C   UNL     1       8.407  20.050  55.699  1.00  0.00     0.142 A 
HETATM   29  C   UNL     1       8.061  20.793  54.594  1.00  0.00     0.038 A 
ENDBRANCH  21  25
ENDBRANCH   2  19
TORSDOF 7
ENDMDL
MODEL 9
REMARK VINA RESULT:      -8.3      6.389     11.082
REMARK  7 active torsions:
REMARK  status: ('A' for Active; 'I' for Inactive)
REMARK    1  A    between atoms: O_2  and  C_3 
REMARK    2  A    between atoms: C_6  and  C_7 
REMARK       I    between atoms: C_7  and  N_8 
REMARK    3  A    between atoms: N_8  and  C_9 
REMARK    4  A    between atoms: C_9  and  C_10 
REMARK    5  A    between atoms: C_10  and  N_11 
REMARK       I    between atoms: N_11  and  C_12 
REMARK    6  A    between atoms: C_12  and  C_13 
REMARK    7  A    between atoms: C_15  and  C_16 
ROOT
HETATM    1  N   UNL     1       5.559  26.185  52.107  1.00  0.00    -0.355 N 
HETATM    2  C   UNL     1       5.474  26.548  53.434  1.00  0.00     0.251 C 
HETATM    3  O   UNL     1       5.001  27.617  53.807  1.00  0.00    -0.268 OA
HETATM    4  H   UNL     1       6.139  25.403  51.834  1.00  0.00     0.162 HD
ENDROOT
BRANCH   1   5
HETATM    5  C   UNL     1       5.106  27.075  51.051  1.00  0.00     0.142 C 
BRANCH   5   6
HETATM    6  C   UNL     1       4.607  26.318  49.815  1.00  0.00     0.142 C 
BRANCH   6   7
HETATM    7  N   UNL     1       3.513  26.993  49.143  1.00  0.00    -0.355 N 
HETATM    8  C   UNL     1       3.354  26.909  47.775  1.00  0.00     0.251 C 
HETATM    9  O   UNL     1       4.099  26.249  47.059  1.00  0.00    -0.268 OA
HETATM   10  H   UNL     1       2.773  27.371  49.717  1.00  0.00     0.162 HD
BRANCH   8  11
HETATM   11  C   UNL     1       2.199  27.643  47.186  1.00  0.00     0.032 A 
HETATM   12  C   UNL     1       1.002  27.003  46.840  1.00  0.00     0.020 A 
HETATM   13  C   UNL     1      -0.069  27.738  46.313  1.00  0.00     0.038 A 
HETATM   14  C   UNL     1       0.045  29.118  46.136  1.00  0.00     0.068 A 
HETATM   15  C   UNL     1       1.238  29.755  46.486  1.00  0.00     0.038 A 
HETATM   16  C   UNL     1       2.307  29.027  47.014  1.00  0.00     0.020 A 
BRANCH  14  17
HETATM   17  O   UNL     1      -0.922  29.948  45.642  1.00  0.00    -0.356 OA
HETATM   18  C   UNL     1      -1.013  30.062  44.227  1.00  0.00     0.210 C 
ENDBRANCH  14  17
ENDBRANCH   8  11
ENDBRANCH   6   7
ENDBRANCH   5   6
ENDBRANCH   1   5
BRANCH   2  19
HETATM   19  C   UNL     1       6.037  25.589  54.425  1.00  0.00     0.032 A 
HETATM   20  C   UNL     1       6.579  24.386  53.949  1.00  0.00     0.029 A 
HETATM   21  C   UNL     1       7.125  23.445  54.835  1.00  0.00    -0.023 A 
HETATM   22  C   UNL     1       7.119  23.730  56.207  1.00  0.00     0.012 A 
HETATM   23  C   UNL     1       6.596  24.934  56.685  1.00  0.00     0.002 A 
HETATM   24  C   UNL     1       6.059  25.866  55.796  1.00  0.00     0.017 A 
BRANCH  21  25
HETATM   25  C   UNL     1       7.685  22.191  54.355  1.00  0.00    -0.002 A 
HETATM   26  C   UNL     1       8.002  21.927  53.037  1.00  0.00     0.153 A 
HETATM   27  O   UNL     1       8.518  20.678  52.903  1.00  0.00    -0.334 OA
HETATM   28  C   UNL     1       8.542  20.128  54.143  1.00  0.00     0.142 A 
HETATM   29  C   UNL     1       8.046  21.013  55.070  1.00  0.00     0.038 A 
ENDBRANCH  21  25
ENDBRANCH   2  19
TORSDOF 7
ENDMDL
MODEL 10
REMARK VINA RESULT:      -8.2      4.594     10.275
REMARK  7 active torsions:
REMARK  status: ('A' for Active; 'I' for Inactive)
REMARK    1  A    between atoms: O_2  and  C_3 
REMARK    2  A    between atoms: C_6  and  C_7 
REMARK       I    between atoms: C_7  and  N_8 
REMARK    3  A    between atoms: N_8  and  C_9 
REMARK    4  A    between atoms: C_9  and  C_10 
REMARK    5  A    between atoms: C_10  and  N_11 
REMARK       I    between atoms: N_11  and  C_12 
REMARK    6  A    between atoms: C_12  and  C_13 
REMARK    7  A    between atoms: C_15  and  C_16 
ROOT
HETATM    1  N   UNL     1       4.326  34.607  60.886  1.00  0.00    -0.355 N 
HETATM    2  C   UNL     1       4.948  35.320  61.888  1.00  0.00     0.251 C 
HETATM    3  O   UNL     1       4.805  36.529  62.038  1.00  0.00    -0.268 OA
HETATM    4  H   UNL     1       4.631  33.667  60.671  1.00  0.00     0.162 HD
ENDROOT
BRANCH   1   5
HETATM    5  C   UNL     1       3.470  35.265  59.913  1.00  0.00     0.142 C 
BRANCH   5   6
HETATM    6  C   UNL     1       3.662  34.719  58.494  1.00  0.00     0.142 C 
BRANCH   6   7
HETATM    7  N   UNL     1       4.606  33.619  58.434  1.00  0.00    -0.355 N 
HETATM    8  C   UNL     1       4.234  32.385  57.942  1.00  0.00     0.251 C 
HETATM    9  O   UNL     1       3.111  32.154  57.507  1.00  0.00    -0.268 OA
HETATM   10  H   UNL     1       5.581  33.829  58.592  1.00  0.00     0.162 HD
BRANCH   8  11
HETATM   11  C   UNL     1       5.279  31.323  57.929  1.00  0.00     0.032 A 
HETATM   12  C   UNL     1       5.105  30.107  57.256  1.00  0.00     0.020 A 
HETATM   13  C   UNL     1       6.127  29.148  57.249  1.00  0.00     0.038 A 
HETATM   14  C   UNL     1       7.332  29.399  57.905  1.00  0.00     0.068 A 
HETATM   15  C   UNL     1       7.507  30.615  58.570  1.00  0.00     0.038 A 
HETATM   16  C   UNL     1       6.493  31.575  58.579  1.00  0.00     0.020 A 
BRANCH  14  17
HETATM   17  O   UNL     1       8.406  28.555  57.966  1.00  0.00    -0.356 OA
HETATM   18  C   UNL     1       8.355  27.388  57.155  1.00  0.00     0.210 C 
ENDBRANCH  14  17
ENDBRANCH   8  11
ENDBRANCH   6   7
ENDBRANCH   5   6
ENDBRANCH   1   5
BRANCH   2  19
HETATM   19  C   UNL     1       5.861  34.554  62.783  1.00  0.00     0.032 A 
HETATM   20  C   UNL     1       6.695  33.585  62.206  1.00  0.00     0.029 A 
HETATM   21  C   UNL     1       7.577  32.835  62.998  1.00  0.00    -0.023 A 
HETATM   22  C   UNL     1       7.611  33.074  64.378  1.00  0.00     0.012 A 
HETATM   23  C   UNL     1       6.796  34.050  64.955  1.00  0.00     0.002 A 
HETATM   24  C   UNL     1       5.924  34.794  64.160  1.00  0.00     0.017 A 
BRANCH  21  25
HETATM   25  C   UNL     1       8.442  31.822  62.413  1.00  0.00    -0.002 A 
HETATM   26  C   UNL     1       8.361  30.470  62.684  1.00  0.00     0.153 A 
HETATM   27  O   UNL     1       9.291  29.778  61.977  1.00  0.00    -0.334 OA
HETATM   28  C   UNL     1       9.978  30.684  61.237  1.00  0.00     0.142 A 
HETATM   29  C   UNL     1       9.495  31.951  61.463  1.00  0.00     0.038 A 
ENDBRANCH  21  25
ENDBRANCH   2  19
TORSDOF 7
ENDMDL
