MODEL 1
REMARK VINA RESULT:     -10.1      0.000      0.000
REMARK  5 active torsions:
REMARK  status: ('A' for Active; 'I' for Inactive)
REMARK    1  A    between atoms: C_2  and  N_3 
REMARK       I    between atoms: N_3  and  C_4 
REMARK       I    between atoms: C_4  and  N_5 
REMARK    2  A    between atoms: N_5  and  C_6 
REMARK    3  A    between atoms: C_9  and  C_10 
REMARK    4  A    between atoms: C_10  and  C_11 
REMARK       I    between atoms: C_11  and  N_12 
REMARK    5  A    between atoms: N_12  and  C_13 
ROOT
HETATM    1  C   UNL     1       7.169  28.051  56.802  1.00  0.00     0.174 A 
HETATM    2  S   UNL     1       6.199  29.352  56.283  1.00  0.00    -0.062 SA
HETATM    3  C   UNL     1       6.965  30.359  57.445  1.00  0.00     0.081 A 
HETATM    4  C   UNL     1       7.925  29.640  58.135  1.00  0.00     0.052 A 
HETATM    5  N   UNL     1       8.033  28.310  57.749  1.00  0.00    -0.228 NA
ENDROOT
BRANCH   1   6
HETATM    6  N   UNL     1       6.954  26.877  56.141  1.00  0.00    -0.287 N 
HETATM    7  C   UNL     1       5.875  26.091  56.408  1.00  0.00     0.326 C 
HETATM    8  N   UNL     1       5.816  24.889  55.757  1.00  0.00    -0.309 N 
HETATM    9  O   UNL     1       4.914  26.408  57.108  1.00  0.00    -0.247 OA
HETATM   10  H   UNL     1       4.880  24.500  55.792  1.00  0.00     0.170 HD
HETATM   11  H   UNL     1       7.462  26.728  55.284  1.00  0.00     0.172 HD
BRANCH   8  12
HETATM   12  C   UNL     1       6.814  24.072  55.199  1.00  0.00     0.036 A 
HETATM   13  C   UNL     1       7.718  23.315  55.952  1.00  0.00     0.032 A 
HETATM   14  C   UNL     1       8.652  22.492  55.312  1.00  0.00     0.044 A 
HETATM   15  C   UNL     1       8.672  22.419  53.925  1.00  0.00     0.116 A 
HETATM   16  C   UNL     1       7.769  23.145  53.162  1.00  0.00     0.044 A 
HETATM   17  F   UNL     1       9.563  21.625  53.319  1.00  0.00    -0.206 F 
HETATM   18  C   UNL     1       6.833  23.964  53.800  1.00  0.00     0.032 A 
ENDBRANCH   8  12
ENDBRANCH   1   6
BRANCH   4  19
HETATM   19  C   UNL     1       8.860  30.156  59.179  1.00  0.00     0.163 C 
BRANCH  19  20
HETATM   20  C   UNL     1       8.321  31.329  59.987  1.00  0.00     0.227 C 
HETATM   21  N   UNL     1       7.634  30.976  61.134  1.00  0.00    -0.327 N 
HETATM   22  H   UNL     1       7.384  29.985  61.216  1.00  0.00     0.169 HD
HETATM   23  O   UNL     1       8.581  32.479  59.636  1.00  0.00    -0.273 OA
BRANCH  21  24
HETATM   24  C   UNL     1       7.166  31.825  62.157  1.00  0.00     0.036 A 
HETATM   25  C   UNL     1       5.852  32.296  62.242  1.00  0.00     0.056 A 
HETATM   26  C   UNL     1       5.483  33.161  63.277  1.00  0.00     0.074 A 
HETATM   27 CL   UNL     1       3.865  33.748  63.355  1.00  0.00    -0.081 Cl
HETATM   28  C   UNL     1       6.420  33.552  64.229  1.00  0.00     0.138 A 
HETATM   29  F   UNL     1       6.083  34.383  65.228  1.00  0.00    -0.204 F 
HETATM   30  C   UNL     1       7.728  33.092  64.157  1.00  0.00     0.046 A 
HETATM   31  C   UNL     1       8.100  32.235  63.120  1.00  0.00     0.032 A 
ENDBRANCH  21  24
ENDBRANCH  19  20
ENDBRANCH   4  19
TORSDOF 5
ENDMDL
MODEL 2
REMARK VINA RESULT:     -10.0      1.834      2.282
REMARK  5 active torsions:
REMARK  status: ('A' for Active; 'I' for Inactive)
REMARK    1  A    between atoms: C_2  and  N_3 
REMARK       I    between atoms: N_3  and  C_4 
REMARK       I    between atoms: C_4  and  N_5 
REMARK    2  A    between atoms: N_5  and  C_6 
REMARK    3  A    between atoms: C_9  and  C_10 
REMARK    4  A    between atoms: C_10  and  C_11 
REMARK       I    between atoms: C_11  and  N_12 
REMARK    5  A    between atoms: N_12  and  C_13 
ROOT
HETATM    1  C   UNL     1       7.928  27.216  56.423  1.00  0.00     0.174 A 
HETATM    2  S   UNL     1       6.601  28.185  55.975  1.00  0.00    -0.062 SA
HETATM    3  C   UNL     1       7.528  29.585  56.335  1.00  0.00     0.081 A 
HETATM    4  C   UNL     1       8.796  29.219  56.752  1.00  0.00     0.052 A 
HETATM    5  N   UNL     1       9.012  27.847  56.793  1.00  0.00    -0.228 NA
ENDROOT
BRANCH   1   6
HETATM    6  N   UNL     1       7.719  25.872  56.314  1.00  0.00    -0.287 N 
HETATM    7  C   UNL     1       8.016  25.016  57.330  1.00  0.00     0.326 C 
HETATM    8  N   UNL     1       7.861  23.681  57.071  1.00  0.00    -0.309 N 
HETATM    9  O   UNL     1       8.321  25.342  58.476  1.00  0.00    -0.247 OA
HETATM   10  H   UNL     1       7.832  23.143  57.931  1.00  0.00     0.170 HD
HETATM   11  H   UNL     1       7.111  25.556  55.576  1.00  0.00     0.172 HD
BRANCH   8  12
HETATM   12  C   UNL     1       7.877  22.946  55.873  1.00  0.00     0.036 A 
HETATM   13  C   UNL     1       8.004  23.522  54.605  1.00  0.00     0.032 A 
HETATM   14  C   UNL     1       8.056  22.711  53.466  1.00  0.00     0.044 A 
HETATM   15  C   UNL     1       7.992  21.329  53.598  1.00  0.00     0.116 A 
HETATM   16  C   UNL     1       7.887  20.740  54.850  1.00  0.00     0.044 A 
HETATM   17  F   UNL     1       8.050  20.558  52.506  1.00  0.00    -0.206 F 
HETATM   18  C   UNL     1       7.840  21.548  55.988  1.00  0.00     0.032 A 
ENDBRANCH   8  12
ENDBRANCH   1   6
BRANCH   4  19
HETATM   19  C   UNL     1       9.929  30.129  57.096  1.00  0.00     0.163 C 
BRANCH  19  20
HETATM   20  C   UNL     1       9.656  31.067  58.263  1.00  0.00     0.227 C 
HETATM   21  N   UNL     1       8.771  30.577  59.206  1.00  0.00    -0.327 N 
HETATM   22  H   UNL     1       8.243  29.742  58.930  1.00  0.00     0.169 HD
HETATM   23  O   UNL     1      10.268  32.131  58.344  1.00  0.00    -0.273 OA
BRANCH  21  24
HETATM   24  C   UNL     1       8.449  31.133  60.461  1.00  0.00     0.036 A 
HETATM   25  C   UNL     1       7.647  32.265  60.631  1.00  0.00     0.056 A 
HETATM   26  C   UNL     1       7.405  32.766  61.914  1.00  0.00     0.074 A 
HETATM   27 CL   UNL     1       6.431  34.175  62.105  1.00  0.00    -0.081 Cl
HETATM   28  C   UNL     1       7.955  32.135  63.027  1.00  0.00     0.138 A 
HETATM   29  F   UNL     1       7.733  32.603  64.264  1.00  0.00    -0.204 F 
HETATM   30  C   UNL     1       8.752  31.010  62.872  1.00  0.00     0.046 A 
HETATM   31  C   UNL     1       9.002  30.513  61.591  1.00  0.00     0.032 A 
ENDBRANCH  21  24
ENDBRANCH  19  20
ENDBRANCH   4  19
TORSDOF 5
ENDMDL
MODEL 3
REMARK VINA RESULT:      -9.7      3.438     10.537
REMARK  5 active torsions:
REMARK  status: ('A' for Active; 'I' for Inactive)
REMARK    1  A    between atoms: C_2  and  N_3 
REMARK       I    between atoms: N_3  and  C_4 
REMARK       I    between atoms: C_4  and  N_5 
REMARK    2  A    between atoms: N_5  and  C_6 
REMARK    3  A    between atoms: C_9  and  C_10 
REMARK    4  A    between atoms: C_10  and  C_11 
REMARK       I    between atoms: C_11  and  N_12 
REMARK    5  A    between atoms: N_12  and  C_13 
ROOT
HETATM    1  C   UNL     1       7.021  29.311  56.841  1.00  0.00     0.174 A 
HETATM    2  S   UNL     1       5.443  28.855  57.294  1.00  0.00    -0.062 SA
HETATM    3  C   UNL     1       5.251  28.085  55.771  1.00  0.00     0.081 A 
HETATM    4  C   UNL     1       6.413  28.208  55.028  1.00  0.00     0.052 A 
HETATM    5  N   UNL     1       7.426  28.915  55.662  1.00  0.00    -0.228 NA
ENDROOT
BRANCH   1   6
HETATM    6  N   UNL     1       7.706  30.020  57.785  1.00  0.00    -0.287 N 
HETATM    7  C   UNL     1       9.052  29.890  57.943  1.00  0.00     0.326 C 
HETATM    8  N   UNL     1       9.615  30.573  58.987  1.00  0.00    -0.309 N 
HETATM    9  O   UNL     1       9.808  29.291  57.180  1.00  0.00    -0.247 OA
HETATM   10  H   UNL     1      10.620  30.649  58.874  1.00  0.00     0.170 HD
HETATM   11  H   UNL     1       7.245  30.820  58.188  1.00  0.00     0.172 HD
BRANCH   8  12
HETATM   12  C   UNL     1       9.084  31.040  60.201  1.00  0.00     0.036 A 
HETATM   13  C   UNL     1       9.169  30.343  61.412  1.00  0.00     0.032 A 
HETATM   14  C   UNL     1       8.651  30.904  62.584  1.00  0.00     0.044 A 
HETATM   15  C   UNL     1       8.061  32.161  62.547  1.00  0.00     0.116 A 
HETATM   16  C   UNL     1       7.986  32.875  61.359  1.00  0.00     0.044 A 
HETATM   17  F   UNL     1       7.574  32.696  63.673  1.00  0.00    -0.206 F 
HETATM   18  C   UNL     1       8.507  32.319  60.188  1.00  0.00     0.032 A 
ENDBRANCH   8  12
ENDBRANCH   1   6
BRANCH   4  19
HETATM   19  C   UNL     1       6.687  27.626  53.680  1.00  0.00     0.163 C 
BRANCH  19  20
HETATM   20  C   UNL     1       6.534  26.113  53.602  1.00  0.00     0.227 C 
HETATM   21  N   UNL     1       7.672  25.398  53.925  1.00  0.00    -0.327 N 
HETATM   22  H   UNL     1       8.539  25.942  53.982  1.00  0.00     0.169 HD
HETATM   23  O   UNL     1       5.434  25.625  53.344  1.00  0.00    -0.273 OA
BRANCH  21  24
HETATM   24  C   UNL     1       7.798  24.005  54.102  1.00  0.00     0.036 A 
HETATM   25  C   UNL     1       7.960  23.386  55.345  1.00  0.00     0.056 A 
HETATM   26  C   UNL     1       8.108  21.998  55.423  1.00  0.00     0.074 A 
HETATM   27 CL   UNL     1       8.328  21.253  56.961  1.00  0.00    -0.081 Cl
HETATM   28  C   UNL     1       8.088  21.226  54.265  1.00  0.00     0.138 A 
HETATM   29  F   UNL     1       8.229  19.893  54.322  1.00  0.00    -0.204 F 
HETATM   30  C   UNL     1       7.926  21.827  53.024  1.00  0.00     0.046 A 
HETATM   31  C   UNL     1       7.787  23.214  52.944  1.00  0.00     0.032 A 
ENDBRANCH  21  24
ENDBRANCH  19  20
ENDBRANCH   4  19
TORSDOF 5
ENDMDL
MODEL 4
REMARK VINA RESULT:      -9.6      3.723     10.917
REMARK  5 active torsions:
REMARK  status: ('A' for Active; 'I' for Inactive)
REMARK    1  A    between atoms: C_2  and  N_3 
REMARK       I    between atoms: N_3  and  C_4 
REMARK       I    between atoms: C_4  and  N_5 
REMARK    2  A    between atoms: N_5  and  C_6 
REMARK    3  A    between atoms: C_9  and  C_10 
REMARK    4  A    between atoms: C_10  and  C_11 
REMARK       I    between atoms: C_11  and  N_12 
REMARK    5  A    between atoms: N_12  and  C_13 
ROOT
HETATM    1  C   UNL     1       7.648  29.986  58.517  1.00  0.00     0.174 A 
HETATM    2  S   UNL     1       9.313  30.240  58.259  1.00  0.00    -0.062 SA
HETATM    3  C   UNL     1       9.292  29.017  57.053  1.00  0.00     0.081 A 
HETATM    4  C   UNL     1       8.011  28.513  56.913  1.00  0.00     0.052 A 
HETATM    5  N   UNL     1       7.073  29.086  57.763  1.00  0.00    -0.228 NA
ENDROOT
BRANCH   1   6
HETATM    6  N   UNL     1       7.088  30.783  59.473  1.00  0.00    -0.287 N 
HETATM    7  C   UNL     1       6.520  31.981  59.164  1.00  0.00     0.326 C 
HETATM    8  N   UNL     1       6.083  32.740  60.216  1.00  0.00    -0.309 N 
HETATM    9  O   UNL     1       6.289  32.392  58.029  1.00  0.00    -0.247 OA
HETATM   10  H   UNL     1       5.443  33.461  59.903  1.00  0.00     0.170 HD
HETATM   11  H   UNL     1       6.876  30.360  60.362  1.00  0.00     0.172 HD
BRANCH   8  12
HETATM   12  C   UNL     1       6.459  32.779  61.569  1.00  0.00     0.036 A 
HETATM   13  C   UNL     1       7.773  32.614  62.020  1.00  0.00     0.032 A 
HETATM   14  C   UNL     1       8.067  32.713  63.385  1.00  0.00     0.044 A 
HETATM   15  C   UNL     1       7.051  32.990  64.291  1.00  0.00     0.116 A 
HETATM   16  C   UNL     1       5.745  33.178  63.860  1.00  0.00     0.044 A 
HETATM   17  F   UNL     1       7.338  33.091  65.595  1.00  0.00    -0.206 F 
HETATM   18  C   UNL     1       5.452  33.083  62.497  1.00  0.00     0.032 A 
ENDBRANCH   8  12
ENDBRANCH   1   6
BRANCH   4  19
HETATM   19  C   UNL     1       7.549  27.487  55.930  1.00  0.00     0.163 C 
BRANCH  19  20
HETATM   20  C   UNL     1       7.822  26.047  56.344  1.00  0.00     0.227 C 
HETATM   21  N   UNL     1       7.482  25.098  55.397  1.00  0.00    -0.327 N 
HETATM   22  H   UNL     1       6.905  25.432  54.618  1.00  0.00     0.169 HD
HETATM   23  O   UNL     1       8.378  25.818  57.417  1.00  0.00    -0.273 OA
BRANCH  21  24
HETATM   24  C   UNL     1       7.761  23.716  55.419  1.00  0.00     0.036 A 
HETATM   25  C   UNL     1       7.705  22.890  54.293  1.00  0.00     0.056 A 
HETATM   26  C   UNL     1       7.968  21.522  54.414  1.00  0.00     0.074 A 
HETATM   27 CL   UNL     1       7.874  20.513  53.020  1.00  0.00    -0.081 Cl
HETATM   28  C   UNL     1       8.291  20.978  55.654  1.00  0.00     0.138 A 
HETATM   29  F   UNL     1       8.545  19.667  55.788  1.00  0.00    -0.204 F 
HETATM   30  C   UNL     1       8.351  21.787  56.781  1.00  0.00     0.046 A 
HETATM   31  C   UNL     1       8.081  23.152  56.663  1.00  0.00     0.032 A 
ENDBRANCH  21  24
ENDBRANCH  19  20
ENDBRANCH   4  19
TORSDOF 5
ENDMDL
MODEL 5
REMARK VINA RESULT:      -9.6      3.570      4.426
REMARK  5 active torsions:
REMARK  status: ('A' for Active; 'I' for Inactive)
REMARK    1  A    between atoms: C_2  and  N_3 
REMARK       I    between atoms: N_3  and  C_4 
REMARK       I    between atoms: C_4  and  N_5 
REMARK    2  A    between atoms: N_5  and  C_6 
REMARK    3  A    between atoms: C_9  and  C_10 
REMARK    4  A    between atoms: C_10  and  C_11 
REMARK       I    between atoms: C_11  and  N_12 
REMARK    5  A    between atoms: N_12  and  C_13 
ROOT
HETATM    1  C   UNL     1       5.505  26.489  55.238  1.00  0.00     0.174 A 
HETATM    2  S   UNL     1       5.017  26.811  53.637  1.00  0.00    -0.062 SA
HETATM    3  C   UNL     1       4.223  28.231  54.187  1.00  0.00     0.081 A 
HETATM    4  C   UNL     1       4.403  28.376  55.551  1.00  0.00     0.052 A 
HETATM    5  N   UNL     1       5.149  27.364  56.142  1.00  0.00    -0.228 NA
ENDROOT
BRANCH   1   6
HETATM    6  N   UNL     1       6.249  25.356  55.393  1.00  0.00    -0.287 N 
HETATM    7  C   UNL     1       7.460  25.373  56.015  1.00  0.00     0.326 C 
HETATM    8  N   UNL     1       8.161  24.198  56.022  1.00  0.00    -0.309 N 
HETATM    9  O   UNL     1       7.929  26.321  56.643  1.00  0.00    -0.247 OA
HETATM   10  H   UNL     1       8.897  24.216  56.720  1.00  0.00     0.170 HD
HETATM   11  H   UNL     1       5.780  24.473  55.269  1.00  0.00     0.172 HD
BRANCH   8  12
HETATM   12  C   UNL     1       8.132  23.079  55.172  1.00  0.00     0.036 A 
HETATM   13  C   UNL     1       7.986  21.761  55.619  1.00  0.00     0.032 A 
HETATM   14  C   UNL     1       7.921  20.709  54.698  1.00  0.00     0.044 A 
HETATM   15  C   UNL     1       7.990  20.978  53.337  1.00  0.00     0.116 A 
HETATM   16  C   UNL     1       8.114  22.280  52.875  1.00  0.00     0.044 A 
HETATM   17  F   UNL     1       7.921  19.968  52.460  1.00  0.00    -0.206 F 
HETATM   18  C   UNL     1       8.174  23.332  53.793  1.00  0.00     0.032 A 
ENDBRANCH   8  12
ENDBRANCH   1   6
BRANCH   4  19
HETATM   19  C   UNL     1       3.935  29.507  56.407  1.00  0.00     0.163 C 
BRANCH  19  20
HETATM   20  C   UNL     1       5.038  30.446  56.875  1.00  0.00     0.227 C 
HETATM   21  N   UNL     1       5.995  29.858  57.682  1.00  0.00    -0.327 N 
HETATM   22  H   UNL     1       5.762  28.928  58.045  1.00  0.00     0.169 HD
HETATM   23  O   UNL     1       5.065  31.606  56.465  1.00  0.00    -0.273 OA
BRANCH  21  24
HETATM   24  C   UNL     1       7.209  30.417  58.132  1.00  0.00     0.036 A 
HETATM   25  C   UNL     1       8.464  30.074  57.622  1.00  0.00     0.056 A 
HETATM   26  C   UNL     1       9.619  30.657  58.151  1.00  0.00     0.074 A 
HETATM   27 CL   UNL     1      11.160  30.206  57.524  1.00  0.00    -0.081 Cl
HETATM   28  C   UNL     1       9.524  31.586  59.182  1.00  0.00     0.138 A 
HETATM   29  F   UNL     1      10.623  32.155  59.702  1.00  0.00    -0.204 F 
HETATM   30  C   UNL     1       8.284  31.938  59.698  1.00  0.00     0.046 A 
HETATM   31  C   UNL     1       7.130  31.350  59.177  1.00  0.00     0.032 A 
ENDBRANCH  21  24
ENDBRANCH  19  20
ENDBRANCH   4  19
TORSDOF 5
ENDMDL
MODEL 6
REMARK VINA RESULT:      -9.5      3.283     10.819
REMARK  5 active torsions:
REMARK  status: ('A' for Active; 'I' for Inactive)
REMARK    1  A    between atoms: C_2  and  N_3 
REMARK       I    between atoms: N_3  and  C_4 
REMARK       I    between atoms: C_4  and  N_5 
REMARK    2  A    between atoms: N_5  and  C_6 
REMARK    3  A    between atoms: C_9  and  C_10 
REMARK    4  A    between atoms: C_10  and  C_11 
REMARK       I    between atoms: C_11  and  N_12 
REMARK    5  A    between atoms: N_12  and  C_13 
ROOT
HETATM    1  C   UNL     1       6.980  29.681  57.775  1.00  0.00     0.174 A 
HETATM    2  S   UNL     1       8.656  29.384  57.696  1.00  0.00    -0.062 SA
HETATM    3  C   UNL     1       8.389  28.360  56.342  1.00  0.00     0.081 A 
HETATM    4  C   UNL     1       7.042  28.332  56.029  1.00  0.00     0.052 A 
HETATM    5  N   UNL     1       6.242  29.103  56.863  1.00  0.00    -0.228 NA
ENDROOT
BRANCH   1   6
HETATM    6  N   UNL     1       6.595  30.524  58.777  1.00  0.00    -0.287 N 
HETATM    7  C   UNL     1       6.114  31.771  58.517  1.00  0.00     0.326 C 
HETATM    8  N   UNL     1       5.856  32.565  59.602  1.00  0.00    -0.309 N 
HETATM    9  O   UNL     1       5.811  32.206  57.407  1.00  0.00    -0.247 OA
HETATM   10  H   UNL     1       5.259  33.345  59.349  1.00  0.00     0.170 HD
HETATM   11  H   UNL     1       6.433  30.121  59.686  1.00  0.00     0.172 HD
BRANCH   8  12
HETATM   12  C   UNL     1       6.366  32.566  60.911  1.00  0.00     0.036 A 
HETATM   13  C   UNL     1       7.729  32.644  61.219  1.00  0.00     0.032 A 
HETATM   14  C   UNL     1       8.148  32.684  62.553  1.00  0.00     0.044 A 
HETATM   15  C   UNL     1       7.205  32.658  63.574  1.00  0.00     0.116 A 
HETATM   16  C   UNL     1       5.849  32.602  63.287  1.00  0.00     0.044 A 
HETATM   17  F   UNL     1       7.611  32.704  64.849  1.00  0.00    -0.206 F 
HETATM   18  C   UNL     1       5.429  32.566  61.955  1.00  0.00     0.032 A 
ENDBRANCH   8  12
ENDBRANCH   1   6
BRANCH   4  19
HETATM   19  C   UNL     1       6.398  27.621  54.884  1.00  0.00     0.163 C 
BRANCH  19  20
HETATM   20  C   UNL     1       6.327  26.108  55.039  1.00  0.00     0.227 C 
HETATM   21  N   UNL     1       7.268  25.405  54.308  1.00  0.00    -0.327 N 
HETATM   22  H   UNL     1       7.771  25.944  53.595  1.00  0.00     0.169 HD
HETATM   23  O   UNL     1       5.524  25.615  55.831  1.00  0.00    -0.273 OA
BRANCH  21  24
HETATM   24  C   UNL     1       7.556  24.027  54.368  1.00  0.00     0.036 A 
HETATM   25  C   UNL     1       7.769  23.324  55.558  1.00  0.00     0.056 A 
HETATM   26  C   UNL     1       8.081  21.962  55.521  1.00  0.00     0.074 A 
HETATM   27 CL   UNL     1       8.361  21.115  56.996  1.00  0.00    -0.081 Cl
HETATM   28  C   UNL     1       8.175  21.298  54.301  1.00  0.00     0.138 A 
HETATM   29  F   UNL     1       8.475  19.991  54.248  1.00  0.00    -0.204 F 
HETATM   30  C   UNL     1       7.966  21.983  53.112  1.00  0.00     0.046 A 
HETATM   31  C   UNL     1       7.662  23.346  53.147  1.00  0.00     0.032 A 
ENDBRANCH  21  24
ENDBRANCH  19  20
ENDBRANCH   4  19
TORSDOF 5
ENDMDL
MODEL 7
REMARK VINA RESULT:      -9.3      6.970      9.835
REMARK  5 active torsions:
REMARK  status: ('A' for Active; 'I' for Inactive)
REMARK    1  A    between atoms: C_2  and  N_3 
REMARK       I    between atoms: N_3  and  C_4 
REMARK       I    between atoms: C_4  and  N_5 
REMARK    2  A    between atoms: N_5  and  C_6 
REMARK    3  A    between atoms: C_9  and  C_10 
REMARK    4  A    between atoms: C_10  and  C_11 
REMARK       I    between atoms: C_11  and  N_12 
REMARK    5  A    between atoms: N_12  and  C_13 
ROOT
HETATM    1  C   UNL     1       4.603  27.533  53.097  1.00  0.00     0.174 A 
HETATM    2  S   UNL     1       4.322  29.192  53.367  1.00  0.00    -0.062 SA
HETATM    3  C   UNL     1       4.803  28.985  55.003  1.00  0.00     0.081 A 
HETATM    4  C   UNL     1       5.167  27.669  55.226  1.00  0.00     0.052 A 
HETATM    5  N   UNL     1       5.050  26.845  54.115  1.00  0.00    -0.228 NA
ENDROOT
BRANCH   1   6
HETATM    6  N   UNL     1       4.356  27.111  51.823  1.00  0.00    -0.287 N 
HETATM    7  C   UNL     1       5.324  26.532  51.060  1.00  0.00     0.326 C 
HETATM    8  N   UNL     1       4.990  26.242  49.764  1.00  0.00    -0.309 N 
HETATM    9  O   UNL     1       6.429  26.170  51.459  1.00  0.00    -0.247 OA
HETATM   10  H   UNL     1       5.645  25.582  49.358  1.00  0.00     0.170 HD
HETATM   11  H   UNL     1       3.393  27.002  51.549  1.00  0.00     0.172 HD
BRANCH   8  12
HETATM   12  C   UNL     1       4.027  26.784  48.897  1.00  0.00     0.036 A 
HETATM   13  C   UNL     1       3.953  28.139  48.558  1.00  0.00     0.032 A 
HETATM   14  C   UNL     1       2.988  28.586  47.650  1.00  0.00     0.044 A 
HETATM   15  C   UNL     1       2.108  27.678  47.074  1.00  0.00     0.116 A 
HETATM   16  C   UNL     1       2.180  26.327  47.381  1.00  0.00     0.044 A 
HETATM   17  F   UNL     1       1.191  28.110  46.199  1.00  0.00    -0.206 F 
HETATM   18  C   UNL     1       3.147  25.878  48.285  1.00  0.00     0.032 A 
ENDBRANCH   8  12
ENDBRANCH   1   6
BRANCH   4  19
HETATM   19  C   UNL     1       5.708  27.086  56.491  1.00  0.00     0.163 C 
BRANCH  19  20
HETATM   20  C   UNL     1       5.866  25.572  56.472  1.00  0.00     0.227 C 
HETATM   21  N   UNL     1       6.933  25.110  55.723  1.00  0.00    -0.327 N 
HETATM   22  H   UNL     1       7.374  25.798  55.104  1.00  0.00     0.169 HD
HETATM   23  O   UNL     1       5.120  24.874  57.157  1.00  0.00    -0.273 OA
BRANCH  21  24
HETATM   24  C   UNL     1       7.429  23.792  55.646  1.00  0.00     0.036 A 
HETATM   25  C   UNL     1       7.355  22.995  54.500  1.00  0.00     0.056 A 
HETATM   26  C   UNL     1       7.846  21.686  54.524  1.00  0.00     0.074 A 
HETATM   27 CL   UNL     1       7.728  20.710  53.108  1.00  0.00    -0.081 Cl
HETATM   28  C   UNL     1       8.416  21.174  55.685  1.00  0.00     0.138 A 
HETATM   29  F   UNL     1       8.892  19.920  55.725  1.00  0.00    -0.204 F 
HETATM   30  C   UNL     1       8.497  21.955  56.830  1.00  0.00     0.046 A 
HETATM   31  C   UNL     1       7.999  23.259  56.811  1.00  0.00     0.032 A 
ENDBRANCH  21  24
ENDBRANCH  19  20
ENDBRANCH   4  19
TORSDOF 5
ENDMDL
MODEL 8
REMARK VINA RESULT:      -9.1      7.422     10.587
REMARK  5 active torsions:
REMARK  status: ('A' for Active; 'I' for Inactive)
REMARK    1  A    between atoms: C_2  and  N_3 
REMARK       I    between atoms: N_3  and  C_4 
REMARK       I    between atoms: C_4  and  N_5 
REMARK    2  A    between atoms: N_5  and  C_6 
REMARK    3  A    between atoms: C_9  and  C_10 
REMARK    4  A    between atoms: C_10  and  C_11 
REMARK       I    between atoms: C_11  and  N_12 
REMARK    5  A    between atoms: N_12  and  C_13 
ROOT
HETATM    1  C   UNL     1       5.205  28.100  53.862  1.00  0.00     0.174 A 
HETATM    2  S   UNL     1       4.132  28.749  55.016  1.00  0.00    -0.062 SA
HETATM    3  C   UNL     1       3.701  29.976  53.893  1.00  0.00     0.081 A 
HETATM    4  C   UNL     1       4.388  29.794  52.706  1.00  0.00     0.052 A 
HETATM    5  N   UNL     1       5.250  28.704  52.703  1.00  0.00    -0.228 NA
ENDROOT
BRANCH   1   6
HETATM    6  N   UNL     1       5.884  26.989  54.272  1.00  0.00    -0.287 N 
HETATM    7  C   UNL     1       7.039  27.079  54.988  1.00  0.00     0.326 C 
HETATM    8  N   UNL     1       7.685  25.902  55.255  1.00  0.00    -0.309 N 
HETATM    9  O   UNL     1       7.496  28.107  55.485  1.00  0.00    -0.247 OA
HETATM   10  H   UNL     1       8.361  26.019  56.003  1.00  0.00     0.170 HD
HETATM   11  H   UNL     1       5.388  26.112  54.259  1.00  0.00     0.172 HD
BRANCH   8  12
HETATM   12  C   UNL     1       7.677  24.655  54.608  1.00  0.00     0.036 A 
HETATM   13  C   UNL     1       7.863  24.487  53.231  1.00  0.00     0.032 A 
HETATM   14  C   UNL     1       7.884  23.203  52.676  1.00  0.00     0.044 A 
HETATM   15  C   UNL     1       7.732  22.093  53.497  1.00  0.00     0.116 A 
HETATM   16  C   UNL     1       7.568  22.239  54.867  1.00  0.00     0.044 A 
HETATM   17  F   UNL     1       7.761  20.866  52.961  1.00  0.00    -0.206 F 
HETATM   18  C   UNL     1       7.551  23.520  55.424  1.00  0.00     0.032 A 
ENDBRANCH   8  12
ENDBRANCH   1   6
BRANCH   4  19
HETATM   19  C   UNL     1       4.253  30.598  51.455  1.00  0.00     0.163 C 
BRANCH  19  20
HETATM   20  C   UNL     1       4.276  29.780  50.171  1.00  0.00     0.227 C 
HETATM   21  N   UNL     1       3.499  28.636  50.200  1.00  0.00    -0.327 N 
HETATM   22  H   UNL     1       3.159  28.351  51.124  1.00  0.00     0.169 HD
HETATM   23  O   UNL     1       4.893  30.199  49.193  1.00  0.00    -0.273 OA
BRANCH  21  24
HETATM   24  C   UNL     1       3.191  27.773  49.128  1.00  0.00     0.036 A 
HETATM   25  C   UNL     1       2.090  27.940  48.283  1.00  0.00     0.056 A 
HETATM   26  C   UNL     1       1.843  27.016  47.263  1.00  0.00     0.074 A 
HETATM   27 CL   UNL     1       0.470  27.224  46.243  1.00  0.00    -0.081 Cl
HETATM   28  C   UNL     1       2.695  25.930  47.081  1.00  0.00     0.138 A 
HETATM   29  F   UNL     1       2.472  25.034  46.108  1.00  0.00    -0.204 F 
HETATM   30  C   UNL     1       3.793  25.753  47.913  1.00  0.00     0.046 A 
HETATM   31  C   UNL     1       4.035  26.670  48.937  1.00  0.00     0.032 A 
ENDBRANCH  21  24
ENDBRANCH  19  20
ENDBRANCH   4  19
TORSDOF 5
ENDMDL
MODEL 9
REMARK VINA RESULT:      -8.8      4.209     10.409
REMARK  5 active torsions:
REMARK  status: ('A' for Active; 'I' for Inactive)
REMARK    1  A    between atoms: C_2  and  N_3 
REMARK       I    between atoms: N_3  and  C_4 
REMARK       I    between atoms: C_4  and  N_5 
REMARK    2  A    between atoms: N_5  and  C_6 
REMARK    3  A    between atoms: C_9  and  C_10 
REMARK    4  A    between atoms: C_10  and  C_11 
REMARK       I    between atoms: C_11  and  N_12 
REMARK    5  A    between atoms: N_12  and  C_13 
ROOT
HETATM    1  C   UNL     1       6.178  28.989  56.678  1.00  0.00     0.174 A 
HETATM    2  S   UNL     1       4.739  28.077  56.718  1.00  0.00    -0.062 SA
HETATM    3  C   UNL     1       5.208  27.313  55.253  1.00  0.00     0.081 A 
HETATM    4  C   UNL     1       6.441  27.789  54.844  1.00  0.00     0.052 A 
HETATM    5  N   UNL     1       6.990  28.753  55.680  1.00  0.00    -0.228 NA
ENDROOT
BRANCH   1   6
HETATM    6  N   UNL     1       6.338  29.852  57.723  1.00  0.00    -0.287 N 
HETATM    7  C   UNL     1       5.725  31.067  57.749  1.00  0.00     0.326 C 
HETATM    8  N   UNL     1       6.039  31.890  58.797  1.00  0.00    -0.309 N 
HETATM    9  O   UNL     1       4.853  31.446  56.968  1.00  0.00    -0.247 OA
HETATM   10  H   UNL     1       5.357  32.633  58.895  1.00  0.00     0.170 HD
HETATM   11  H   UNL     1       6.709  29.477  58.581  1.00  0.00     0.172 HD
BRANCH   8  12
HETATM   12  C   UNL     1       7.168  31.961  59.631  1.00  0.00     0.036 A 
HETATM   13  C   UNL     1       7.105  32.084  61.023  1.00  0.00     0.032 A 
HETATM   14  C   UNL     1       8.281  32.103  61.782  1.00  0.00     0.044 A 
HETATM   15  C   UNL     1       9.512  31.987  61.149  1.00  0.00     0.116 A 
HETATM   16  C   UNL     1       9.593  31.844  59.772  1.00  0.00     0.044 A 
HETATM   17  F   UNL     1      10.634  31.999  61.880  1.00  0.00    -0.206 F 
HETATM   18  C   UNL     1       8.420  31.820  59.013  1.00  0.00     0.032 A 
ENDBRANCH   8  12
ENDBRANCH   1   6
BRANCH   4  19
HETATM   19  C   UNL     1       7.234  27.338  53.661  1.00  0.00     0.163 C 
BRANCH  19  20
HETATM   20  C   UNL     1       7.306  25.827  53.486  1.00  0.00     0.227 C 
HETATM   21  N   UNL     1       8.019  25.163  54.467  1.00  0.00    -0.327 N 
HETATM   22  H   UNL     1       8.586  25.754  55.083  1.00  0.00     0.169 HD
HETATM   23  O   UNL     1       6.688  25.292  52.567  1.00  0.00    -0.273 OA
BRANCH  21  24
HETATM   24  C   UNL     1       8.123  23.771  54.668  1.00  0.00     0.036 A 
HETATM   25  C   UNL     1       8.202  22.836  53.632  1.00  0.00     0.056 A 
HETATM   26  C   UNL     1       8.272  21.471  53.924  1.00  0.00     0.074 A 
HETATM   27 CL   UNL     1       8.346  20.330  52.634  1.00  0.00    -0.081 Cl
HETATM   28  C   UNL     1       8.271  21.037  55.247  1.00  0.00     0.138 A 
HETATM   29  F   UNL     1       8.338  19.731  55.544  1.00  0.00    -0.204 F 
HETATM   30  C   UNL     1       8.195  21.955  56.286  1.00  0.00     0.046 A 
HETATM   31  C   UNL     1       8.116  23.319  55.995  1.00  0.00     0.032 A 
ENDBRANCH  21  24
ENDBRANCH  19  20
ENDBRANCH   4  19
TORSDOF 5
ENDMDL
MODEL 10
REMARK VINA RESULT:      -8.8      4.992      6.896
REMARK  5 active torsions:
REMARK  status: ('A' for Active; 'I' for Inactive)
REMARK    1  A    between atoms: C_2  and  N_3 
REMARK       I    between atoms: N_3  and  C_4 
REMARK       I    between atoms: C_4  and  N_5 
REMARK    2  A    between atoms: N_5  and  C_6 
REMARK    3  A    between atoms: C_9  and  C_10 
REMARK    4  A    between atoms: C_10  and  C_11 
REMARK       I    between atoms: C_11  and  N_12 
REMARK    5  A    between atoms: N_12  and  C_13 
ROOT
HETATM    1  C   UNL     1       6.525  25.915  52.838  1.00  0.00     0.174 A 
HETATM    2  S   UNL     1       7.775  24.801  52.527  1.00  0.00    -0.062 SA
HETATM    3  C   UNL     1       7.898  24.500  54.214  1.00  0.00     0.081 A 
HETATM    4  C   UNL     1       6.961  25.254  54.898  1.00  0.00     0.052 A 
HETATM    5  N   UNL     1       6.173  26.062  54.089  1.00  0.00    -0.228 NA
ENDROOT
BRANCH   1   6
HETATM    6  N   UNL     1       6.002  26.513  51.728  1.00  0.00    -0.287 N 
HETATM    7  C   UNL     1       5.855  27.864  51.645  1.00  0.00     0.326 C 
HETATM    8  N   UNL     1       5.226  28.344  50.528  1.00  0.00    -0.309 N 
HETATM    9  O   UNL     1       6.315  28.685  52.436  1.00  0.00    -0.247 OA
HETATM   10  H   UNL     1       5.398  29.336  50.409  1.00  0.00     0.170 HD
HETATM   11  H   UNL     1       5.964  25.968  50.882  1.00  0.00     0.172 HD
BRANCH   8  12
HETATM   12  C   UNL     1       4.309  27.757  49.639  1.00  0.00     0.036 A 
HETATM   13  C   UNL     1       2.990  28.193  49.473  1.00  0.00     0.032 A 
HETATM   14  C   UNL     1       2.158  27.578  48.531  1.00  0.00     0.044 A 
HETATM   15  C   UNL     1       2.649  26.539  47.751  1.00  0.00     0.116 A 
HETATM   16  C   UNL     1       3.961  26.107  47.886  1.00  0.00     0.044 A 
HETATM   17  F   UNL     1       1.851  25.959  46.846  1.00  0.00    -0.206 F 
HETATM   18  C   UNL     1       4.794  26.723  48.823  1.00  0.00     0.032 A 
ENDBRANCH   8  12
ENDBRANCH   1   6
BRANCH   4  19
HETATM   19  C   UNL     1       6.690  25.238  56.367  1.00  0.00     0.163 C 
BRANCH  19  20
HETATM   20  C   UNL     1       7.563  26.183  57.182  1.00  0.00     0.227 C 
HETATM   21  N   UNL     1       7.664  27.464  56.671  1.00  0.00    -0.327 N 
HETATM   22  H   UNL     1       7.320  27.590  55.713  1.00  0.00     0.169 HD
HETATM   23  O   UNL     1       8.048  25.798  58.246  1.00  0.00    -0.273 OA
BRANCH  21  24
HETATM   24  C   UNL     1       8.256  28.591  57.275  1.00  0.00     0.036 A 
HETATM   25  C   UNL     1       7.584  29.457  58.143  1.00  0.00     0.056 A 
HETATM   26  C   UNL     1       8.243  30.571  58.672  1.00  0.00     0.074 A 
HETATM   27 CL   UNL     1       7.392  31.640  59.723  1.00  0.00    -0.081 Cl
HETATM   28  C   UNL     1       9.572  30.819  58.343  1.00  0.00     0.138 A 
HETATM   29  F   UNL     1      10.219  31.883  58.842  1.00  0.00    -0.204 F 
HETATM   30  C   UNL     1      10.253  29.967  57.484  1.00  0.00     0.046 A 
HETATM   31  C   UNL     1       9.593  28.859  56.948  1.00  0.00     0.032 A 
ENDBRANCH  21  24
ENDBRANCH  19  20
ENDBRANCH   4  19
TORSDOF 5
ENDMDL
