MODEL 1
REMARK VINA RESULT:     -10.8      0.000      0.000
REMARK  6 active torsions:
REMARK  status: ('A' for Active; 'I' for Inactive)
REMARK    1  A    between atoms: O_2  and  C_3 
REMARK    2  A    between atoms: C_6  and  N_7 
REMARK       I    between atoms: N_7  and  C_8 
REMARK       I    between atoms: C_8  and  N_9 
REMARK    3  A    between atoms: N_9  and  C_10 
REMARK    4  A    between atoms: C_10  and  C_11 
REMARK       I    between atoms: C_11  and  N_12 
REMARK    5  A    between atoms: N_12  and  N_13 
REMARK       I    between atoms: N_13  and  C_14 
REMARK       I    between atoms: C_14  and  N_15 
REMARK    6  A    between atoms: N_15  and  C_16 
ROOT
HETATM    1  C   UNL     1       7.776  29.008  57.148  1.00  0.00     0.253 C 
HETATM    2  N   UNL     1       7.422  27.721  57.508  1.00  0.00    -0.265 N 
HETATM    3  O   UNL     1       7.170  29.650  56.291  1.00  0.00    -0.270 OA
HETATM    4  H   UNL     1       7.852  27.304  58.337  1.00  0.00     0.190 HD
ENDROOT
BRANCH   2   5
HETATM    5  N   UNL     1       6.182  27.230  57.049  1.00  0.00    -0.249 N 
HETATM    6  C   UNL     1       6.126  26.067  56.299  1.00  0.00     0.339 C 
HETATM    7  N   UNL     1       7.201  25.892  55.456  1.00  0.00    -0.307 N 
HETATM    8  O   UNL     1       5.152  25.329  56.411  1.00  0.00    -0.245 OA
HETATM    9  H   UNL     1       7.698  26.742  55.255  1.00  0.00     0.170 HD
HETATM   10  H   UNL     1       5.445  27.257  57.755  1.00  0.00     0.192 HD
BRANCH   7  11
HETATM   11  C   UNL     1       7.488  24.761  54.646  1.00  0.00     0.047 A 
HETATM   12  C   UNL     1       7.867  23.522  55.256  1.00  0.00     0.001 A 
HETATM   13  C   UNL     1       8.153  22.413  54.414  1.00  0.00    -0.024 A 
HETATM   14  C   UNL     1       7.997  23.310  56.654  1.00  0.00     0.014 A 
HETATM   15  C   UNL     1       8.554  21.183  54.963  1.00  0.00     0.012 A 
HETATM   16  C   UNL     1       8.042  22.536  53.024  1.00  0.00     0.012 A 
HETATM   17  C   UNL     1       8.679  21.017  56.340  1.00  0.00     0.001 A 
HETATM   18  C   UNL     1       8.399  22.080  57.185  1.00  0.00     0.001 A 
HETATM   19  C   UNL     1       7.652  23.737  52.445  1.00  0.00     0.003 A 
HETATM   20  C   UNL     1       7.377  24.838  53.251  1.00  0.00     0.030 A 
ENDBRANCH   7  11
ENDBRANCH   2   5
BRANCH   1  21
HETATM   21  C   UNL     1       8.859  29.636  58.030  1.00  0.00     0.228 C 
BRANCH  21  22
HETATM   22  N   UNL     1       8.463  30.786  58.825  1.00  0.00    -0.334 N 
HETATM   23  C   UNL     1       9.315  31.778  59.192  1.00  0.00     0.321 C 
HETATM   24  N   UNL     1       8.851  32.678  60.102  1.00  0.00    -0.309 N 
HETATM   25  O   UNL     1      10.420  31.919  58.668  1.00  0.00    -0.247 OA
HETATM   26  H   UNL     1       9.394  33.533  60.119  1.00  0.00     0.170 HD
HETATM   27  H   UNL     1       7.476  30.998  58.902  1.00  0.00     0.164 HD
BRANCH  24  28
HETATM   28  C   UNL     1       7.948  32.506  61.172  1.00  0.00     0.036 A 
HETATM   29  C   UNL     1       8.340  32.337  62.503  1.00  0.00     0.032 A 
HETATM   30  C   UNL     1       7.386  32.283  63.529  1.00  0.00     0.039 A 
HETATM   31  C   UNL     1       6.031  32.408  63.237  1.00  0.00     0.068 A 
HETATM   32  C   UNL     1       5.633  32.548  61.908  1.00  0.00     0.039 A 
HETATM   33  C   UNL     1       6.584  32.612  60.883  1.00  0.00     0.032 A 
BRANCH  31  34
HETATM   34  O   UNL     1       5.015  32.402  64.151  1.00  0.00    -0.356 OA
HETATM   35  C   UNL     1       4.978  33.502  65.054  1.00  0.00     0.210 C 
ENDBRANCH  31  34
ENDBRANCH  24  28
ENDBRANCH  21  22
ENDBRANCH   1  21
TORSDOF 6
ENDMDL
MODEL 2
REMARK VINA RESULT:     -10.6      1.335      2.353
REMARK  6 active torsions:
REMARK  status: ('A' for Active; 'I' for Inactive)
REMARK    1  A    between atoms: O_2  and  C_3 
REMARK    2  A    between atoms: C_6  and  N_7 
REMARK       I    between atoms: N_7  and  C_8 
REMARK       I    between atoms: C_8  and  N_9 
REMARK    3  A    between atoms: N_9  and  C_10 
REMARK    4  A    between atoms: C_10  and  C_11 
REMARK       I    between atoms: C_11  and  N_12 
REMARK    5  A    between atoms: N_12  and  N_13 
REMARK       I    between atoms: N_13  and  C_14 
REMARK       I    between atoms: C_14  and  N_15 
REMARK    6  A    between atoms: N_15  and  C_16 
ROOT
HETATM    1  C   UNL     1       7.607  28.403  56.528  1.00  0.00     0.253 C 
HETATM    2  N   UNL     1       7.744  27.805  55.290  1.00  0.00    -0.265 N 
HETATM    3  O   UNL     1       6.532  28.458  57.126  1.00  0.00    -0.270 OA
HETATM    4  H   UNL     1       8.684  27.642  54.922  1.00  0.00     0.190 HD
ENDROOT
BRANCH   2   5
HETATM    5  N   UNL     1       6.669  27.024  54.817  1.00  0.00    -0.249 N 
HETATM    6  C   UNL     1       6.566  25.689  55.172  1.00  0.00     0.339 C 
HETATM    7  N   UNL     1       7.778  25.047  55.293  1.00  0.00    -0.307 N 
HETATM    8  O   UNL     1       5.452  25.192  55.313  1.00  0.00    -0.245 OA
HETATM    9  H   UNL     1       8.529  25.510  54.811  1.00  0.00     0.170 HD
HETATM   10  H   UNL     1       5.766  27.498  54.872  1.00  0.00     0.192 HD
BRANCH   7  11
HETATM   11  C   UNL     1       8.010  23.720  55.744  1.00  0.00     0.047 A 
HETATM   12  C   UNL     1       8.071  22.645  54.800  1.00  0.00     0.001 A 
HETATM   13  C   UNL     1       8.299  21.329  55.288  1.00  0.00    -0.024 A 
HETATM   14  C   UNL     1       7.907  22.784  53.397  1.00  0.00     0.014 A 
HETATM   15  C   UNL     1       8.342  20.238  54.405  1.00  0.00     0.012 A 
HETATM   16  C   UNL     1       8.478  21.106  56.658  1.00  0.00     0.012 A 
HETATM   17  C   UNL     1       8.167  20.413  53.035  1.00  0.00     0.001 A 
HETATM   18  C   UNL     1       7.951  21.687  52.531  1.00  0.00     0.001 A 
HETATM   19  C   UNL     1       8.438  22.161  57.562  1.00  0.00     0.003 A 
HETATM   20  C   UNL     1       8.207  23.456  57.106  1.00  0.00     0.030 A 
ENDBRANCH   7  11
ENDBRANCH   2   5
BRANCH   1  21
HETATM   21  C   UNL     1       8.928  28.824  57.178  1.00  0.00     0.228 C 
BRANCH  21  22
HETATM   22  N   UNL     1       8.916  30.070  57.926  1.00  0.00    -0.334 N 
HETATM   23  C   UNL     1      10.022  30.827  58.147  1.00  0.00     0.321 C 
HETATM   24  N   UNL     1       9.894  31.853  59.033  1.00  0.00    -0.309 N 
HETATM   25  O   UNL     1      11.066  30.660  57.517  1.00  0.00    -0.247 OA
HETATM   26  H   UNL     1      10.631  32.542  58.943  1.00  0.00     0.170 HD
HETATM   27  H   UNL     1       8.026  30.529  58.077  1.00  0.00     0.164 HD
BRANCH  24  28
HETATM   28  C   UNL     1       9.093  31.963  60.189  1.00  0.00     0.036 A 
HETATM   29  C   UNL     1       9.558  31.722  61.484  1.00  0.00     0.032 A 
HETATM   30  C   UNL     1       8.737  31.957  62.596  1.00  0.00     0.039 A 
HETATM   31  C   UNL     1       7.444  32.446  62.424  1.00  0.00     0.068 A 
HETATM   32  C   UNL     1       6.966  32.661  61.132  1.00  0.00     0.039 A 
HETATM   33  C   UNL     1       7.788  32.435  60.022  1.00  0.00     0.032 A 
BRANCH  31  34
HETATM   34  O   UNL     1       6.565  32.742  63.428  1.00  0.00    -0.356 OA
HETATM   35  C   UNL     1       7.132  33.276  64.621  1.00  0.00     0.210 C 
ENDBRANCH  31  34
ENDBRANCH  24  28
ENDBRANCH  21  22
ENDBRANCH   1  21
TORSDOF 6
ENDMDL
MODEL 3
REMARK VINA RESULT:     -10.3      1.739     11.192
REMARK  6 active torsions:
REMARK  status: ('A' for Active; 'I' for Inactive)
REMARK    1  A    between atoms: O_2  and  C_3 
REMARK    2  A    between atoms: C_6  and  N_7 
REMARK       I    between atoms: N_7  and  C_8 
REMARK       I    between atoms: C_8  and  N_9 
REMARK    3  A    between atoms: N_9  and  C_10 
REMARK    4  A    between atoms: C_10  and  C_11 
REMARK       I    between atoms: C_11  and  N_12 
REMARK    5  A    between atoms: N_12  and  N_13 
REMARK       I    between atoms: N_13  and  C_14 
REMARK       I    between atoms: C_14  and  N_15 
REMARK    6  A    between atoms: N_15  and  C_16 
ROOT
HETATM    1  C   UNL     1       7.293  28.966  57.631  1.00  0.00     0.253 C 
HETATM    2  N   UNL     1       7.951  29.597  58.670  1.00  0.00    -0.265 N 
HETATM    3  O   UNL     1       6.801  29.580  56.684  1.00  0.00    -0.270 OA
HETATM    4  H   UNL     1       8.481  29.031  59.336  1.00  0.00     0.190 HD
ENDROOT
BRANCH   2   5
HETATM    5  N   UNL     1       8.275  30.961  58.508  1.00  0.00    -0.249 N 
HETATM    6  C   UNL     1       8.260  31.817  59.597  1.00  0.00     0.339 C 
HETATM    7  N   UNL     1       7.282  31.529  60.521  1.00  0.00    -0.307 N 
HETATM    8  O   UNL     1       9.062  32.745  59.638  1.00  0.00    -0.245 OA
HETATM    9  H   UNL     1       6.529  30.974  60.152  1.00  0.00     0.170 HD
HETATM   10  H   UNL     1       9.094  31.118  57.917  1.00  0.00     0.192 HD
BRANCH   7  11
HETATM   11  C   UNL     1       7.079  32.148  61.784  1.00  0.00     0.047 A 
HETATM   12  C   UNL     1       5.792  32.678  62.122  1.00  0.00     0.001 A 
HETATM   13  C   UNL     1       5.627  33.296  63.391  1.00  0.00    -0.024 A 
HETATM   14  C   UNL     1       4.653  32.649  61.275  1.00  0.00     0.014 A 
HETATM   15  C   UNL     1       4.391  33.854  63.759  1.00  0.00     0.012 A 
HETATM   16  C   UNL     1       6.700  33.360  64.289  1.00  0.00     0.012 A 
HETATM   17  C   UNL     1       3.299  33.814  62.897  1.00  0.00     0.001 A 
HETATM   18  C   UNL     1       3.429  33.210  61.655  1.00  0.00     0.001 A 
HETATM   19  C   UNL     1       7.937  32.823  63.958  1.00  0.00     0.003 A 
HETATM   20  C   UNL     1       8.123  32.221  62.716  1.00  0.00     0.030 A 
ENDBRANCH   7  11
ENDBRANCH   2   5
BRANCH   1  21
HETATM   21  C   UNL     1       7.388  27.438  57.658  1.00  0.00     0.228 C 
BRANCH  21  22
HETATM   22  N   UNL     1       6.977  26.741  56.451  1.00  0.00    -0.334 N 
HETATM   23  C   UNL     1       5.693  26.393  56.182  1.00  0.00     0.321 C 
HETATM   24  N   UNL     1       5.492  25.568  55.117  1.00  0.00    -0.309 N 
HETATM   25  O   UNL     1       4.742  26.864  56.806  1.00  0.00    -0.247 OA
HETATM   26  H   UNL     1       4.534  25.576  54.790  1.00  0.00     0.170 HD
HETATM   27  H   UNL     1       7.614  26.731  55.663  1.00  0.00     0.164 HD
BRANCH  24  28
HETATM   28  C   UNL     1       6.306  24.540  54.597  1.00  0.00     0.036 A 
HETATM   29  C   UNL     1       6.656  24.431  53.248  1.00  0.00     0.032 A 
HETATM   30  C   UNL     1       7.558  23.447  52.819  1.00  0.00     0.039 A 
HETATM   31  C   UNL     1       8.130  22.570  53.736  1.00  0.00     0.068 A 
HETATM   32  C   UNL     1       7.763  22.657  55.079  1.00  0.00     0.039 A 
HETATM   33  C   UNL     1       6.870  23.643  55.510  1.00  0.00     0.032 A 
BRANCH  31  34
HETATM   34  O   UNL     1       9.042  21.595  53.444  1.00  0.00    -0.356 OA
HETATM   35  C   UNL     1       8.521  20.398  52.876  1.00  0.00     0.210 C 
ENDBRANCH  31  34
ENDBRANCH  24  28
ENDBRANCH  21  22
ENDBRANCH   1  21
TORSDOF 6
ENDMDL
MODEL 4
REMARK VINA RESULT:     -10.1      1.976      2.502
REMARK  6 active torsions:
REMARK  status: ('A' for Active; 'I' for Inactive)
REMARK    1  A    between atoms: O_2  and  C_3 
REMARK    2  A    between atoms: C_6  and  N_7 
REMARK       I    between atoms: N_7  and  C_8 
REMARK       I    between atoms: C_8  and  N_9 
REMARK    3  A    between atoms: N_9  and  C_10 
REMARK    4  A    between atoms: C_10  and  C_11 
REMARK       I    between atoms: C_11  and  N_12 
REMARK    5  A    between atoms: N_12  and  N_13 
REMARK       I    between atoms: N_13  and  C_14 
REMARK       I    between atoms: C_14  and  N_15 
REMARK    6  A    between atoms: N_15  and  C_16 
ROOT
HETATM    1  C   UNL     1       7.342  28.074  57.829  1.00  0.00     0.253 C 
HETATM    2  N   UNL     1       6.825  26.805  58.013  1.00  0.00    -0.265 N 
HETATM    3  O   UNL     1       8.532  28.338  57.994  1.00  0.00    -0.270 OA
HETATM    4  H   UNL     1       5.871  26.610  57.702  1.00  0.00     0.190 HD
ENDROOT
BRANCH   2   5
HETATM    5  N   UNL     1       7.739  25.740  58.157  1.00  0.00    -0.249 N 
HETATM    6  C   UNL     1       8.228  25.084  57.040  1.00  0.00     0.339 C 
HETATM    7  N   UNL     1       7.317  24.970  56.014  1.00  0.00    -0.307 N 
HETATM    8  O   UNL     1       9.374  24.644  57.059  1.00  0.00    -0.245 OA
HETATM    9  H   UNL     1       6.362  25.074  56.310  1.00  0.00     0.170 HD
HETATM   10  H   UNL     1       8.478  25.926  58.837  1.00  0.00     0.192 HD
BRANCH   7  11
HETATM   11  C   UNL     1       7.544  24.452  54.711  1.00  0.00     0.047 A 
HETATM   12  C   UNL     1       7.696  23.040  54.520  1.00  0.00     0.001 A 
HETATM   13  C   UNL     1       7.929  22.558  53.203  1.00  0.00    -0.024 A 
HETATM   14  C   UNL     1       7.646  22.069  55.554  1.00  0.00     0.014 A 
HETATM   15  C   UNL     1       8.110  21.185  52.968  1.00  0.00     0.012 A 
HETATM   16  C   UNL     1       7.986  23.449  52.125  1.00  0.00     0.012 A 
HETATM   17  C   UNL     1       8.063  20.263  54.010  1.00  0.00     0.001 A 
HETATM   18  C   UNL     1       7.829  20.706  55.304  1.00  0.00     0.001 A 
HETATM   19  C   UNL     1       7.816  24.814  52.321  1.00  0.00     0.003 A 
HETATM   20  C   UNL     1       7.596  25.308  53.603  1.00  0.00     0.030 A 
ENDBRANCH   7  11
ENDBRANCH   2   5
BRANCH   1  21
HETATM   21  C   UNL     1       6.355  29.077  57.225  1.00  0.00     0.228 C 
BRANCH  21  22
HETATM   22  N   UNL     1       5.917  30.159  58.090  1.00  0.00    -0.334 N 
HETATM   23  C   UNL     1       5.627  31.409  57.646  1.00  0.00     0.321 C 
HETATM   24  N   UNL     1       5.429  32.365  58.595  1.00  0.00    -0.309 N 
HETATM   25  O   UNL     1       5.461  31.657  56.452  1.00  0.00    -0.247 OA
HETATM   26  H   UNL     1       4.944  33.179  58.236  1.00  0.00     0.170 HD
HETATM   27  H   UNL     1       5.569  29.924  59.012  1.00  0.00     0.164 HD
BRANCH  24  28
HETATM   28  C   UNL     1       6.013  32.515  59.871  1.00  0.00     0.036 A 
HETATM   29  C   UNL     1       5.279  32.704  61.045  1.00  0.00     0.032 A 
HETATM   30  C   UNL     1       5.919  32.735  62.292  1.00  0.00     0.039 A 
HETATM   31  C   UNL     1       7.298  32.566  62.379  1.00  0.00     0.068 A 
HETATM   32  C   UNL     1       8.037  32.404  61.208  1.00  0.00     0.039 A 
HETATM   33  C   UNL     1       7.400  32.365  59.964  1.00  0.00     0.032 A 
BRANCH  31  34
HETATM   34  O   UNL     1       8.026  32.545  63.535  1.00  0.00    -0.356 OA
HETATM   35  C   UNL     1       7.536  33.353  64.601  1.00  0.00     0.210 C 
ENDBRANCH  31  34
ENDBRANCH  24  28
ENDBRANCH  21  22
ENDBRANCH   1  21
TORSDOF 6
ENDMDL
MODEL 5
REMARK VINA RESULT:     -10.0      1.625      2.764
REMARK  6 active torsions:
REMARK  status: ('A' for Active; 'I' for Inactive)
REMARK    1  A    between atoms: O_2  and  C_3 
REMARK    2  A    between atoms: C_6  and  N_7 
REMARK       I    between atoms: N_7  and  C_8 
REMARK       I    between atoms: C_8  and  N_9 
REMARK    3  A    between atoms: N_9  and  C_10 
REMARK    4  A    between atoms: C_10  and  C_11 
REMARK       I    between atoms: C_11  and  N_12 
REMARK    5  A    between atoms: N_12  and  N_13 
REMARK       I    between atoms: N_13  and  C_14 
REMARK       I    between atoms: C_14  and  N_15 
REMARK    6  A    between atoms: N_15  and  C_16 
ROOT
HETATM    1  C   UNL     1       4.871  30.133  57.103  1.00  0.00     0.253 C 
HETATM    2  N   UNL     1       5.065  29.087  56.220  1.00  0.00    -0.265 N 
HETATM    3  O   UNL     1       3.979  30.133  57.951  1.00  0.00    -0.270 OA
HETATM    4  H   UNL     1       5.917  29.068  55.657  1.00  0.00     0.190 HD
ENDROOT
BRANCH   2   5
HETATM    5  N   UNL     1       4.369  27.885  56.468  1.00  0.00    -0.249 N 
HETATM    6  C   UNL     1       5.065  26.710  56.696  1.00  0.00     0.339 C 
HETATM    7  N   UNL     1       6.231  26.601  55.973  1.00  0.00    -0.307 N 
HETATM    8  O   UNL     1       4.595  25.876  57.465  1.00  0.00    -0.245 OA
HETATM    9  H   UNL     1       6.263  27.199  55.165  1.00  0.00     0.170 HD
HETATM   10  H   UNL     1       3.589  27.992  57.118  1.00  0.00     0.192 HD
BRANCH   7  11
HETATM   11  C   UNL     1       7.211  25.576  56.064  1.00  0.00     0.047 A 
HETATM   12  C   UNL     1       7.387  24.656  54.980  1.00  0.00     0.001 A 
HETATM   13  C   UNL     1       8.372  23.640  55.110  1.00  0.00    -0.024 A 
HETATM   14  C   UNL     1       6.638  24.668  53.774  1.00  0.00     0.014 A 
HETATM   15  C   UNL     1       8.566  22.698  54.085  1.00  0.00     0.012 A 
HETATM   16  C   UNL     1       9.159  23.563  56.265  1.00  0.00     0.012 A 
HETATM   17  C   UNL     1       7.805  22.736  52.920  1.00  0.00     0.001 A 
HETATM   18  C   UNL     1       6.842  23.722  52.764  1.00  0.00     0.001 A 
HETATM   19  C   UNL     1       8.993  24.474  57.301  1.00  0.00     0.003 A 
HETATM   20  C   UNL     1       8.028  25.472  57.198  1.00  0.00     0.030 A 
ENDBRANCH   7  11
ENDBRANCH   2   5
BRANCH   1  21
HETATM   21  C   UNL     1       5.966  31.203  57.066  1.00  0.00     0.228 C 
BRANCH  21  22
HETATM   22  N   UNL     1       6.783  31.339  58.260  1.00  0.00    -0.334 N 
HETATM   23  C   UNL     1       7.441  30.304  58.844  1.00  0.00     0.321 C 
HETATM   24  N   UNL     1       7.995  30.543  60.066  1.00  0.00    -0.309 N 
HETATM   25  O   UNL     1       7.612  29.229  58.270  1.00  0.00    -0.247 OA
HETATM   26  H   UNL     1       8.699  29.860  60.317  1.00  0.00     0.170 HD
HETATM   27  H   UNL     1       7.085  32.266  58.531  1.00  0.00     0.164 HD
BRANCH  24  28
HETATM   28  C   UNL     1       7.565  31.390  61.109  1.00  0.00     0.036 A 
HETATM   29  C   UNL     1       6.270  31.905  61.211  1.00  0.00     0.032 A 
HETATM   30  C   UNL     1       5.881  32.650  62.333  1.00  0.00     0.039 A 
HETATM   31  C   UNL     1       6.781  32.878  63.371  1.00  0.00     0.068 A 
HETATM   32  C   UNL     1       8.082  32.390  63.262  1.00  0.00     0.039 A 
HETATM   33  C   UNL     1       8.469  31.638  62.147  1.00  0.00     0.032 A 
BRANCH  31  34
HETATM   34  O   UNL     1       6.509  33.560  64.524  1.00  0.00    -0.356 OA
HETATM   35  C   UNL     1       5.150  33.554  64.951  1.00  0.00     0.210 C 
ENDBRANCH  31  34
ENDBRANCH  24  28
ENDBRANCH  21  22
ENDBRANCH   1  21
TORSDOF 6
ENDMDL
MODEL 6
REMARK VINA RESULT:     -10.0      2.832      4.629
REMARK  6 active torsions:
REMARK  status: ('A' for Active; 'I' for Inactive)
REMARK    1  A    between atoms: O_2  and  C_3 
REMARK    2  A    between atoms: C_6  and  N_7 
REMARK       I    between atoms: N_7  and  C_8 
REMARK       I    between atoms: C_8  and  N_9 
REMARK    3  A    between atoms: N_9  and  C_10 
REMARK    4  A    between atoms: C_10  and  C_11 
REMARK       I    between atoms: C_11  and  N_12 
REMARK    5  A    between atoms: N_12  and  N_13 
REMARK       I    between atoms: N_13  and  C_14 
REMARK       I    between atoms: C_14  and  N_15 
REMARK    6  A    between atoms: N_15  and  C_16 
ROOT
HETATM    1  C   UNL     1       4.035  28.942  52.895  1.00  0.00     0.253 C 
HETATM    2  N   UNL     1       4.954  27.925  52.718  1.00  0.00    -0.265 N 
HETATM    3  O   UNL     1       2.867  28.859  52.514  1.00  0.00    -0.270 OA
HETATM    4  H   UNL     1       5.853  27.982  53.200  1.00  0.00     0.190 HD
ENDROOT
BRANCH   2   5
HETATM    5  N   UNL     1       4.466  26.667  52.305  1.00  0.00    -0.249 N 
HETATM    6  C   UNL     1       5.033  25.503  52.798  1.00  0.00     0.339 C 
HETATM    7  N   UNL     1       6.390  25.590  53.015  1.00  0.00    -0.307 N 
HETATM    8  O   UNL     1       4.323  24.516  52.965  1.00  0.00    -0.245 OA
HETATM    9  H   UNL     1       6.833  26.333  52.504  1.00  0.00     0.170 HD
HETATM   10  H   UNL     1       3.447  26.610  52.288  1.00  0.00     0.192 HD
BRANCH   7  11
HETATM   11  C   UNL     1       7.233  24.613  53.609  1.00  0.00     0.047 A 
HETATM   12  C   UNL     1       7.624  24.745  54.981  1.00  0.00     0.001 A 
HETATM   13  C   UNL     1       8.474  23.752  55.540  1.00  0.00    -0.024 A 
HETATM   14  C   UNL     1       7.240  25.810  55.837  1.00  0.00     0.014 A 
HETATM   15  C   UNL     1       8.906  23.851  56.873  1.00  0.00     0.012 A 
HETATM   16  C   UNL     1       8.894  22.665  54.765  1.00  0.00     0.012 A 
HETATM   17  C   UNL     1       8.515  24.916  57.680  1.00  0.00     0.001 A 
HETATM   18  C   UNL     1       7.680  25.895  57.162  1.00  0.00     0.001 A 
HETATM   19  C   UNL     1       8.490  22.536  53.442  1.00  0.00     0.003 A 
HETATM   20  C   UNL     1       7.666  23.502  52.871  1.00  0.00     0.030 A 
ENDBRANCH   7  11
ENDBRANCH   2   5
BRANCH   1  21
HETATM   21  C   UNL     1       4.532  30.099  53.767  1.00  0.00     0.228 C 
BRANCH  21  22
HETATM   22  N   UNL     1       5.361  29.744  54.906  1.00  0.00    -0.334 N 
HETATM   23  C   UNL     1       4.945  28.942  55.920  1.00  0.00     0.321 C 
HETATM   24  N   UNL     1       5.755  28.866  57.013  1.00  0.00    -0.309 N 
HETATM   25  O   UNL     1       3.935  28.244  55.831  1.00  0.00    -0.247 OA
HETATM   26  H   UNL     1       5.557  28.059  57.591  1.00  0.00     0.170 HD
HETATM   27  H   UNL     1       6.361  29.884  54.833  1.00  0.00     0.164 HD
BRANCH  24  28
HETATM   28  C   UNL     1       6.599  29.839  57.588  1.00  0.00     0.036 A 
HETATM   29  C   UNL     1       6.136  30.998  58.218  1.00  0.00     0.032 A 
HETATM   30  C   UNL     1       7.026  31.866  58.865  1.00  0.00     0.039 A 
HETATM   31  C   UNL     1       8.388  31.580  58.899  1.00  0.00     0.068 A 
HETATM   32  C   UNL     1       8.858  30.440  58.248  1.00  0.00     0.039 A 
HETATM   33  C   UNL     1       7.970  29.567  57.610  1.00  0.00     0.032 A 
BRANCH  31  34
HETATM   34  O   UNL     1       9.344  32.330  59.523  1.00  0.00    -0.356 OA
HETATM   35  C   UNL     1       9.605  32.009  60.885  1.00  0.00     0.210 C 
ENDBRANCH  31  34
ENDBRANCH  24  28
ENDBRANCH  21  22
ENDBRANCH   1  21
TORSDOF 6
ENDMDL
MODEL 7
REMARK VINA RESULT:      -9.8      2.113      2.641
REMARK  6 active torsions:
REMARK  status: ('A' for Active; 'I' for Inactive)
REMARK    1  A    between atoms: O_2  and  C_3 
REMARK    2  A    between atoms: C_6  and  N_7 
REMARK       I    between atoms: N_7  and  C_8 
REMARK       I    between atoms: C_8  and  N_9 
REMARK    3  A    between atoms: N_9  and  C_10 
REMARK    4  A    between atoms: C_10  and  C_11 
REMARK       I    between atoms: C_11  and  N_12 
REMARK    5  A    between atoms: N_12  and  N_13 
REMARK       I    between atoms: N_13  and  C_14 
REMARK       I    between atoms: C_14  and  N_15 
REMARK    6  A    between atoms: N_15  and  C_16 
ROOT
HETATM    1  C   UNL     1       6.045  29.150  57.124  1.00  0.00     0.253 C 
HETATM    2  N   UNL     1       6.441  29.628  55.889  1.00  0.00    -0.265 N 
HETATM    3  O   UNL     1       6.748  28.406  57.807  1.00  0.00    -0.270 OA
HETATM    4  H   UNL     1       5.893  30.369  55.448  1.00  0.00     0.190 HD
ENDROOT
BRANCH   2   5
HETATM    5  N   UNL     1       7.791  29.450  55.521  1.00  0.00    -0.249 N 
HETATM    6  C   UNL     1       8.158  28.394  54.703  1.00  0.00     0.339 C 
HETATM    7  N   UNL     1       7.426  27.247  54.908  1.00  0.00    -0.307 N 
HETATM    8  O   UNL     1       9.088  28.543  53.916  1.00  0.00    -0.245 OA
HETATM    9  H   UNL     1       6.969  27.214  55.803  1.00  0.00     0.170 HD
HETATM   10  H   UNL     1       8.257  30.317  55.248  1.00  0.00     0.192 HD
BRANCH   7  11
HETATM   11  C   UNL     1       7.488  26.039  54.163  1.00  0.00     0.047 A 
HETATM   12  C   UNL     1       7.745  24.798  54.831  1.00  0.00     0.001 A 
HETATM   13  C   UNL     1       7.806  23.611  54.051  1.00  0.00    -0.024 A 
HETATM   14  C   UNL     1       7.961  24.656  56.226  1.00  0.00     0.014 A 
HETATM   15  C   UNL     1       8.080  22.373  54.656  1.00  0.00     0.012 A 
HETATM   16  C   UNL     1       7.598  23.663  52.668  1.00  0.00     0.012 A 
HETATM   17  C   UNL     1       8.296  22.274  56.028  1.00  0.00     0.001 A 
HETATM   18  C   UNL     1       8.234  23.416  56.814  1.00  0.00     0.001 A 
HETATM   19  C   UNL     1       7.328  24.870  52.035  1.00  0.00     0.003 A 
HETATM   20  C   UNL     1       7.273  26.046  52.778  1.00  0.00     0.030 A 
ENDBRANCH   7  11
ENDBRANCH   2   5
BRANCH   1  21
HETATM   21  C   UNL     1       4.747  29.766  57.654  1.00  0.00     0.228 C 
BRANCH  21  22
HETATM   22  N   UNL     1       4.886  30.890  58.565  1.00  0.00    -0.334 N 
HETATM   23  C   UNL     1       5.204  32.149  58.166  1.00  0.00     0.321 C 
HETATM   24  N   UNL     1       5.499  33.046  59.148  1.00  0.00    -0.309 N 
HETATM   25  O   UNL     1       5.144  32.496  56.987  1.00  0.00    -0.247 OA
HETATM   26  H   UNL     1       5.441  34.006  58.831  1.00  0.00     0.170 HD
HETATM   27  H   UNL     1       4.492  30.805  59.494  1.00  0.00     0.164 HD
BRANCH  24  28
HETATM   28  C   UNL     1       6.116  32.852  60.402  1.00  0.00     0.036 A 
HETATM   29  C   UNL     1       7.433  32.412  60.562  1.00  0.00     0.032 A 
HETATM   30  C   UNL     1       8.016  32.348  61.835  1.00  0.00     0.039 A 
HETATM   31  C   UNL     1       7.293  32.733  62.961  1.00  0.00     0.068 A 
HETATM   32  C   UNL     1       5.970  33.146  62.808  1.00  0.00     0.039 A 
HETATM   33  C   UNL     1       5.389  33.219  61.538  1.00  0.00     0.032 A 
BRANCH  31  34
HETATM   34  O   UNL     1       7.763  32.744  64.244  1.00  0.00    -0.356 OA
HETATM   35  C   UNL     1       7.169  33.695  65.122  1.00  0.00     0.210 C 
ENDBRANCH  31  34
ENDBRANCH  24  28
ENDBRANCH  21  22
ENDBRANCH   1  21
TORSDOF 6
ENDMDL
MODEL 8
REMARK VINA RESULT:      -9.7      1.790      2.876
REMARK  6 active torsions:
REMARK  status: ('A' for Active; 'I' for Inactive)
REMARK    1  A    between atoms: O_2  and  C_3 
REMARK    2  A    between atoms: C_6  and  N_7 
REMARK       I    between atoms: N_7  and  C_8 
REMARK       I    between atoms: C_8  and  N_9 
REMARK    3  A    between atoms: N_9  and  C_10 
REMARK    4  A    between atoms: C_10  and  C_11 
REMARK       I    between atoms: C_11  and  N_12 
REMARK    5  A    between atoms: N_12  and  N_13 
REMARK       I    between atoms: N_13  and  C_14 
REMARK       I    between atoms: C_14  and  N_15 
REMARK    6  A    between atoms: N_15  and  C_16 
ROOT
HETATM    1  C   UNL     1       7.896  30.160  58.372  1.00  0.00     0.253 C 
HETATM    2  N   UNL     1       7.745  28.811  58.109  1.00  0.00    -0.265 N 
HETATM    3  O   UNL     1       7.130  31.015  57.928  1.00  0.00    -0.270 OA
HETATM    4  H   UNL     1       8.307  28.139  58.636  1.00  0.00     0.190 HD
ENDROOT
BRANCH   2   5
HETATM    5  N   UNL     1       6.536  28.391  57.516  1.00  0.00    -0.249 N 
HETATM    6  C   UNL     1       6.398  27.091  57.057  1.00  0.00     0.339 C 
HETATM    7  N   UNL     1       7.553  26.558  56.531  1.00  0.00    -0.307 N 
HETATM    8  O   UNL     1       5.299  26.549  57.122  1.00  0.00    -0.245 OA
HETATM    9  H   UNL     1       8.226  27.250  56.253  1.00  0.00     0.170 HD
HETATM   10  H   UNL     1       5.705  28.702  58.020  1.00  0.00     0.192 HD
BRANCH   7  11
HETATM   11  C   UNL     1       7.762  25.226  56.083  1.00  0.00     0.047 A 
HETATM   12  C   UNL     1       7.747  24.933  54.681  1.00  0.00     0.001 A 
HETATM   13  C   UNL     1       7.953  23.587  54.269  1.00  0.00    -0.024 A 
HETATM   14  C   UNL     1       7.527  25.886  53.653  1.00  0.00     0.014 A 
HETATM   15  C   UNL     1       7.923  23.245  52.907  1.00  0.00     0.012 A 
HETATM   16  C   UNL     1       8.184  22.586  55.220  1.00  0.00     0.012 A 
HETATM   17  C   UNL     1       7.695  24.208  51.928  1.00  0.00     0.001 A 
HETATM   18  C   UNL     1       7.499  25.529  52.301  1.00  0.00     0.001 A 
HETATM   19  C   UNL     1       8.217  22.887  56.576  1.00  0.00     0.003 A 
HETATM   20  C   UNL     1       8.008  24.196  57.001  1.00  0.00     0.030 A 
ENDBRANCH   7  11
ENDBRANCH   2   5
BRANCH   1  21
HETATM   21  C   UNL     1       8.976  30.485  59.407  1.00  0.00     0.228 C 
BRANCH  21  22
HETATM   22  N   UNL     1       8.559  31.273  60.555  1.00  0.00    -0.334 N 
HETATM   23  C   UNL     1       8.685  30.856  61.841  1.00  0.00     0.321 C 
HETATM   24  N   UNL     1       8.066  31.609  62.792  1.00  0.00    -0.309 N 
HETATM   25  O   UNL     1       9.393  29.898  62.153  1.00  0.00    -0.247 OA
HETATM   26  H   UNL     1       8.422  31.433  63.724  1.00  0.00     0.170 HD
HETATM   27  H   UNL     1       8.403  32.265  60.424  1.00  0.00     0.164 HD
BRANCH  24  28
HETATM   28  C   UNL     1       6.872  32.358  62.725  1.00  0.00     0.036 A 
HETATM   29  C   UNL     1       6.831  33.740  62.520  1.00  0.00     0.032 A 
HETATM   30  C   UNL     1       5.606  34.402  62.354  1.00  0.00     0.039 A 
HETATM   31  C   UNL     1       4.411  33.688  62.380  1.00  0.00     0.068 A 
HETATM   32  C   UNL     1       4.446  32.314  62.612  1.00  0.00     0.039 A 
HETATM   33  C   UNL     1       5.668  31.650  62.769  1.00  0.00     0.032 A 
BRANCH  31  34
HETATM   34  O   UNL     1       3.164  34.217  62.199  1.00  0.00    -0.356 OA
HETATM   35  C   UNL     1       3.066  35.636  62.278  1.00  0.00     0.210 C 
ENDBRANCH  31  34
ENDBRANCH  24  28
ENDBRANCH  21  22
ENDBRANCH   1  21
TORSDOF 6
ENDMDL
MODEL 9
REMARK VINA RESULT:      -9.5      2.843     11.250
REMARK  6 active torsions:
REMARK  status: ('A' for Active; 'I' for Inactive)
REMARK    1  A    between atoms: O_2  and  C_3 
REMARK    2  A    between atoms: C_6  and  N_7 
REMARK       I    between atoms: N_7  and  C_8 
REMARK       I    between atoms: C_8  and  N_9 
REMARK    3  A    between atoms: N_9  and  C_10 
REMARK    4  A    between atoms: C_10  and  C_11 
REMARK       I    between atoms: C_11  and  N_12 
REMARK    5  A    between atoms: N_12  and  N_13 
REMARK       I    between atoms: N_13  and  C_14 
REMARK       I    between atoms: C_14  and  N_15 
REMARK    6  A    between atoms: N_15  and  C_16 
ROOT
HETATM    1  C   UNL     1       8.556  31.710  60.924  1.00  0.00     0.253 C 
HETATM    2  N   UNL     1       7.179  31.598  60.959  1.00  0.00    -0.265 N 
HETATM    3  O   UNL     1       9.260  31.604  61.928  1.00  0.00    -0.270 OA
HETATM    4  H   UNL     1       6.666  31.528  60.078  1.00  0.00     0.190 HD
ENDROOT
BRANCH   2   5
HETATM    5  N   UNL     1       6.593  31.105  62.144  1.00  0.00    -0.249 N 
HETATM    6  C   UNL     1       5.725  31.898  62.877  1.00  0.00     0.339 C 
HETATM    7  N   UNL     1       6.048  33.236  62.867  1.00  0.00    -0.307 N 
HETATM    8  O   UNL     1       4.796  31.369  63.479  1.00  0.00    -0.245 OA
HETATM    9  H   UNL     1       7.006  33.418  62.623  1.00  0.00     0.170 HD
HETATM   10  H   UNL     1       6.247  30.147  62.061  1.00  0.00     0.192 HD
BRANCH   7  11
HETATM   11  C   UNL     1       5.302  34.308  63.428  1.00  0.00     0.047 A 
HETATM   12  C   UNL     1       5.405  34.596  64.827  1.00  0.00     0.001 A 
HETATM   13  C   UNL     1       4.638  35.671  65.353  1.00  0.00    -0.024 A 
HETATM   14  C   UNL     1       6.212  33.878  65.748  1.00  0.00     0.014 A 
HETATM   15  C   UNL     1       4.687  35.979  66.724  1.00  0.00     0.012 A 
HETATM   16  C   UNL     1       3.822  36.435  64.511  1.00  0.00     0.012 A 
HETATM   17  C   UNL     1       5.483  35.245  67.598  1.00  0.00     0.001 A 
HETATM   18  C   UNL     1       6.248  34.196  67.109  1.00  0.00     0.001 A 
HETATM   19  C   UNL     1       3.746  36.158  63.152  1.00  0.00     0.003 A 
HETATM   20  C   UNL     1       4.482  35.104  62.617  1.00  0.00     0.030 A 
ENDBRANCH   7  11
ENDBRANCH   2   5
BRANCH   1  21
HETATM   21  C   UNL     1       9.148  31.790  59.514  1.00  0.00     0.228 C 
BRANCH  21  22
HETATM   22  N   UNL     1       9.208  30.548  58.762  1.00  0.00    -0.334 N 
HETATM   23  C   UNL     1      10.105  30.308  57.772  1.00  0.00     0.321 C 
HETATM   24  N   UNL     1       9.908  29.187  57.025  1.00  0.00    -0.309 N 
HETATM   25  O   UNL     1      11.100  31.014  57.605  1.00  0.00    -0.247 OA
HETATM   26  H   UNL     1      10.736  28.906  56.514  1.00  0.00     0.170 HD
HETATM   27  H   UNL     1       8.741  29.734  59.145  1.00  0.00     0.164 HD
BRANCH  24  28
HETATM   28  C   UNL     1       8.710  28.543  56.649  1.00  0.00     0.036 A 
HETATM   29  C   UNL     1       7.867  29.001  55.633  1.00  0.00     0.032 A 
HETATM   30  C   UNL     1       6.749  28.251  55.237  1.00  0.00     0.039 A 
HETATM   31  C   UNL     1       6.471  27.030  55.846  1.00  0.00     0.068 A 
HETATM   32  C   UNL     1       7.294  26.583  56.878  1.00  0.00     0.039 A 
HETATM   33  C   UNL     1       8.414  27.325  57.268  1.00  0.00     0.032 A 
BRANCH  31  34
HETATM   34  O   UNL     1       5.434  26.200  55.525  1.00  0.00    -0.356 OA
HETATM   35  C   UNL     1       5.639  25.344  54.405  1.00  0.00     0.210 C 
ENDBRANCH  31  34
ENDBRANCH  24  28
ENDBRANCH  21  22
ENDBRANCH   1  21
TORSDOF 6
ENDMDL
MODEL 10
REMARK VINA RESULT:      -9.5      2.512     10.794
REMARK  6 active torsions:
REMARK  status: ('A' for Active; 'I' for Inactive)
REMARK    1  A    between atoms: O_2  and  C_3 
REMARK    2  A    between atoms: C_6  and  N_7 
REMARK       I    between atoms: N_7  and  C_8 
REMARK       I    between atoms: C_8  and  N_9 
REMARK    3  A    between atoms: N_9  and  C_10 
REMARK    4  A    between atoms: C_10  and  C_11 
REMARK       I    between atoms: C_11  and  N_12 
REMARK    5  A    between atoms: N_12  and  N_13 
REMARK       I    between atoms: N_13  and  C_14 
REMARK       I    between atoms: C_14  and  N_15 
REMARK    6  A    between atoms: N_15  and  C_16 
ROOT
HETATM    1  C   UNL     1       6.532  28.830  56.952  1.00  0.00     0.253 C 
HETATM    2  N   UNL     1       5.939  30.028  57.301  1.00  0.00    -0.265 N 
HETATM    3  O   UNL     1       6.146  27.744  57.385  1.00  0.00    -0.270 OA
HETATM    4  H   UNL     1       6.191  30.873  56.784  1.00  0.00     0.190 HD
ENDROOT
BRANCH   2   5
HETATM    5  N   UNL     1       4.704  29.974  57.982  1.00  0.00    -0.249 N 
HETATM    6  C   UNL     1       4.335  30.995  58.842  1.00  0.00     0.339 C 
HETATM    7  N   UNL     1       5.387  31.553  59.532  1.00  0.00    -0.307 N 
HETATM    8  O   UNL     1       3.148  31.290  58.944  1.00  0.00    -0.245 OA
HETATM    9  H   UNL     1       6.199  30.962  59.575  1.00  0.00     0.170 HD
HETATM   10  H   UNL     1       3.925  29.680  57.390  1.00  0.00     0.192 HD
BRANCH   7  11
HETATM   11  C   UNL     1       5.351  32.678  60.398  1.00  0.00     0.047 A 
HETATM   12  C   UNL     1       6.207  32.724  61.546  1.00  0.00     0.001 A 
HETATM   13  C   UNL     1       6.138  33.863  62.395  1.00  0.00    -0.024 A 
HETATM   14  C   UNL     1       7.121  31.705  61.921  1.00  0.00     0.014 A 
HETATM   15  C   UNL     1       6.939  33.944  63.546  1.00  0.00     0.012 A 
HETATM   16  C   UNL     1       5.267  34.916  62.093  1.00  0.00     0.012 A 
HETATM   17  C   UNL     1       7.818  32.919  63.886  1.00  0.00     0.001 A 
HETATM   18  C   UNL     1       7.911  31.801  63.071  1.00  0.00     0.001 A 
HETATM   19  C   UNL     1       4.458  34.869  60.965  1.00  0.00     0.003 A 
HETATM   20  C   UNL     1       4.502  33.759  60.125  1.00  0.00     0.030 A 
ENDBRANCH   7  11
ENDBRANCH   2   5
BRANCH   1  21
HETATM   21  C   UNL     1       7.581  28.943  55.842  1.00  0.00     0.228 C 
BRANCH  21  22
HETATM   22  N   UNL     1       7.596  27.881  54.851  1.00  0.00    -0.334 N 
HETATM   23  C   UNL     1       6.662  27.749  53.874  1.00  0.00     0.321 C 
HETATM   24  N   UNL     1       6.692  26.595  53.150  1.00  0.00    -0.309 N 
HETATM   25  O   UNL     1       5.881  28.656  53.588  1.00  0.00    -0.247 OA
HETATM   26  H   UNL     1       6.187  26.668  52.275  1.00  0.00     0.170 HD
HETATM   27  H   UNL     1       8.457  27.365  54.714  1.00  0.00     0.164 HD
BRANCH  24  28
HETATM   28  C   UNL     1       7.060  25.289  53.536  1.00  0.00     0.036 A 
HETATM   29  C   UNL     1       6.833  24.760  54.810  1.00  0.00     0.032 A 
HETATM   30  C   UNL     1       7.125  23.418  55.090  1.00  0.00     0.039 A 
HETATM   31  C   UNL     1       7.637  22.587  54.097  1.00  0.00     0.068 A 
HETATM   32  C   UNL     1       7.891  23.117  52.833  1.00  0.00     0.039 A 
HETATM   33  C   UNL     1       7.592  24.454  52.548  1.00  0.00     0.032 A 
BRANCH  31  34
HETATM   34  O   UNL     1       7.929  21.260  54.242  1.00  0.00    -0.356 OA
HETATM   35  C   UNL     1       8.201  20.543  53.042  1.00  0.00     0.210 C 
ENDBRANCH  31  34
ENDBRANCH  24  28
ENDBRANCH  21  22
ENDBRANCH   1  21
TORSDOF 6
ENDMDL
