MODEL 1
REMARK VINA RESULT:      -8.6      0.000      0.000
REMARK  7 active torsions:
REMARK  status: ('A' for Active; 'I' for Inactive)
REMARK    1  A    between atoms: C_2  and  N_3 
REMARK    2  A    between atoms: C_2  and  C_17 
REMARK       I    between atoms: N_3  and  C_4 
REMARK    3  A    between atoms: C_4  and  C_5 
REMARK    4  A    between atoms: C_6  and  N_7 
REMARK    5  A    between atoms: C_17  and  O_18 
REMARK    6  A    between atoms: C_17  and  C_19 
REMARK    7  A    between atoms: C_22  and  O_23 
ROOT
HETATM    1  N   UNL     1       7.139  25.814  56.140  1.00  0.00    -0.350 N 
HETATM    2  C   UNL     1       7.949  24.850  56.679  1.00  0.00     0.255 C 
HETATM    3  O   UNL     1       8.740  25.097  57.586  1.00  0.00    -0.268 OA
HETATM    4  H   UNL     1       6.308  25.463  55.672  1.00  0.00     0.163 HD
ENDROOT
BRANCH   1   5
HETATM    5  C   UNL     1       7.051  27.169  56.708  1.00  0.00     0.114 C 
HETATM    6  C   UNL     1       5.598  27.660  56.684  1.00  0.00     0.035 C 
BRANCH   5   7
HETATM    7  C   UNL     1       8.015  28.123  55.943  1.00  0.00     0.173 C 
BRANCH   7   8
HETATM    8  O   UNL     1       7.350  28.740  54.832  1.00  0.00    -0.389 OA
HETATM    9  H   UNL     1       7.987  28.745  54.097  1.00  0.00     0.210 HD
ENDBRANCH   7   8
BRANCH   7  10
HETATM   10  C   UNL     1       8.647  29.173  56.837  1.00  0.00    -0.028 A 
HETATM   11  C   UNL     1       7.921  29.686  57.922  1.00  0.00     0.012 A 
HETATM   12  C   UNL     1       8.476  30.661  58.755  1.00  0.00     0.037 A 
HETATM   13  C   UNL     1       9.766  31.144  58.525  1.00  0.00     0.068 A 
HETATM   14  C   UNL     1      10.497  30.640  57.451  1.00  0.00     0.037 A 
HETATM   15  C   UNL     1       9.941  29.664  56.615  1.00  0.00     0.012 A 
BRANCH  13  16
HETATM   16  O   UNL     1      10.186  32.094  59.415  1.00  0.00    -0.356 OA
HETATM   17  C   UNL     1       9.540  32.115  60.681  1.00  0.00     0.210 C 
ENDBRANCH  13  16
ENDBRANCH   7  10
ENDBRANCH   5   7
ENDBRANCH   1   5
BRANCH   2  18
HETATM   18  C   UNL     1       7.949  23.482  56.071  1.00  0.00     0.079 A 
HETATM   19  C   UNL     1       7.634  23.049  54.776  1.00  0.00     0.165 A 
HETATM   20  N   UNL     1       7.698  21.718  54.423  1.00  0.00    -0.241 NA
HETATM   21  C   UNL     1       8.066  20.806  55.345  1.00  0.00     0.119 A 
HETATM   22  C   UNL     1       8.384  21.138  56.639  1.00  0.00     0.020 A 
HETATM   23  C   UNL     1       8.321  22.480  56.996  1.00  0.00     0.022 A 
BRANCH  19  24
HETATM   24  N   UNL     1       7.189  23.896  53.705  1.00  0.00    -0.226 N 
HETATM   25  N   UNL     1       5.938  24.428  53.594  1.00  0.00    -0.179 NA
HETATM   26  C   UNL     1       5.950  25.102  52.440  1.00  0.00     0.141 A 
HETATM   27  C   UNL     1       7.202  25.087  51.818  1.00  0.00     0.040 A 
HETATM   28  C   UNL     1       7.982  24.326  52.650  1.00  0.00     0.122 A 
ENDBRANCH  19  24
ENDBRANCH   2  18
TORSDOF 7
ENDMDL
MODEL 2
REMARK VINA RESULT:      -8.4      4.024      6.928
REMARK  7 active torsions:
REMARK  status: ('A' for Active; 'I' for Inactive)
REMARK    1  A    between atoms: C_2  and  N_3 
REMARK    2  A    between atoms: C_2  and  C_17 
REMARK       I    between atoms: N_3  and  C_4 
REMARK    3  A    between atoms: C_4  and  C_5 
REMARK    4  A    between atoms: C_6  and  N_7 
REMARK    5  A    between atoms: C_17  and  O_18 
REMARK    6  A    between atoms: C_17  and  C_19 
REMARK    7  A    between atoms: C_22  and  O_23 
ROOT
HETATM    1  N   UNL     1       6.573  25.219  53.512  1.00  0.00    -0.350 N 
HETATM    2  C   UNL     1       7.414  24.275  52.982  1.00  0.00     0.255 C 
HETATM    3  O   UNL     1       7.890  24.388  51.855  1.00  0.00    -0.268 OA
HETATM    4  H   UNL     1       6.520  25.223  54.526  1.00  0.00     0.163 HD
ENDROOT
BRANCH   1   5
HETATM    5  C   UNL     1       6.304  26.496  52.834  1.00  0.00     0.114 C 
HETATM    6  C   UNL     1       6.378  27.654  53.836  1.00  0.00     0.035 C 
BRANCH   5   7
HETATM    7  C   UNL     1       4.929  26.427  52.106  1.00  0.00     0.173 C 
BRANCH   7   8
HETATM    8  O   UNL     1       3.895  27.017  52.907  1.00  0.00    -0.389 OA
HETATM    9  H   UNL     1       4.214  27.002  53.825  1.00  0.00     0.210 HD
ENDBRANCH   7   8
BRANCH   7  10
HETATM   10  C   UNL     1       4.954  27.048  50.723  1.00  0.00    -0.028 A 
HETATM   11  C   UNL     1       5.315  28.396  50.577  1.00  0.00     0.012 A 
HETATM   12  C   UNL     1       5.336  28.996  49.315  1.00  0.00     0.037 A 
HETATM   13  C   UNL     1       5.001  28.266  48.173  1.00  0.00     0.068 A 
HETATM   14  C   UNL     1       4.643  26.926  48.306  1.00  0.00     0.037 A 
HETATM   15  C   UNL     1       4.619  26.323  49.571  1.00  0.00     0.012 A 
BRANCH  13  16
HETATM   16  O   UNL     1       5.065  28.974  47.004  1.00  0.00    -0.356 OA
HETATM   17  C   UNL     1       4.309  30.176  46.942  1.00  0.00     0.210 C 
ENDBRANCH  13  16
ENDBRANCH   7  10
ENDBRANCH   5   7
ENDBRANCH   1   5
BRANCH   2  18
HETATM   18  C   UNL     1       7.672  23.020  53.754  1.00  0.00     0.079 A 
HETATM   19  C   UNL     1       7.805  22.796  55.132  1.00  0.00     0.165 A 
HETATM   20  N   UNL     1       8.049  21.538  55.640  1.00  0.00    -0.241 NA
HETATM   21  C   UNL     1       8.168  20.495  54.794  1.00  0.00     0.119 A 
HETATM   22  C   UNL     1       8.061  20.622  53.431  1.00  0.00     0.020 A 
HETATM   23  C   UNL     1       7.814  21.890  52.917  1.00  0.00     0.022 A 
BRANCH  19  24
HETATM   24  N   UNL     1       7.743  23.812  56.146  1.00  0.00    -0.226 N 
HETATM   25  N   UNL     1       6.622  24.507  56.492  1.00  0.00    -0.179 NA
HETATM   26  C   UNL     1       7.026  25.369  57.430  1.00  0.00     0.141 A 
HETATM   27  C   UNL     1       8.375  25.213  57.762  1.00  0.00     0.040 A 
HETATM   28  C   UNL     1       8.809  24.203  56.943  1.00  0.00     0.122 A 
ENDBRANCH  19  24
ENDBRANCH   2  18
TORSDOF 7
ENDMDL
MODEL 3
REMARK VINA RESULT:      -8.4      2.821      8.127
REMARK  7 active torsions:
REMARK  status: ('A' for Active; 'I' for Inactive)
REMARK    1  A    between atoms: C_2  and  N_3 
REMARK    2  A    between atoms: C_2  and  C_17 
REMARK       I    between atoms: N_3  and  C_4 
REMARK    3  A    between atoms: C_4  and  C_5 
REMARK    4  A    between atoms: C_6  and  N_7 
REMARK    5  A    between atoms: C_17  and  O_18 
REMARK    6  A    between atoms: C_17  and  C_19 
REMARK    7  A    between atoms: C_22  and  O_23 
ROOT
HETATM    1  N   UNL     1       7.137  27.507  57.535  1.00  0.00    -0.350 N 
HETATM    2  C   UNL     1       7.837  28.578  57.043  1.00  0.00     0.255 C 
HETATM    3  O   UNL     1       8.484  28.510  56.001  1.00  0.00    -0.268 OA
HETATM    4  H   UNL     1       6.382  27.745  58.171  1.00  0.00     0.163 HD
ENDROOT
BRANCH   1   5
HETATM    5  C   UNL     1       6.990  26.255  56.777  1.00  0.00     0.114 C 
HETATM    6  C   UNL     1       5.643  25.596  57.100  1.00  0.00     0.035 C 
BRANCH   5   7
HETATM    7  C   UNL     1       8.198  25.316  57.072  1.00  0.00     0.173 C 
BRANCH   7   8
HETATM    8  O   UNL     1       8.355  25.112  58.484  1.00  0.00    -0.389 OA
HETATM    9  H   UNL     1       7.651  25.623  58.917  1.00  0.00     0.210 HD
ENDBRANCH   7   8
BRANCH   7  10
HETATM   10  C   UNL     1       8.111  23.988  56.346  1.00  0.00    -0.028 A 
HETATM   11  C   UNL     1       7.839  23.968  54.970  1.00  0.00     0.012 A 
HETATM   12  C   UNL     1       7.743  22.757  54.280  1.00  0.00     0.037 A 
HETATM   13  C   UNL     1       7.918  21.541  54.944  1.00  0.00     0.068 A 
HETATM   14  C   UNL     1       8.190  21.549  56.311  1.00  0.00     0.037 A 
HETATM   15  C   UNL     1       8.285  22.762  57.005  1.00  0.00     0.012 A 
BRANCH  13  16
HETATM   16  O   UNL     1       7.800  20.434  54.150  1.00  0.00    -0.356 OA
HETATM   17  C   UNL     1       8.307  20.540  52.826  1.00  0.00     0.210 C 
ENDBRANCH  13  16
ENDBRANCH   7  10
ENDBRANCH   5   7
ENDBRANCH   1   5
BRANCH   2  18
HETATM   18  C   UNL     1       7.903  29.834  57.855  1.00  0.00     0.079 A 
HETATM   19  C   UNL     1       6.943  30.826  58.098  1.00  0.00     0.165 A 
HETATM   20  N   UNL     1       7.219  31.922  58.887  1.00  0.00    -0.241 NA
HETATM   21  C   UNL     1       8.443  32.048  59.438  1.00  0.00     0.119 A 
HETATM   22  C   UNL     1       9.447  31.130  59.249  1.00  0.00     0.020 A 
HETATM   23  C   UNL     1       9.169  30.025  58.453  1.00  0.00     0.022 A 
BRANCH  19  24
HETATM   24  N   UNL     1       5.616  30.847  57.547  1.00  0.00    -0.226 N 
HETATM   25  N   UNL     1       4.745  29.798  57.562  1.00  0.00    -0.179 NA
HETATM   26  C   UNL     1       3.664  30.237  56.911  1.00  0.00     0.141 A 
HETATM   27  C   UNL     1       3.773  31.577  56.525  1.00  0.00     0.040 A 
HETATM   28  C   UNL     1       5.020  31.951  56.956  1.00  0.00     0.122 A 
ENDBRANCH  19  24
ENDBRANCH   2  18
TORSDOF 7
ENDMDL
MODEL 4
REMARK VINA RESULT:      -8.4      2.832      7.698
REMARK  7 active torsions:
REMARK  status: ('A' for Active; 'I' for Inactive)
REMARK    1  A    between atoms: C_2  and  N_3 
REMARK    2  A    between atoms: C_2  and  C_17 
REMARK       I    between atoms: N_3  and  C_4 
REMARK    3  A    between atoms: C_4  and  C_5 
REMARK    4  A    between atoms: C_6  and  N_7 
REMARK    5  A    between atoms: C_17  and  O_18 
REMARK    6  A    between atoms: C_17  and  C_19 
REMARK    7  A    between atoms: C_22  and  O_23 
ROOT
HETATM    1  N   UNL     1       6.293  27.757  54.877  1.00  0.00    -0.350 N 
HETATM    2  C   UNL     1       7.467  28.462  54.896  1.00  0.00     0.255 C 
HETATM    3  O   UNL     1       8.261  28.431  53.959  1.00  0.00    -0.268 OA
HETATM    4  H   UNL     1       5.572  28.108  55.499  1.00  0.00     0.163 HD
ENDROOT
BRANCH   1   5
HETATM    5  C   UNL     1       5.833  27.036  53.678  1.00  0.00     0.114 C 
HETATM    6  C   UNL     1       4.834  27.896  52.894  1.00  0.00     0.035 C 
BRANCH   5   7
HETATM    7  C   UNL     1       5.238  25.658  54.089  1.00  0.00     0.173 C 
BRANCH   7   8
HETATM    8  O   UNL     1       4.142  25.297  53.236  1.00  0.00    -0.389 OA
HETATM    9  H   UNL     1       3.670  26.121  53.030  1.00  0.00     0.210 HD
ENDBRANCH   7   8
BRANCH   7  10
HETATM   10  C   UNL     1       6.272  24.549  54.127  1.00  0.00    -0.028 A 
HETATM   11  C   UNL     1       6.767  24.023  52.925  1.00  0.00     0.012 A 
HETATM   12  C   UNL     1       7.713  22.995  52.932  1.00  0.00     0.037 A 
HETATM   13  C   UNL     1       8.187  22.471  54.136  1.00  0.00     0.068 A 
HETATM   14  C   UNL     1       7.704  22.987  55.337  1.00  0.00     0.037 A 
HETATM   15  C   UNL     1       6.754  24.017  55.332  1.00  0.00     0.012 A 
BRANCH  13  16
HETATM   16  O   UNL     1       9.110  21.471  53.999  1.00  0.00    -0.356 OA
HETATM   17  C   UNL     1       8.750  20.378  53.165  1.00  0.00     0.210 C 
ENDBRANCH  13  16
ENDBRANCH   7  10
ENDBRANCH   5   7
ENDBRANCH   1   5
BRANCH   2  18
HETATM   18  C   UNL     1       7.843  29.207  56.139  1.00  0.00     0.079 A 
HETATM   19  C   UNL     1       7.078  29.998  57.007  1.00  0.00     0.165 A 
HETATM   20  N   UNL     1       7.635  30.606  58.112  1.00  0.00    -0.241 NA
HETATM   21  C   UNL     1       8.948  30.441  58.365  1.00  0.00     0.119 A 
HETATM   22  C   UNL     1       9.776  29.691  57.566  1.00  0.00     0.020 A 
HETATM   23  C   UNL     1       9.215  29.077  56.452  1.00  0.00     0.022 A 
BRANCH  19  24
HETATM   24  N   UNL     1       5.682  30.295  56.842  1.00  0.00    -0.226 N 
HETATM   25  N   UNL     1       4.666  29.401  57.005  1.00  0.00    -0.179 NA
HETATM   26  C   UNL     1       3.555  30.084  56.713  1.00  0.00     0.141 A 
HETATM   27  C   UNL     1       3.807  31.429  56.426  1.00  0.00     0.040 A 
HETATM   28  C   UNL     1       5.169  31.546  56.531  1.00  0.00     0.122 A 
ENDBRANCH  19  24
ENDBRANCH   2  18
TORSDOF 7
ENDMDL
MODEL 5
REMARK VINA RESULT:      -8.4      2.170      4.051
REMARK  7 active torsions:
REMARK  status: ('A' for Active; 'I' for Inactive)
REMARK    1  A    between atoms: C_2  and  N_3 
REMARK    2  A    between atoms: C_2  and  C_17 
REMARK       I    between atoms: N_3  and  C_4 
REMARK    3  A    between atoms: C_4  and  C_5 
REMARK    4  A    between atoms: C_6  and  N_7 
REMARK    5  A    between atoms: C_17  and  O_18 
REMARK    6  A    between atoms: C_17  and  C_19 
REMARK    7  A    between atoms: C_22  and  O_23 
ROOT
HETATM    1  N   UNL     1       5.828  24.825  53.332  1.00  0.00    -0.350 N 
HETATM    2  C   UNL     1       7.012  24.249  52.953  1.00  0.00     0.255 C 
HETATM    3  O   UNL     1       7.601  24.584  51.928  1.00  0.00    -0.268 OA
HETATM    4  H   UNL     1       5.612  24.748  54.321  1.00  0.00     0.163 HD
ENDROOT
BRANCH   1   5
HETATM    5  C   UNL     1       5.261  25.983  52.623  1.00  0.00     0.114 C 
HETATM    6  C   UNL     1       4.894  25.596  51.185  1.00  0.00     0.035 C 
BRANCH   5   7
HETATM    7  C   UNL     1       6.259  27.177  52.682  1.00  0.00     0.173 C 
BRANCH   7   8
HETATM    8  O   UNL     1       5.955  28.150  51.672  1.00  0.00    -0.389 OA
HETATM    9  H   UNL     1       6.361  28.984  51.961  1.00  0.00     0.210 HD
ENDBRANCH   7   8
BRANCH   7  10
HETATM   10  C   UNL     1       6.328  27.830  54.049  1.00  0.00    -0.028 A 
HETATM   11  C   UNL     1       7.575  28.186  54.584  1.00  0.00     0.012 A 
HETATM   12  C   UNL     1       7.666  28.779  55.846  1.00  0.00     0.037 A 
HETATM   13  C   UNL     1       6.518  29.032  56.599  1.00  0.00     0.068 A 
HETATM   14  C   UNL     1       5.274  28.684  56.077  1.00  0.00     0.037 A 
HETATM   15  C   UNL     1       5.181  28.087  54.813  1.00  0.00     0.012 A 
BRANCH  13  16
HETATM   16  O   UNL     1       6.751  29.616  57.814  1.00  0.00    -0.356 OA
HETATM   17  C   UNL     1       8.020  29.376  58.407  1.00  0.00     0.210 C 
ENDBRANCH  13  16
ENDBRANCH   7  10
ENDBRANCH   5   7
ENDBRANCH   1   5
BRANCH   2  18
HETATM   18  C   UNL     1       7.547  23.103  53.753  1.00  0.00     0.079 A 
HETATM   19  C   UNL     1       7.793  22.972  55.127  1.00  0.00     0.165 A 
HETATM   20  N   UNL     1       8.301  21.809  55.664  1.00  0.00    -0.241 NA
HETATM   21  C   UNL     1       8.574  20.770  54.850  1.00  0.00     0.119 A 
HETATM   22  C   UNL     1       8.373  20.809  53.492  1.00  0.00     0.020 A 
HETATM   23  C   UNL     1       7.860  21.982  52.950  1.00  0.00     0.022 A 
BRANCH  19  24
HETATM   24  N   UNL     1       7.590  24.005  56.106  1.00  0.00    -0.226 N 
HETATM   25  N   UNL     1       6.387  24.570  56.411  1.00  0.00    -0.179 NA
HETATM   26  C   UNL     1       6.666  25.502  57.327  1.00  0.00     0.141 A 
HETATM   27  C   UNL     1       8.018  25.520  57.686  1.00  0.00     0.040 A 
HETATM   28  C   UNL     1       8.586  24.545  56.907  1.00  0.00     0.122 A 
ENDBRANCH  19  24
ENDBRANCH   2  18
TORSDOF 7
ENDMDL
MODEL 6
REMARK VINA RESULT:      -8.3      2.769      8.193
REMARK  7 active torsions:
REMARK  status: ('A' for Active; 'I' for Inactive)
REMARK    1  A    between atoms: C_2  and  N_3 
REMARK    2  A    between atoms: C_2  and  C_17 
REMARK       I    between atoms: N_3  and  C_4 
REMARK    3  A    between atoms: C_4  and  C_5 
REMARK    4  A    between atoms: C_6  and  N_7 
REMARK    5  A    between atoms: C_17  and  O_18 
REMARK    6  A    between atoms: C_17  and  C_19 
REMARK    7  A    between atoms: C_22  and  O_23 
ROOT
HETATM    1  N   UNL     1       6.601  27.484  57.368  1.00  0.00    -0.350 N 
HETATM    2  C   UNL     1       6.106  28.599  56.744  1.00  0.00     0.255 C 
HETATM    3  O   UNL     1       5.744  28.582  55.570  1.00  0.00    -0.268 OA
HETATM    4  H   UNL     1       6.538  27.497  58.381  1.00  0.00     0.163 HD
ENDROOT
BRANCH   1   5
HETATM    5  C   UNL     1       6.592  26.160  56.725  1.00  0.00     0.114 C 
HETATM    6  C   UNL     1       5.383  25.347  57.205  1.00  0.00     0.035 C 
BRANCH   5   7
HETATM    7  C   UNL     1       7.943  25.435  56.996  1.00  0.00     0.173 C 
BRANCH   7   8
HETATM    8  O   UNL     1       8.123  25.194  58.399  1.00  0.00    -0.389 OA
HETATM    9  H   UNL     1       9.058  24.958  58.521  1.00  0.00     0.210 HD
ENDBRANCH   7   8
BRANCH   7  10
HETATM   10  C   UNL     1       8.096  24.147  56.210  1.00  0.00    -0.028 A 
HETATM   11  C   UNL     1       8.346  22.946  56.890  1.00  0.00     0.012 A 
HETATM   12  C   UNL     1       8.501  21.748  56.188  1.00  0.00     0.037 A 
HETATM   13  C   UNL     1       8.409  21.721  54.795  1.00  0.00     0.068 A 
HETATM   14  C   UNL     1       8.160  22.908  54.109  1.00  0.00     0.037 A 
HETATM   15  C   UNL     1       8.006  24.110  54.811  1.00  0.00     0.012 A 
BRANCH  13  16
HETATM   16  O   UNL     1       8.580  20.484  54.236  1.00  0.00    -0.356 OA
HETATM   17  C   UNL     1       8.306  20.367  52.846  1.00  0.00     0.210 C 
ENDBRANCH  13  16
ENDBRANCH   7  10
ENDBRANCH   5   7
ENDBRANCH   1   5
BRANCH   2  18
HETATM   18  C   UNL     1       6.109  29.901  57.482  1.00  0.00     0.079 A 
HETATM   19  C   UNL     1       7.164  30.732  57.884  1.00  0.00     0.165 A 
HETATM   20  N   UNL     1       6.939  31.907  58.569  1.00  0.00    -0.241 NA
HETATM   21  C   UNL     1       5.675  32.268  58.865  1.00  0.00     0.119 A 
HETATM   22  C   UNL     1       4.581  31.514  58.518  1.00  0.00     0.020 A 
HETATM   23  C   UNL     1       4.806  30.329  57.827  1.00  0.00     0.022 A 
BRANCH  19  24
HETATM   24  N   UNL     1       8.559  30.457  57.676  1.00  0.00    -0.226 N 
HETATM   25  N   UNL     1       9.055  29.555  56.782  1.00  0.00    -0.179 NA
HETATM   26  C   UNL     1      10.380  29.591  56.953  1.00  0.00     0.141 A 
HETATM   27  C   UNL     1      10.777  30.548  57.894  1.00  0.00     0.040 A 
HETATM   28  C   UNL     1       9.600  31.100  58.330  1.00  0.00     0.122 A 
ENDBRANCH  19  24
ENDBRANCH   2  18
TORSDOF 7
ENDMDL
MODEL 7
REMARK VINA RESULT:      -8.3      4.921      7.710
REMARK  7 active torsions:
REMARK  status: ('A' for Active; 'I' for Inactive)
REMARK    1  A    between atoms: C_2  and  N_3 
REMARK    2  A    between atoms: C_2  and  C_17 
REMARK       I    between atoms: N_3  and  C_4 
REMARK    3  A    between atoms: C_4  and  C_5 
REMARK    4  A    between atoms: C_6  and  N_7 
REMARK    5  A    between atoms: C_17  and  O_18 
REMARK    6  A    between atoms: C_17  and  C_19 
REMARK    7  A    between atoms: C_22  and  O_23 
ROOT
HETATM    1  N   UNL     1       6.974  31.083  59.786  1.00  0.00    -0.350 N 
HETATM    2  C   UNL     1       6.404  31.513  58.617  1.00  0.00     0.255 C 
HETATM    3  O   UNL     1       6.059  32.681  58.452  1.00  0.00    -0.268 OA
HETATM    4  H   UNL     1       7.527  30.235  59.706  1.00  0.00     0.163 HD
ENDROOT
BRANCH   1   5
HETATM    5  C   UNL     1       7.348  32.014  60.863  1.00  0.00     0.114 C 
HETATM    6  C   UNL     1       8.777  32.527  60.646  1.00  0.00     0.035 C 
BRANCH   5   7
HETATM    7  C   UNL     1       7.169  31.319  62.245  1.00  0.00     0.173 C 
BRANCH   7   8
HETATM    8  O   UNL     1       8.354  30.601  62.615  1.00  0.00    -0.389 OA
HETATM    9  H   UNL     1       8.614  30.078  61.838  1.00  0.00     0.210 HD
ENDBRANCH   7   8
BRANCH   7  10
HETATM   10  C   UNL     1       6.761  32.280  63.346  1.00  0.00    -0.028 A 
HETATM   11  C   UNL     1       5.399  32.512  63.592  1.00  0.00     0.012 A 
HETATM   12  C   UNL     1       4.998  33.400  64.593  1.00  0.00     0.037 A 
HETATM   13  C   UNL     1       5.942  34.073  65.370  1.00  0.00     0.068 A 
HETATM   14  C   UNL     1       7.297  33.849  65.136  1.00  0.00     0.037 A 
HETATM   15  C   UNL     1       7.702  32.960  64.131  1.00  0.00     0.012 A 
BRANCH  13  16
HETATM   16  O   UNL     1       5.412  34.909  66.314  1.00  0.00    -0.356 OA
HETATM   17  C   UNL     1       4.988  34.313  67.533  1.00  0.00     0.210 C 
ENDBRANCH  13  16
ENDBRANCH   7  10
ENDBRANCH   5   7
ENDBRANCH   1   5
BRANCH   2  18
HETATM   18  C   UNL     1       6.094  30.510  57.551  1.00  0.00     0.079 A 
HETATM   19  C   UNL     1       6.935  29.707  56.768  1.00  0.00     0.165 A 
HETATM   20  N   UNL     1       6.431  28.837  55.824  1.00  0.00    -0.241 NA
HETATM   21  C   UNL     1       5.098  28.758  55.643  1.00  0.00     0.119 A 
HETATM   22  C   UNL     1       4.199  29.511  56.358  1.00  0.00     0.020 A 
HETATM   23  C   UNL     1       4.706  30.387  57.311  1.00  0.00     0.022 A 
BRANCH  19  24
HETATM   24  N   UNL     1       8.371  29.714  56.820  1.00  0.00    -0.226 N 
HETATM   25  N   UNL     1       9.113  30.008  57.925  1.00  0.00    -0.179 NA
HETATM   26  C   UNL     1      10.383  29.939  57.516  1.00  0.00     0.141 A 
HETATM   27  C   UNL     1      10.501  29.539  56.181  1.00  0.00     0.040 A 
HETATM   28  C   UNL     1       9.205  29.385  55.761  1.00  0.00     0.122 A 
ENDBRANCH  19  24
ENDBRANCH   2  18
TORSDOF 7
ENDMDL
MODEL 8
REMARK VINA RESULT:      -8.1      3.372      8.671
REMARK  7 active torsions:
REMARK  status: ('A' for Active; 'I' for Inactive)
REMARK    1  A    between atoms: C_2  and  N_3 
REMARK    2  A    between atoms: C_2  and  C_17 
REMARK       I    between atoms: N_3  and  C_4 
REMARK    3  A    between atoms: C_4  and  C_5 
REMARK    4  A    between atoms: C_6  and  N_7 
REMARK    5  A    between atoms: C_17  and  O_18 
REMARK    6  A    between atoms: C_17  and  C_19 
REMARK    7  A    between atoms: C_22  and  O_23 
ROOT
HETATM    1  N   UNL     1       6.540  28.629  56.395  1.00  0.00    -0.350 N 
HETATM    2  C   UNL     1       6.924  29.230  57.565  1.00  0.00     0.255 C 
HETATM    3  O   UNL     1       7.823  28.774  58.267  1.00  0.00    -0.268 OA
HETATM    4  H   UNL     1       6.065  29.238  55.736  1.00  0.00     0.163 HD
ENDROOT
BRANCH   1   5
HETATM    5  C   UNL     1       7.275  27.489  55.824  1.00  0.00     0.114 C 
HETATM    6  C   UNL     1       7.798  27.842  54.426  1.00  0.00     0.035 C 
BRANCH   5   7
HETATM    7  C   UNL     1       6.364  26.226  55.818  1.00  0.00     0.173 C 
BRANCH   7   8
HETATM    8  O   UNL     1       5.110  26.501  55.178  1.00  0.00    -0.389 OA
HETATM    9  H   UNL     1       4.488  25.820  55.484  1.00  0.00     0.210 HD
ENDBRANCH   7   8
BRANCH   7  10
HETATM   10  C   UNL     1       7.029  25.015  55.191  1.00  0.00    -0.028 A 
HETATM   11  C   UNL     1       8.119  24.412  55.836  1.00  0.00     0.012 A 
HETATM   12  C   UNL     1       8.755  23.302  55.274  1.00  0.00     0.037 A 
HETATM   13  C   UNL     1       8.319  22.769  54.060  1.00  0.00     0.068 A 
HETATM   14  C   UNL     1       7.236  23.359  53.411  1.00  0.00     0.037 A 
HETATM   15  C   UNL     1       6.598  24.473  53.972  1.00  0.00     0.012 A 
BRANCH  13  16
HETATM   16  O   UNL     1       9.029  21.684  53.626  1.00  0.00    -0.356 OA
HETATM   17  C   UNL     1       8.284  20.626  53.036  1.00  0.00     0.210 C 
ENDBRANCH  13  16
ENDBRANCH   7  10
ENDBRANCH   5   7
ENDBRANCH   1   5
BRANCH   2  18
HETATM   18  C   UNL     1       6.152  30.413  58.057  1.00  0.00     0.079 A 
HETATM   19  C   UNL     1       6.512  31.455  58.923  1.00  0.00     0.165 A 
HETATM   20  N   UNL     1       5.630  32.462  59.252  1.00  0.00    -0.241 NA
HETATM   21  C   UNL     1       4.386  32.445  58.733  1.00  0.00     0.119 A 
HETATM   22  C   UNL     1       3.942  31.462  57.883  1.00  0.00     0.020 A 
HETATM   23  C   UNL     1       4.832  30.447  57.550  1.00  0.00     0.022 A 
BRANCH  19  24
HETATM   24  N   UNL     1       7.783  31.581  59.581  1.00  0.00    -0.226 N 
HETATM   25  N   UNL     1       8.891  32.166  59.042  1.00  0.00    -0.179 NA
HETATM   26  C   UNL     1       9.843  32.023  59.969  1.00  0.00     0.141 A 
HETATM   27  C   UNL     1       9.372  31.417  61.139  1.00  0.00     0.040 A 
HETATM   28  C   UNL     1       8.052  31.158  60.876  1.00  0.00     0.122 A 
ENDBRANCH  19  24
ENDBRANCH   2  18
TORSDOF 7
ENDMDL
MODEL 9
REMARK VINA RESULT:      -8.0      3.027      7.896
REMARK  7 active torsions:
REMARK  status: ('A' for Active; 'I' for Inactive)
REMARK    1  A    between atoms: C_2  and  N_3 
REMARK    2  A    between atoms: C_2  and  C_17 
REMARK       I    between atoms: N_3  and  C_4 
REMARK    3  A    between atoms: C_4  and  C_5 
REMARK    4  A    between atoms: C_6  and  N_7 
REMARK    5  A    between atoms: C_17  and  O_18 
REMARK    6  A    between atoms: C_17  and  C_19 
REMARK    7  A    between atoms: C_22  and  O_23 
ROOT
HETATM    1  N   UNL     1       7.023  28.517  56.106  1.00  0.00    -0.350 N 
HETATM    2  C   UNL     1       7.810  28.737  57.206  1.00  0.00     0.255 C 
HETATM    3  O   UNL     1       8.731  27.982  57.509  1.00  0.00    -0.268 OA
HETATM    4  H   UNL     1       6.548  29.340  55.748  1.00  0.00     0.163 HD
ENDROOT
BRANCH   1   5
HETATM    5  C   UNL     1       7.320  27.453  55.133  1.00  0.00     0.114 C 
HETATM    6  C   UNL     1       7.088  27.962  53.705  1.00  0.00     0.035 C 
BRANCH   5   7
HETATM    7  C   UNL     1       6.471  26.189  55.460  1.00  0.00     0.173 C 
BRANCH   7   8
HETATM    8  O   UNL     1       5.137  26.321  54.947  1.00  0.00    -0.389 OA
HETATM    9  H   UNL     1       5.108  25.813  54.119  1.00  0.00     0.210 HD
ENDBRANCH   7   8
BRANCH   7  10
HETATM   10  C   UNL     1       7.106  24.902  54.971  1.00  0.00    -0.028 A 
HETATM   11  C   UNL     1       8.117  24.297  55.732  1.00  0.00     0.012 A 
HETATM   12  C   UNL     1       8.725  23.116  55.299  1.00  0.00     0.037 A 
HETATM   13  C   UNL     1       8.339  22.513  54.101  1.00  0.00     0.068 A 
HETATM   14  C   UNL     1       7.335  23.104  53.337  1.00  0.00     0.037 A 
HETATM   15  C   UNL     1       6.724  24.289  53.769  1.00  0.00     0.012 A 
BRANCH  13  16
HETATM   16  O   UNL     1       9.014  21.362  53.798  1.00  0.00    -0.356 OA
HETATM   17  C   UNL     1       8.380  20.468  52.893  1.00  0.00     0.210 C 
ENDBRANCH  13  16
ENDBRANCH   7  10
ENDBRANCH   5   7
ENDBRANCH   1   5
BRANCH   2  18
HETATM   18  C   UNL     1       7.469  29.868  58.124  1.00  0.00     0.079 A 
HETATM   19  C   UNL     1       6.373  30.742  58.144  1.00  0.00     0.165 A 
HETATM   20  N   UNL     1       6.255  31.734  59.094  1.00  0.00    -0.241 NA
HETATM   21  C   UNL     1       7.218  31.873  60.027  1.00  0.00     0.119 A 
HETATM   22  C   UNL     1       8.330  31.068  60.081  1.00  0.00     0.020 A 
HETATM   23  C   UNL     1       8.449  30.067  59.123  1.00  0.00     0.022 A 
BRANCH  19  24
HETATM   24  N   UNL     1       5.296  30.740  57.193  1.00  0.00    -0.226 N 
HETATM   25  N   UNL     1       5.416  31.053  55.871  1.00  0.00    -0.179 NA
HETATM   26  C   UNL     1       4.176  30.966  55.381  1.00  0.00     0.141 A 
HETATM   27  C   UNL     1       3.248  30.535  56.333  1.00  0.00     0.040 A 
HETATM   28  C   UNL     1       3.987  30.380  57.478  1.00  0.00     0.122 A 
ENDBRANCH  19  24
ENDBRANCH   2  18
TORSDOF 7
ENDMDL
MODEL 10
REMARK VINA RESULT:      -7.9      3.061      7.747
REMARK  7 active torsions:
REMARK  status: ('A' for Active; 'I' for Inactive)
REMARK    1  A    between atoms: C_2  and  N_3 
REMARK    2  A    between atoms: C_2  and  C_17 
REMARK       I    between atoms: N_3  and  C_4 
REMARK    3  A    between atoms: C_4  and  C_5 
REMARK    4  A    between atoms: C_6  and  N_7 
REMARK    5  A    between atoms: C_17  and  O_18 
REMARK    6  A    between atoms: C_17  and  C_19 
REMARK    7  A    between atoms: C_22  and  O_23 
ROOT
HETATM    1  N   UNL     1       5.390  26.983  53.388  1.00  0.00    -0.350 N 
HETATM    2  C   UNL     1       5.435  28.335  53.168  1.00  0.00     0.255 C 
HETATM    3  O   UNL     1       5.967  28.815  52.169  1.00  0.00    -0.268 OA
HETATM    4  H   UNL     1       4.656  26.676  54.019  1.00  0.00     0.163 HD
ENDROOT
BRANCH   1   5
HETATM    5  C   UNL     1       5.839  26.011  52.378  1.00  0.00     0.114 C 
HETATM    6  C   UNL     1       4.899  24.800  52.355  1.00  0.00     0.035 C 
BRANCH   5   7
HETATM    7  C   UNL     1       7.318  25.612  52.653  1.00  0.00     0.173 C 
BRANCH   7   8
HETATM    8  O   UNL     1       8.014  26.662  53.339  1.00  0.00    -0.389 OA
HETATM    9  H   UNL     1       8.466  27.185  52.655  1.00  0.00     0.210 HD
ENDBRANCH   7   8
BRANCH   7  10
HETATM   10  C   UNL     1       7.451  24.302  53.406  1.00  0.00    -0.028 A 
HETATM   11  C   UNL     1       7.202  24.270  54.787  1.00  0.00     0.012 A 
HETATM   12  C   UNL     1       7.328  23.079  55.506  1.00  0.00     0.037 A 
HETATM   13  C   UNL     1       7.701  21.895  54.866  1.00  0.00     0.068 A 
HETATM   14  C   UNL     1       7.949  21.915  53.495  1.00  0.00     0.037 A 
HETATM   15  C   UNL     1       7.826  23.109  52.773  1.00  0.00     0.012 A 
BRANCH  13  16
HETATM   16  O   UNL     1       7.785  20.805  55.687  1.00  0.00    -0.356 OA
HETATM   17  C   UNL     1       9.085  20.430  56.124  1.00  0.00     0.210 C 
ENDBRANCH  13  16
ENDBRANCH   7  10
ENDBRANCH   5   7
ENDBRANCH   1   5
BRANCH   2  18
HETATM   18  C   UNL     1       4.919  29.258  54.226  1.00  0.00     0.079 A 
HETATM   19  C   UNL     1       5.317  29.451  55.557  1.00  0.00     0.165 A 
HETATM   20  N   UNL     1       4.691  30.367  56.374  1.00  0.00    -0.241 NA
HETATM   21  C   UNL     1       3.666  31.095  55.887  1.00  0.00     0.119 A 
HETATM   22  C   UNL     1       3.202  30.968  54.600  1.00  0.00     0.020 A 
HETATM   23  C   UNL     1       3.834  30.044  53.775  1.00  0.00     0.022 A 
BRANCH  19  24
HETATM   24  N   UNL     1       6.361  28.722  56.222  1.00  0.00    -0.226 N 
HETATM   25  N   UNL     1       6.318  27.394  56.528  1.00  0.00    -0.179 NA
HETATM   26  C   UNL     1       7.463  27.151  57.173  1.00  0.00     0.141 A 
HETATM   27  C   UNL     1       8.295  28.273  57.239  1.00  0.00     0.040 A 
HETATM   28  C   UNL     1       7.580  29.260  56.612  1.00  0.00     0.122 A 
ENDBRANCH  19  24
ENDBRANCH   2  18
TORSDOF 7
ENDMDL
