MODEL 1
REMARK VINA RESULT:      -8.5      0.000      0.000
REMARK  7 active torsions:
REMARK  status: ('A' for Active; 'I' for Inactive)
REMARK    1  A    between atoms: C_4  and  C_5 
REMARK    2  A    between atoms: C_10  and  C_11 
REMARK       I    between atoms: C_11  and  N_12 
REMARK    3  A    between atoms: N_12  and  C_13 
REMARK    4  A    between atoms: C_13  and  C_14 
REMARK    5  A    between atoms: C_14  and  C_15 
REMARK    6  A    between atoms: C_15  and  N_16 
REMARK    7  A    between atoms: C_26  and  C_27 
ROOT
HETATM    1  C   UNL     1       6.894  23.411  54.825  1.00  0.00     0.125 C 
HETATM    2  N   UNL     1       6.671  24.390  53.756  1.00  0.00    -0.365 N 
HETATM    3  C   UNL     1       6.184  25.611  54.082  1.00  0.00     0.141 A 
HETATM    4  N   UNL     1       6.307  26.097  55.359  1.00  0.00    -0.238 N 
HETATM    5  N   UNL     1       5.694  27.282  55.543  1.00  0.00    -0.163 NA
HETATM    6  C   UNL     1       5.240  27.614  54.311  1.00  0.00     0.165 A 
HETATM    7  C   UNL     1       5.536  26.592  53.378  1.00  0.00     0.092 A 
HETATM    8 BR   UNL     1       5.103  26.568  51.557  1.00  0.00    -0.044 Br
HETATM    9  C   UNL     1       6.882  25.345  56.466  1.00  0.00     0.221 C 
HETATM   10  C   UNL     1       7.660  24.114  55.958  1.00  0.00     0.067 C 
HETATM   11  H   UNL     1       6.401  23.966  52.866  1.00  0.00     0.162 HD
ENDROOT
BRANCH   6  12
HETATM   12  C   UNL     1       4.547  28.890  54.106  1.00  0.00     0.273 C 
HETATM   13  N   UNL     1       5.145  29.958  54.744  1.00  0.00    -0.355 N 
HETATM   14  H   UNL     1       5.936  29.707  55.344  1.00  0.00     0.162 HD
HETATM   15  O   UNL     1       3.546  29.051  53.405  1.00  0.00    -0.266 OA
BRANCH  13  16
HETATM   16  C   UNL     1       4.548  31.267  54.834  1.00  0.00     0.124 C 
BRANCH  16  17
HETATM   17  C   UNL     1       4.252  31.717  56.265  1.00  0.00     0.047 C 
BRANCH  17  18
HETATM   18  C   UNL     1       4.344  30.656  57.363  1.00  0.00     0.236 C 
BRANCH  18  19
HETATM   19  N   UNL     1       5.507  30.835  58.299  1.00  0.00    -0.067 N 
HETATM   20  H   UNL     1       5.286  30.293  59.161  1.00  0.00     0.280 HD
HETATM   21  C   UNL     1       6.850  30.375  57.761  1.00  0.00     0.261 C 
HETATM   22  C   UNL     1       7.937  30.598  58.820  1.00  0.00     0.195 C 
HETATM   23  O   UNL     1       7.992  31.970  59.222  1.00  0.00    -0.388 OA
HETATM   24  C   UNL     1       6.755  32.393  59.806  1.00  0.00     0.195 C 
HETATM   25  C   UNL     1       5.610  32.277  58.795  1.00  0.00     0.261 C 
ENDBRANCH  18  19
ENDBRANCH  17  18
ENDBRANCH  16  17
ENDBRANCH  13  16
ENDBRANCH   6  12
BRANCH   9  26
HETATM   26  C   UNL     1       7.792  26.215  57.307  1.00  0.00     0.409 C 
HETATM   27  F   UNL     1       7.118  26.977  58.195  1.00  0.00    -0.169 F 
HETATM   28  F   UNL     1       8.641  25.442  58.029  1.00  0.00    -0.169 F 
HETATM   29  F   UNL     1       8.554  27.036  56.549  1.00  0.00    -0.169 F 
ENDBRANCH   9  26
BRANCH   1  30
HETATM   30  C   UNL     1       7.632  22.187  54.346  1.00  0.00     0.005 A 
HETATM   31  S   UNL     1       8.049  20.952  55.463  1.00  0.00    -0.104 SA
HETATM   32  C   UNL     1       8.774  20.000  54.242  1.00  0.00     0.050 A 
HETATM   33  C   UNL     1       8.704  20.603  53.008  1.00  0.00     0.008 A 
HETATM   34  C   UNL     1       8.036  21.861  53.065  1.00  0.00     0.017 A 
ENDBRANCH   1  30
TORSDOF 7
ENDMDL
MODEL 2
REMARK VINA RESULT:      -8.4      3.255      5.873
REMARK  7 active torsions:
REMARK  status: ('A' for Active; 'I' for Inactive)
REMARK    1  A    between atoms: C_4  and  C_5 
REMARK    2  A    between atoms: C_10  and  C_11 
REMARK       I    between atoms: C_11  and  N_12 
REMARK    3  A    between atoms: N_12  and  C_13 
REMARK    4  A    between atoms: C_13  and  C_14 
REMARK    5  A    between atoms: C_14  and  C_15 
REMARK    6  A    between atoms: C_15  and  N_16 
REMARK    7  A    between atoms: C_26  and  C_27 
ROOT
HETATM    1  C   UNL     1       6.879  23.441  54.677  1.00  0.00     0.125 C 
HETATM    2  N   UNL     1       6.670  24.250  53.472  1.00  0.00    -0.365 N 
HETATM    3  C   UNL     1       6.131  25.487  53.603  1.00  0.00     0.141 A 
HETATM    4  N   UNL     1       6.185  26.151  54.802  1.00  0.00    -0.238 N 
HETATM    5  N   UNL     1       5.528  27.327  54.792  1.00  0.00    -0.163 NA
HETATM    6  C   UNL     1       5.115  27.465  53.510  1.00  0.00     0.165 A 
HETATM    7  C   UNL     1       5.482  26.333  52.743  1.00  0.00     0.092 A 
HETATM    8 BR   UNL     1       5.127  26.038  50.929  1.00  0.00    -0.044 Br
HETATM    9  C   UNL     1       6.737  25.584  56.024  1.00  0.00     0.221 C 
HETATM   10  C   UNL     1       7.574  24.324  55.725  1.00  0.00     0.067 C 
HETATM   11  H   UNL     1       6.451  23.695  52.641  1.00  0.00     0.162 HD
ENDROOT
BRANCH   6  12
HETATM   12  C   UNL     1       4.392  28.673  53.100  1.00  0.00     0.273 C 
HETATM   13  N   UNL     1       3.351  28.429  52.227  1.00  0.00    -0.355 N 
HETATM   14  H   UNL     1       3.276  27.458  51.913  1.00  0.00     0.162 HD
HETATM   15  O   UNL     1       4.628  29.814  53.502  1.00  0.00    -0.266 OA
BRANCH  13  16
HETATM   16  C   UNL     1       2.618  29.472  51.552  1.00  0.00     0.124 C 
BRANCH  16  17
HETATM   17  C   UNL     1       1.808  28.983  50.352  1.00  0.00     0.047 C 
BRANCH  17  18
HETATM   18  C   UNL     1       2.145  29.588  48.987  1.00  0.00     0.236 C 
BRANCH  18  19
HETATM   19  N   UNL     1       2.964  28.693  48.100  1.00  0.00    -0.067 N 
HETATM   20  H   UNL     1       2.731  28.948  47.117  1.00  0.00     0.280 HD
HETATM   21  C   UNL     1       4.467  28.790  48.288  1.00  0.00     0.261 C 
HETATM   22  C   UNL     1       5.175  27.842  47.313  1.00  0.00     0.195 C 
HETATM   23  O   UNL     1       4.726  26.494  47.485  1.00  0.00    -0.388 OA
HETATM   24  C   UNL     1       3.322  26.375  47.230  1.00  0.00     0.195 C 
HETATM   25  C   UNL     1       2.518  27.235  48.210  1.00  0.00     0.261 C 
ENDBRANCH  18  19
ENDBRANCH  17  18
ENDBRANCH  16  17
ENDBRANCH  13  16
ENDBRANCH   6  12
BRANCH   9  26
HETATM   26  C   UNL     1       7.583  26.598  56.766  1.00  0.00     0.409 C 
HETATM   27  F   UNL     1       8.179  27.488  55.943  1.00  0.00    -0.169 F 
HETATM   28  F   UNL     1       6.810  27.318  57.616  1.00  0.00    -0.169 F 
HETATM   29  F   UNL     1       8.547  26.010  57.510  1.00  0.00    -0.169 F 
ENDBRANCH   9  26
BRANCH   1  30
HETATM   30  C   UNL     1       7.674  22.190  54.404  1.00  0.00     0.005 A 
HETATM   31  S   UNL     1       8.161  21.188  55.710  1.00  0.00    -0.104 SA
HETATM   32  C   UNL     1       8.925  20.075  54.660  1.00  0.00     0.050 A 
HETATM   33  C   UNL     1       8.815  20.452  53.341  1.00  0.00     0.008 A 
HETATM   34  C   UNL     1       8.085  21.668  53.191  1.00  0.00     0.017 A 
ENDBRANCH   1  30
TORSDOF 7
ENDMDL
MODEL 3
REMARK VINA RESULT:      -8.4      2.865      3.451
REMARK  7 active torsions:
REMARK  status: ('A' for Active; 'I' for Inactive)
REMARK    1  A    between atoms: C_4  and  C_5 
REMARK    2  A    between atoms: C_10  and  C_11 
REMARK       I    between atoms: C_11  and  N_12 
REMARK    3  A    between atoms: N_12  and  C_13 
REMARK    4  A    between atoms: C_13  and  C_14 
REMARK    5  A    between atoms: C_14  and  C_15 
REMARK    6  A    between atoms: C_15  and  N_16 
REMARK    7  A    between atoms: C_26  and  C_27 
ROOT
HETATM    1  C   UNL     1       8.006  24.043  53.664  1.00  0.00     0.125 C 
HETATM    2  N   UNL     1       7.674  24.631  54.966  1.00  0.00    -0.365 N 
HETATM    3  C   UNL     1       7.317  25.937  55.019  1.00  0.00     0.141 A 
HETATM    4  N   UNL     1       6.845  26.580  53.903  1.00  0.00    -0.238 N 
HETATM    5  N   UNL     1       6.620  27.894  54.097  1.00  0.00    -0.163 NA
HETATM    6  C   UNL     1       6.869  28.081  55.415  1.00  0.00     0.165 A 
HETATM    7  C   UNL     1       7.301  26.875  56.018  1.00  0.00     0.092 A 
HETATM    8 BR   UNL     1       7.783  26.619  57.808  1.00  0.00    -0.044 Br
HETATM    9  C   UNL     1       6.757  25.968  52.585  1.00  0.00     0.221 C 
HETATM   10  C   UNL     1       6.899  24.435  52.672  1.00  0.00     0.067 C 
HETATM   11  H   UNL     1       8.202  24.225  55.742  1.00  0.00     0.162 HD
ENDROOT
BRANCH   6  12
HETATM   12  C   UNL     1       6.679  29.405  56.015  1.00  0.00     0.273 C 
HETATM   13  N   UNL     1       5.356  29.736  56.229  1.00  0.00    -0.355 N 
HETATM   14  H   UNL     1       4.683  29.058  55.863  1.00  0.00     0.162 HD
HETATM   15  O   UNL     1       7.586  30.169  56.352  1.00  0.00    -0.266 OA
BRANCH  13  16
HETATM   16  C   UNL     1       4.921  31.049  56.638  1.00  0.00     0.124 C 
BRANCH  16  17
HETATM   17  C   UNL     1       4.790  31.214  58.152  1.00  0.00     0.047 C 
BRANCH  17  18
HETATM   18  C   UNL     1       5.782  32.153  58.841  1.00  0.00     0.236 C 
BRANCH  18  19
HETATM   19  N   UNL     1       6.604  31.500  59.918  1.00  0.00    -0.067 N 
HETATM   20  H   UNL     1       6.171  30.570  60.105  1.00  0.00     0.280 HD
HETATM   21  C   UNL     1       8.071  31.298  59.584  1.00  0.00     0.261 C 
HETATM   22  C   UNL     1       8.781  30.610  60.757  1.00  0.00     0.195 C 
HETATM   23  O   UNL     1       8.632  31.363  61.964  1.00  0.00    -0.388 OA
HETATM   24  C   UNL     1       7.254  31.490  62.334  1.00  0.00     0.195 C 
HETATM   25  C   UNL     1       6.469  32.237  61.250  1.00  0.00     0.261 C 
ENDBRANCH  18  19
ENDBRANCH  17  18
ENDBRANCH  16  17
ENDBRANCH  13  16
ENDBRANCH   6  12
BRANCH   9  26
HETATM   26  C   UNL     1       5.454  26.324  51.900  1.00  0.00     0.409 C 
HETATM   27  F   UNL     1       4.447  26.551  52.771  1.00  0.00    -0.169 F 
HETATM   28  F   UNL     1       5.602  27.463  51.178  1.00  0.00    -0.169 F 
HETATM   29  F   UNL     1       5.051  25.362  51.040  1.00  0.00    -0.169 F 
ENDBRANCH   9  26
BRANCH   1  30
HETATM   30  C   UNL     1       8.174  22.547  53.730  1.00  0.00     0.005 A 
HETATM   31  S   UNL     1       8.733  21.814  55.179  1.00  0.00    -0.104 SA
HETATM   32  C   UNL     1       8.638  20.247  54.504  1.00  0.00     0.050 A 
HETATM   33  C   UNL     1       8.192  20.272  53.203  1.00  0.00     0.008 A 
HETATM   34  C   UNL     1       7.914  21.598  52.758  1.00  0.00     0.017 A 
ENDBRANCH   1  30
TORSDOF 7
ENDMDL
MODEL 4
REMARK VINA RESULT:      -8.2      3.590      8.176
REMARK  7 active torsions:
REMARK  status: ('A' for Active; 'I' for Inactive)
REMARK    1  A    between atoms: C_4  and  C_5 
REMARK    2  A    between atoms: C_10  and  C_11 
REMARK       I    between atoms: C_11  and  N_12 
REMARK    3  A    between atoms: N_12  and  C_13 
REMARK    4  A    between atoms: C_13  and  C_14 
REMARK    5  A    between atoms: C_14  and  C_15 
REMARK    6  A    between atoms: C_15  and  N_16 
REMARK    7  A    between atoms: C_26  and  C_27 
ROOT
HETATM    1  C   UNL     1       7.606  31.575  59.228  1.00  0.00     0.125 C 
HETATM    2  N   UNL     1       6.387  30.842  58.871  1.00  0.00    -0.365 N 
HETATM    3  C   UNL     1       6.301  30.281  57.641  1.00  0.00     0.141 A 
HETATM    4  N   UNL     1       7.432  30.004  56.916  1.00  0.00    -0.238 N 
HETATM    5  N   UNL     1       7.174  29.532  55.681  1.00  0.00    -0.163 NA
HETATM    6  C   UNL     1       5.826  29.414  55.647  1.00  0.00     0.165 A 
HETATM    7  C   UNL     1       5.254  29.869  56.859  1.00  0.00     0.092 A 
HETATM    8 BR   UNL     1       3.434  29.926  57.295  1.00  0.00    -0.044 Br
HETATM    9  C   UNL     1       8.781  30.345  57.347  1.00  0.00     0.221 C 
HETATM   10  C   UNL     1       8.812  30.702  58.848  1.00  0.00     0.067 C 
HETATM   11  H   UNL     1       5.543  31.219  59.309  1.00  0.00     0.162 HD
ENDROOT
BRANCH   6  12
HETATM   12  C   UNL     1       5.169  28.874  54.453  1.00  0.00     0.273 C 
HETATM   13  N   UNL     1       5.178  27.495  54.387  1.00  0.00    -0.355 N 
HETATM   14  H   UNL     1       5.714  27.037  55.128  1.00  0.00     0.162 HD
HETATM   15  O   UNL     1       4.611  29.546  53.583  1.00  0.00    -0.266 OA
BRANCH  13  16
HETATM   16  C   UNL     1       4.754  26.751  53.226  1.00  0.00     0.124 C 
BRANCH  16  17
HETATM   17  C   UNL     1       4.986  25.244  53.338  1.00  0.00     0.047 C 
BRANCH  17  18
HETATM   18  C   UNL     1       6.300  24.696  52.778  1.00  0.00     0.236 C 
BRANCH  18  19
HETATM   19  N   UNL     1       7.013  23.743  53.698  1.00  0.00    -0.067 N 
HETATM   20  H   UNL     1       6.283  23.300  54.296  1.00  0.00     0.280 HD
HETATM   21  C   UNL     1       7.812  22.651  53.011  1.00  0.00     0.261 C 
HETATM   22  C   UNL     1       8.467  21.747  54.062  1.00  0.00     0.195 C 
HETATM   23  O   UNL     1       9.296  22.504  54.950  1.00  0.00    -0.388 OA
HETATM   24  C   UNL     1       8.536  23.485  55.665  1.00  0.00     0.195 C 
HETATM   25  C   UNL     1       7.897  24.487  54.698  1.00  0.00     0.261 C 
ENDBRANCH  18  19
ENDBRANCH  17  18
ENDBRANCH  16  17
ENDBRANCH  13  16
ENDBRANCH   6  12
BRANCH   9  26
HETATM   26  C   UNL     1       9.748  29.213  57.070  1.00  0.00     0.409 C 
HETATM   27  F   UNL     1      10.890  29.310  57.784  1.00  0.00    -0.169 F 
HETATM   28  F   UNL     1       9.184  28.025  57.405  1.00  0.00    -0.169 F 
HETATM   29  F   UNL     1      10.080  29.136  55.761  1.00  0.00    -0.169 F 
ENDBRANCH   9  26
BRANCH   1  30
HETATM   30  C   UNL     1       7.647  31.957  60.685  1.00  0.00     0.005 A 
HETATM   31  S   UNL     1       6.257  32.637  61.428  1.00  0.00    -0.104 SA
HETATM   32  C   UNL     1       7.041  32.758  62.942  1.00  0.00     0.050 A 
HETATM   33  C   UNL     1       8.335  32.293  62.891  1.00  0.00     0.008 A 
HETATM   34  C   UNL     1       8.683  31.822  61.591  1.00  0.00     0.017 A 
ENDBRANCH   1  30
TORSDOF 7
ENDMDL
MODEL 5
REMARK VINA RESULT:      -8.2      4.550      9.228
REMARK  7 active torsions:
REMARK  status: ('A' for Active; 'I' for Inactive)
REMARK    1  A    between atoms: C_4  and  C_5 
REMARK    2  A    between atoms: C_10  and  C_11 
REMARK       I    between atoms: C_11  and  N_12 
REMARK    3  A    between atoms: N_12  and  C_13 
REMARK    4  A    between atoms: C_13  and  C_14 
REMARK    5  A    between atoms: C_14  and  C_15 
REMARK    6  A    between atoms: C_15  and  N_16 
REMARK    7  A    between atoms: C_26  and  C_27 
ROOT
HETATM    1  C   UNL     1       5.554  33.078  60.378  1.00  0.00     0.125 C 
HETATM    2  N   UNL     1       5.311  31.845  59.623  1.00  0.00    -0.365 N 
HETATM    3  C   UNL     1       6.358  31.232  59.021  1.00  0.00     0.141 A 
HETATM    4  N   UNL     1       7.643  31.465  59.441  1.00  0.00    -0.238 N 
HETATM    5  N   UNL     1       8.574  30.853  58.683  1.00  0.00    -0.163 NA
HETATM    6  C   UNL     1       7.853  30.123  57.800  1.00  0.00     0.165 A 
HETATM    7  C   UNL     1       6.466  30.336  57.989  1.00  0.00     0.092 A 
HETATM    8 BR   UNL     1       5.064  29.573  57.011  1.00  0.00    -0.044 Br
HETATM    9  C   UNL     1       8.000  32.416  60.485  1.00  0.00     0.221 C 
HETATM   10  C   UNL     1       6.761  32.839  61.300  1.00  0.00     0.067 C 
HETATM   11  H   UNL     1       4.391  31.814  59.178  1.00  0.00     0.162 HD
ENDROOT
BRANCH   6  12
HETATM   12  C   UNL     1       8.539  29.268  56.825  1.00  0.00     0.273 C 
HETATM   13  N   UNL     1       8.014  29.344  55.551  1.00  0.00    -0.355 N 
HETATM   14  H   UNL     1       7.167  29.914  55.472  1.00  0.00     0.162 HD
HETATM   15  O   UNL     1       9.520  28.563  57.065  1.00  0.00    -0.266 OA
BRANCH  13  16
HETATM   16  C   UNL     1       8.405  28.466  54.476  1.00  0.00     0.124 C 
BRANCH  16  17
HETATM   17  C   UNL     1       7.316  27.479  54.055  1.00  0.00     0.047 C 
BRANCH  17  18
HETATM   18  C   UNL     1       6.741  26.567  55.141  1.00  0.00     0.236 C 
BRANCH  18  19
HETATM   19  N   UNL     1       7.710  25.542  55.663  1.00  0.00    -0.067 N 
HETATM   20  H   UNL     1       8.644  25.782  55.268  1.00  0.00     0.280 HD
HETATM   21  C   UNL     1       7.823  25.467  57.175  1.00  0.00     0.261 C 
HETATM   22  C   UNL     1       8.853  24.399  57.566  1.00  0.00     0.195 C 
HETATM   23  O   UNL     1       8.509  23.124  57.016  1.00  0.00    -0.388 OA
HETATM   24  C   UNL     1       8.478  23.163  55.584  1.00  0.00     0.195 C 
HETATM   25  C   UNL     1       7.420  24.155  55.091  1.00  0.00     0.261 C 
ENDBRANCH  18  19
ENDBRANCH  17  18
ENDBRANCH  16  17
ENDBRANCH  13  16
ENDBRANCH   6  12
BRANCH   9  26
HETATM   26  C   UNL     1       9.052  31.844  61.411  1.00  0.00     0.409 C 
HETATM   27  F   UNL     1       9.030  30.494  61.463  1.00  0.00    -0.169 F 
HETATM   28  F   UNL     1      10.291  32.192  60.981  1.00  0.00    -0.169 F 
HETATM   29  F   UNL     1       8.927  32.310  62.674  1.00  0.00    -0.169 F 
ENDBRANCH   9  26
BRANCH   1  30
HETATM   30  C   UNL     1       4.348  33.525  61.163  1.00  0.00     0.005 A 
HETATM   31  S   UNL     1       3.183  34.550  60.428  1.00  0.00    -0.104 SA
HETATM   32  C   UNL     1       2.216  34.575  61.837  1.00  0.00     0.050 A 
HETATM   33  C   UNL     1       2.761  33.820  62.850  1.00  0.00     0.008 A 
HETATM   34  C   UNL     1       3.987  33.206  62.459  1.00  0.00     0.017 A 
ENDBRANCH   1  30
TORSDOF 7
ENDMDL
MODEL 6
REMARK VINA RESULT:      -8.1      2.883      3.448
REMARK  7 active torsions:
REMARK  status: ('A' for Active; 'I' for Inactive)
REMARK    1  A    between atoms: C_4  and  C_5 
REMARK    2  A    between atoms: C_10  and  C_11 
REMARK       I    between atoms: C_11  and  N_12 
REMARK    3  A    between atoms: N_12  and  C_13 
REMARK    4  A    between atoms: C_13  and  C_14 
REMARK    5  A    between atoms: C_14  and  C_15 
REMARK    6  A    between atoms: C_15  and  N_16 
REMARK    7  A    between atoms: C_26  and  C_27 
ROOT
HETATM    1  C   UNL     1       8.003  24.107  53.697  1.00  0.00     0.125 C 
HETATM    2  N   UNL     1       7.666  24.732  54.980  1.00  0.00    -0.365 N 
HETATM    3  C   UNL     1       7.285  26.032  54.990  1.00  0.00     0.141 A 
HETATM    4  N   UNL     1       6.796  26.629  53.856  1.00  0.00    -0.238 N 
HETATM    5  N   UNL     1       6.547  27.944  54.007  1.00  0.00    -0.163 NA
HETATM    6  C   UNL     1       6.798  28.180  55.316  1.00  0.00     0.165 A 
HETATM    7  C   UNL     1       7.256  27.003  55.957  1.00  0.00     0.092 A 
HETATM    8 BR   UNL     1       7.751  26.817  57.753  1.00  0.00    -0.044 Br
HETATM    9  C   UNL     1       6.714  25.971  52.560  1.00  0.00     0.221 C 
HETATM   10  C   UNL     1       6.885  24.444  52.698  1.00  0.00     0.067 C 
HETATM   11  H   UNL     1       8.205  24.363  55.767  1.00  0.00     0.162 HD
ENDROOT
BRANCH   6  12
HETATM   12  C   UNL     1       6.587  29.520  55.872  1.00  0.00     0.273 C 
HETATM   13  N   UNL     1       5.417  30.120  55.450  1.00  0.00    -0.355 N 
HETATM   14  H   UNL     1       4.900  29.593  54.743  1.00  0.00     0.162 HD
HETATM   15  O   UNL     1       7.333  30.082  56.676  1.00  0.00    -0.266 OA
BRANCH  13  16
HETATM   16  C   UNL     1       5.088  31.498  55.720  1.00  0.00     0.124 C 
BRANCH  16  17
HETATM   17  C   UNL     1       3.998  31.679  56.777  1.00  0.00     0.047 C 
BRANCH  17  18
HETATM   18  C   UNL     1       3.991  30.696  57.949  1.00  0.00     0.236 C 
BRANCH  18  19
HETATM   19  N   UNL     1       4.467  31.282  59.250  1.00  0.00    -0.067 N 
HETATM   20  H   UNL     1       4.616  30.483  59.902  1.00  0.00     0.280 HD
HETATM   21  C   UNL     1       5.747  32.093  59.167  1.00  0.00     0.261 C 
HETATM   22  C   UNL     1       6.124  32.611  60.561  1.00  0.00     0.195 C 
HETATM   23  O   UNL     1       5.064  33.389  61.126  1.00  0.00    -0.388 OA
HETATM   24  C   UNL     1       3.872  32.610  61.284  1.00  0.00     0.195 C 
HETATM   25  C   UNL     1       3.371  32.104  59.928  1.00  0.00     0.261 C 
ENDBRANCH  18  19
ENDBRANCH  17  18
ENDBRANCH  16  17
ENDBRANCH  13  16
ENDBRANCH   6  12
BRANCH   9  26
HETATM   26  C   UNL     1       5.402  26.279  51.870  1.00  0.00     0.409 C 
HETATM   27  F   UNL     1       5.145  25.452  50.833  1.00  0.00    -0.169 F 
HETATM   28  F   UNL     1       4.372  26.134  52.741  1.00  0.00    -0.169 F 
HETATM   29  F   UNL     1       5.354  27.550  51.410  1.00  0.00    -0.169 F 
ENDBRANCH   9  26
BRANCH   1  30
HETATM   30  C   UNL     1       8.200  22.617  53.813  1.00  0.00     0.005 A 
HETATM   31  S   UNL     1       8.754  21.942  55.291  1.00  0.00    -0.104 SA
HETATM   32  C   UNL     1       8.699  20.353  54.665  1.00  0.00     0.050 A 
HETATM   33  C   UNL     1       8.269  20.328  53.358  1.00  0.00     0.008 A 
HETATM   34  C   UNL     1       7.971  21.633  52.869  1.00  0.00     0.017 A 
ENDBRANCH   1  30
TORSDOF 7
ENDMDL
MODEL 7
REMARK VINA RESULT:      -7.9      6.225     11.242
REMARK  7 active torsions:
REMARK  status: ('A' for Active; 'I' for Inactive)
REMARK    1  A    between atoms: C_4  and  C_5 
REMARK    2  A    between atoms: C_10  and  C_11 
REMARK       I    between atoms: C_11  and  N_12 
REMARK    3  A    between atoms: N_12  and  C_13 
REMARK    4  A    between atoms: C_13  and  C_14 
REMARK    5  A    between atoms: C_14  and  C_15 
REMARK    6  A    between atoms: C_15  and  N_16 
REMARK    7  A    between atoms: C_26  and  C_27 
ROOT
HETATM    1  C   UNL     1       5.329  33.297  64.664  1.00  0.00     0.125 C 
HETATM    2  N   UNL     1       6.526  33.147  63.830  1.00  0.00    -0.365 N 
HETATM    3  C   UNL     1       6.373  32.840  62.520  1.00  0.00     0.141 A 
HETATM    4  N   UNL     1       5.189  33.089  61.874  1.00  0.00    -0.238 N 
HETATM    5  N   UNL     1       5.167  32.644  60.603  1.00  0.00    -0.163 NA
HETATM    6  C   UNL     1       6.420  32.174  60.396  1.00  0.00     0.165 A 
HETATM    7  C   UNL     1       7.197  32.287  61.574  1.00  0.00     0.092 A 
HETATM    8 BR   UNL     1       8.979  31.762  61.804  1.00  0.00    -0.044 Br
HETATM    9  C   UNL     1       4.000  33.618  62.528  1.00  0.00     0.221 C 
HETATM   10  C   UNL     1       4.340  34.204  63.914  1.00  0.00     0.067 C 
HETATM   11  H   UNL     1       7.333  32.779  64.339  1.00  0.00     0.162 HD
ENDROOT
BRANCH   6  12
HETATM   12  C   UNL     1       6.794  31.643  59.082  1.00  0.00     0.273 C 
HETATM   13  N   UNL     1       5.798  30.903  58.475  1.00  0.00    -0.355 N 
HETATM   14  H   UNL     1       4.968  30.751  59.055  1.00  0.00     0.162 HD
HETATM   15  O   UNL     1       7.869  31.844  58.513  1.00  0.00    -0.266 OA
BRANCH  13  16
HETATM   16  C   UNL     1       5.998  30.137  57.270  1.00  0.00     0.124 C 
BRANCH  16  17
HETATM   17  C   UNL     1       5.072  28.927  57.145  1.00  0.00     0.047 C 
BRANCH  17  18
HETATM   18  C   UNL     1       4.683  28.488  55.732  1.00  0.00     0.236 C 
BRANCH  18  19
HETATM   19  N   UNL     1       4.891  27.024  55.461  1.00  0.00    -0.067 N 
HETATM   20  H   UNL     1       4.015  26.537  55.746  1.00  0.00     0.280 HD
HETATM   21  C   UNL     1       5.202  26.667  54.019  1.00  0.00     0.261 C 
HETATM   22  C   UNL     1       5.371  25.149  53.884  1.00  0.00     0.195 C 
HETATM   23  O   UNL     1       6.393  24.664  54.760  1.00  0.00    -0.388 OA
HETATM   24  C   UNL     1       6.072  24.923  56.132  1.00  0.00     0.195 C 
HETATM   25  C   UNL     1       5.953  26.429  56.386  1.00  0.00     0.261 C 
ENDBRANCH  18  19
ENDBRANCH  17  18
ENDBRANCH  16  17
ENDBRANCH  13  16
ENDBRANCH   6  12
BRANCH   9  26
HETATM   26  C   UNL     1       3.330  34.675  61.676  1.00  0.00     0.409 C 
HETATM   27  F   UNL     1       2.524  34.152  60.726  1.00  0.00    -0.169 F 
HETATM   28  F   UNL     1       2.548  35.471  62.448  1.00  0.00    -0.169 F 
HETATM   29  F   UNL     1       4.227  35.480  61.062  1.00  0.00    -0.169 F 
ENDBRANCH   9  26
BRANCH   1  30
HETATM   30  C   UNL     1       5.641  33.844  66.033  1.00  0.00     0.005 A 
HETATM   31  S   UNL     1       4.359  34.260  67.097  1.00  0.00    -0.104 SA
HETATM   32  C   UNL     1       5.445  34.737  68.328  1.00  0.00     0.050 A 
HETATM   33  C   UNL     1       6.758  34.586  67.944  1.00  0.00     0.008 A 
HETATM   34  C   UNL     1       6.871  34.062  66.623  1.00  0.00     0.017 A 
ENDBRANCH   1  30
TORSDOF 7
ENDMDL
MODEL 8
REMARK VINA RESULT:      -7.9      3.282      5.049
REMARK  7 active torsions:
REMARK  status: ('A' for Active; 'I' for Inactive)
REMARK    1  A    between atoms: C_4  and  C_5 
REMARK    2  A    between atoms: C_10  and  C_11 
REMARK       I    between atoms: C_11  and  N_12 
REMARK    3  A    between atoms: N_12  and  C_13 
REMARK    4  A    between atoms: C_13  and  C_14 
REMARK    5  A    between atoms: C_14  and  C_15 
REMARK    6  A    between atoms: C_15  and  N_16 
REMARK    7  A    between atoms: C_26  and  C_27 
ROOT
HETATM    1  C   UNL     1       7.958  23.840  54.223  1.00  0.00     0.125 C 
HETATM    2  N   UNL     1       7.636  24.646  55.404  1.00  0.00    -0.365 N 
HETATM    3  C   UNL     1       7.129  25.890  55.226  1.00  0.00     0.141 A 
HETATM    4  N   UNL     1       6.520  26.236  54.047  1.00  0.00    -0.238 N 
HETATM    5  N   UNL     1       6.152  27.531  53.994  1.00  0.00    -0.163 NA
HETATM    6  C   UNL     1       6.453  28.010  55.224  1.00  0.00     0.165 A 
HETATM    7  C   UNL     1       7.060  27.007  56.016  1.00  0.00     0.092 A 
HETATM    8 BR   UNL     1       7.673  27.178  57.777  1.00  0.00    -0.044 Br
HETATM    9  C   UNL     1       6.429  25.359  52.888  1.00  0.00     0.221 C 
HETATM   10  C   UNL     1       6.757  23.900  53.266  1.00  0.00     0.067 C 
HETATM   11  H   UNL     1       8.252  24.467  56.200  1.00  0.00     0.162 HD
ENDROOT
BRANCH   6  12
HETATM   12  C   UNL     1       6.143  29.403  55.562  1.00  0.00     0.273 C 
HETATM   13  N   UNL     1       4.922  29.835  55.082  1.00  0.00    -0.355 N 
HETATM   14  H   UNL     1       4.438  29.161  54.484  1.00  0.00     0.162 HD
HETATM   15  O   UNL     1       6.854  30.145  56.243  1.00  0.00    -0.266 OA
BRANCH  13  16
HETATM   16  C   UNL     1       4.488  31.209  55.135  1.00  0.00     0.124 C 
BRANCH  16  17
HETATM   17  C   UNL     1       3.850  31.708  53.838  1.00  0.00     0.047 C 
BRANCH  17  18
HETATM   18  C   UNL     1       3.451  30.652  52.805  1.00  0.00     0.236 C 
BRANCH  18  19
HETATM   19  N   UNL     1       4.165  30.777  51.487  1.00  0.00    -0.067 N 
HETATM   20  H   UNL     1       3.447  30.646  50.743  1.00  0.00     0.280 HD
HETATM   21  C   UNL     1       4.876  32.097  51.256  1.00  0.00     0.261 C 
HETATM   22  C   UNL     1       5.541  32.093  49.874  1.00  0.00     0.195 C 
HETATM   23  O   UNL     1       6.449  30.995  49.741  1.00  0.00    -0.388 OA
HETATM   24  C   UNL     1       5.773  29.739  49.877  1.00  0.00     0.195 C 
HETATM   25  C   UNL     1       5.133  29.616  51.264  1.00  0.00     0.261 C 
ENDBRANCH  18  19
ENDBRANCH  17  18
ENDBRANCH  16  17
ENDBRANCH  13  16
ENDBRANCH   6  12
BRANCH   9  26
HETATM   26  C   UNL     1       5.055  25.428  52.254  1.00  0.00     0.409 C 
HETATM   27  F   UNL     1       5.002  26.276  51.204  1.00  0.00    -0.169 F 
HETATM   28  F   UNL     1       4.698  24.207  51.781  1.00  0.00    -0.169 F 
HETATM   29  F   UNL     1       4.104  25.802  53.139  1.00  0.00    -0.169 F 
ENDBRANCH   9  26
BRANCH   1  30
HETATM   30  C   UNL     1       8.307  22.415  54.571  1.00  0.00     0.005 A 
HETATM   31  S   UNL     1       8.317  21.216  53.343  1.00  0.00    -0.104 SA
HETATM   32  C   UNL     1       8.785  19.995  54.444  1.00  0.00     0.050 A 
HETATM   33  C   UNL     1       8.933  20.483  55.722  1.00  0.00     0.008 A 
HETATM   34  C   UNL     1       8.666  21.882  55.794  1.00  0.00     0.017 A 
ENDBRANCH   1  30
TORSDOF 7
ENDMDL
MODEL 9
REMARK VINA RESULT:      -7.8      2.929      3.656
REMARK  7 active torsions:
REMARK  status: ('A' for Active; 'I' for Inactive)
REMARK    1  A    between atoms: C_4  and  C_5 
REMARK    2  A    between atoms: C_10  and  C_11 
REMARK       I    between atoms: C_11  and  N_12 
REMARK    3  A    between atoms: N_12  and  C_13 
REMARK    4  A    between atoms: C_13  and  C_14 
REMARK    5  A    between atoms: C_14  and  C_15 
REMARK    6  A    between atoms: C_15  and  N_16 
REMARK    7  A    between atoms: C_26  and  C_27 
ROOT
HETATM    1  C   UNL     1       7.485  24.173  53.826  1.00  0.00     0.125 C 
HETATM    2  N   UNL     1       6.543  24.544  54.887  1.00  0.00    -0.365 N 
HETATM    3  C   UNL     1       6.045  25.804  54.905  1.00  0.00     0.141 A 
HETATM    4  N   UNL     1       6.041  26.572  53.768  1.00  0.00    -0.238 N 
HETATM    5  N   UNL     1       5.596  27.827  53.972  1.00  0.00    -0.163 NA
HETATM    6  C   UNL     1       5.212  27.835  55.270  1.00  0.00     0.165 A 
HETATM    7  C   UNL     1       5.476  26.584  55.877  1.00  0.00     0.092 A 
HETATM    8 BR   UNL     1       5.143  26.101  57.654  1.00  0.00    -0.044 Br
HETATM    9  C   UNL     1       6.621  26.154  52.500  1.00  0.00     0.221 C 
HETATM   10  C   UNL     1       6.893  24.636  52.485  1.00  0.00     0.067 C 
HETATM   11  H   UNL     1       6.718  24.064  55.773  1.00  0.00     0.162 HD
ENDROOT
BRANCH   6  12
HETATM   12  C   UNL     1       4.618  29.044  55.850  1.00  0.00     0.273 C 
HETATM   13  N   UNL     1       5.279  29.507  56.970  1.00  0.00    -0.355 N 
HETATM   14  H   UNL     1       6.036  28.903  57.298  1.00  0.00     0.162 HD
HETATM   15  O   UNL     1       3.647  29.649  55.392  1.00  0.00    -0.266 OA
BRANCH  13  16
HETATM   16  C   UNL     1       4.776  30.568  57.808  1.00  0.00     0.124 C 
BRANCH  16  17
HETATM   17  C   UNL     1       5.846  31.562  58.258  1.00  0.00     0.047 C 
BRANCH  17  18
HETATM   18  C   UNL     1       7.053  30.998  59.011  1.00  0.00     0.236 C 
BRANCH  18  19
HETATM   19  N   UNL     1       8.240  30.699  58.138  1.00  0.00    -0.067 N 
HETATM   20  H   UNL     1       8.007  31.048  57.184  1.00  0.00     0.280 HD
HETATM   21  C   UNL     1       9.549  31.325  58.583  1.00  0.00     0.261 C 
HETATM   22  C   UNL     1      10.664  30.954  57.597  1.00  0.00     0.195 C 
HETATM   23  O   UNL     1      10.794  29.534  57.474  1.00  0.00    -0.388 OA
HETATM   24  C   UNL     1       9.589  28.941  56.977  1.00  0.00     0.195 C 
HETATM   25  C   UNL     1       8.423  29.194  57.937  1.00  0.00     0.261 C 
ENDBRANCH  18  19
ENDBRANCH  17  18
ENDBRANCH  16  17
ENDBRANCH  13  16
ENDBRANCH   6  12
BRANCH   9  26
HETATM   26  C   UNL     1       5.722  26.524  51.338  1.00  0.00     0.409 C 
HETATM   27  F   UNL     1       4.411  26.508  51.661  1.00  0.00    -0.169 F 
HETATM   28  F   UNL     1       5.999  27.784  50.917  1.00  0.00    -0.169 F 
HETATM   29  F   UNL     1       5.899  25.706  50.276  1.00  0.00    -0.169 F 
ENDBRANCH   9  26
BRANCH   1  30
HETATM   30  C   UNL     1       7.786  22.697  53.809  1.00  0.00     0.005 A 
HETATM   31  S   UNL     1       7.901  21.832  55.288  1.00  0.00    -0.104 SA
HETATM   32  C   UNL     1       8.214  20.358  54.480  1.00  0.00     0.050 A 
HETATM   33  C   UNL     1       8.233  20.513  53.113  1.00  0.00     0.008 A 
HETATM   34  C   UNL     1       7.977  21.860  52.724  1.00  0.00     0.017 A 
ENDBRANCH   1  30
TORSDOF 7
ENDMDL
MODEL 10
REMARK VINA RESULT:      -7.8      1.916      2.429
REMARK  7 active torsions:
REMARK  status: ('A' for Active; 'I' for Inactive)
REMARK    1  A    between atoms: C_4  and  C_5 
REMARK    2  A    between atoms: C_10  and  C_11 
REMARK       I    between atoms: C_11  and  N_12 
REMARK    3  A    between atoms: N_12  and  C_13 
REMARK    4  A    between atoms: C_13  and  C_14 
REMARK    5  A    between atoms: C_14  and  C_15 
REMARK    6  A    between atoms: C_15  and  N_16 
REMARK    7  A    between atoms: C_26  and  C_27 
ROOT
HETATM    1  C   UNL     1       6.674  23.853  54.628  1.00  0.00     0.125 C 
HETATM    2  N   UNL     1       6.491  24.599  53.378  1.00  0.00    -0.365 N 
HETATM    3  C   UNL     1       5.886  25.809  53.424  1.00  0.00     0.141 A 
HETATM    4  N   UNL     1       5.840  26.526  54.593  1.00  0.00    -0.238 N 
HETATM    5  N   UNL     1       5.127  27.665  54.496  1.00  0.00    -0.163 NA
HETATM    6  C   UNL     1       4.779  27.726  53.189  1.00  0.00     0.165 A 
HETATM    7  C   UNL     1       5.243  26.584  52.494  1.00  0.00     0.092 A 
HETATM    8 BR   UNL     1       5.003  26.193  50.679  1.00  0.00    -0.044 Br
HETATM    9  C   UNL     1       6.352  26.041  55.867  1.00  0.00     0.221 C 
HETATM   10  C   UNL     1       7.266  24.815  55.670  1.00  0.00     0.067 C 
HETATM   11  H   UNL     1       6.346  23.998  52.563  1.00  0.00     0.162 HD
ENDROOT
BRANCH   6  12
HETATM   12  C   UNL     1       4.020  28.876  52.687  1.00  0.00     0.273 C 
HETATM   13  N   UNL     1       4.791  30.000  52.469  1.00  0.00    -0.355 N 
HETATM   14  H   UNL     1       5.766  29.913  52.766  1.00  0.00     0.162 HD
HETATM   15  O   UNL     1       2.815  28.875  52.429  1.00  0.00    -0.266 OA
BRANCH  13  16
HETATM   16  C   UNL     1       4.238  31.294  52.151  1.00  0.00     0.124 C 
BRANCH  16  17
HETATM   17  C   UNL     1       4.147  32.240  53.348  1.00  0.00     0.047 C 
BRANCH  17  18
HETATM   18  C   UNL     1       3.050  31.961  54.377  1.00  0.00     0.236 C 
BRANCH  18  19
HETATM   19  N   UNL     1       3.518  32.000  55.806  1.00  0.00    -0.067 N 
HETATM   20  H   UNL     1       4.557  31.923  55.783  1.00  0.00     0.280 HD
HETATM   21  C   UNL     1       3.137  33.248  56.581  1.00  0.00     0.261 C 
HETATM   22  C   UNL     1       3.692  33.163  58.008  1.00  0.00     0.195 C 
HETATM   23  O   UNL     1       3.224  31.986  58.674  1.00  0.00    -0.388 OA
HETATM   24  C   UNL     1       3.648  30.798  57.995  1.00  0.00     0.195 C 
HETATM   25  C   UNL     1       3.079  30.754  56.574  1.00  0.00     0.261 C 
ENDBRANCH  18  19
ENDBRANCH  17  18
ENDBRANCH  16  17
ENDBRANCH  13  16
ENDBRANCH   6  12
BRANCH   9  26
HETATM   26  C   UNL     1       7.105  27.128  56.606  1.00  0.00     0.409 C 
HETATM   27  F   UNL     1       8.026  26.640  57.464  1.00  0.00    -0.169 F 
HETATM   28  F   UNL     1       7.777  27.911  55.725  1.00  0.00    -0.169 F 
HETATM   29  F   UNL     1       6.277  27.939  57.302  1.00  0.00    -0.169 F 
ENDBRANCH   9  26
BRANCH   1  30
HETATM   30  C   UNL     1       7.544  22.635  54.454  1.00  0.00     0.005 A 
HETATM   31  S   UNL     1       8.106  21.784  55.835  1.00  0.00    -0.104 SA
HETATM   32  C   UNL     1       8.929  20.633  54.876  1.00  0.00     0.050 A 
HETATM   33  C   UNL     1       8.784  20.885  53.531  1.00  0.00     0.008 A 
HETATM   34  C   UNL     1       7.977  22.034  53.286  1.00  0.00     0.017 A 
ENDBRANCH   1  30
TORSDOF 7
ENDMDL
