MODEL 1
REMARK VINA RESULT:      -9.7      0.000      0.000
REMARK  9 active torsions:
REMARK  status: ('A' for Active; 'I' for Inactive)
REMARK    1  A    between atoms: C_2  and  O_3 
REMARK    2  A    between atoms: O_3  and  C_4 
REMARK    3  A    between atoms: C_5  and  C_6 
REMARK    4  A    between atoms: N_7  and  C_9 
REMARK    5  A    between atoms: C_9  and  C_10 
REMARK       I    between atoms: C_10  and  N_11 
REMARK    6  A    between atoms: N_11  and  C_12 
REMARK    7  A    between atoms: C_20  and  C_21 
REMARK    8  A    between atoms: C_21  and  O_22 
REMARK    9  A    between atoms: C_28  and  O_29 
ROOT
HETATM    1  C   UNL     1       6.458  30.936  57.365  1.00  0.00     0.231 C 
HETATM    2  N   UNL     1       6.590  29.411  57.206  1.00  0.00    -0.054 N 
HETATM    3  H   UNL     1       7.198  29.122  57.994  1.00  0.00     0.281 HD
HETATM    4  C   UNL     1       5.319  28.613  57.352  1.00  0.00     0.239 C 
HETATM    5  C   UNL     1       4.208  29.156  56.474  1.00  0.00     0.066 C 
HETATM    6  C   UNL     1       3.955  30.642  56.730  1.00  0.00     0.065 C 
HETATM    7  C   UNL     1       5.260  31.439  56.514  1.00  0.00     0.055 C 
HETATM    8  C   UNL     1       2.840  31.154  55.797  1.00  0.00     0.038 C 
HETATM    9  C   UNL     1       2.621  32.661  55.927  1.00  0.00     0.003 C 
HETATM   10  C   UNL     1       3.915  33.431  55.701  1.00  0.00     0.001 C 
HETATM   11  C   UNL     1       5.024  32.956  56.636  1.00  0.00     0.010 C 
ENDROOT
BRANCH   2  12
HETATM   12  C   UNL     1       7.412  28.976  55.980  1.00  0.00     0.338 C 
BRANCH  12  13
HETATM   13  C   UNL     1       7.995  27.580  56.232  1.00  0.00     0.248 C 
HETATM   14  N   UNL     1       7.540  26.614  55.357  1.00  0.00    -0.319 N 
HETATM   15  H   UNL     1       6.882  26.870  54.618  1.00  0.00     0.169 HD
HETATM   16  O   UNL     1       8.664  27.430  57.251  1.00  0.00    -0.271 OA
BRANCH  14  17
HETATM   17  C   UNL     1       7.720  25.239  55.482  1.00  0.00     0.094 A 
HETATM   18  S   UNL     1       8.078  24.531  56.979  1.00  0.00    -0.075 SA
HETATM   19  C   UNL     1       8.121  22.976  56.313  1.00  0.00    -0.008 A 
HETATM   20  C   UNL     1       7.853  22.966  54.955  1.00  0.00    -0.026 A 
HETATM   21  C   UNL     1       8.381  21.768  57.162  1.00  0.00     0.047 C 
HETATM   22  C   UNL     1       7.827  21.673  54.182  1.00  0.00     0.041 C 
HETATM   23  C   UNL     1       7.648  24.309  54.447  1.00  0.00     0.080 A 
HETATM   24  C   UNL     1       7.757  20.441  55.098  1.00  0.00     0.005 C 
HETATM   25  C   UNL     1       8.720  20.557  56.285  1.00  0.00     0.005 C 
BRANCH  23  26
HETATM   26  C   UNL     1       7.355  24.724  53.070  1.00  0.00     0.296 C 
HETATM   27  O   UNL     1       8.182  25.325  52.385  1.00  0.00    -0.259 OA
BRANCH  26  28
HETATM   28  O   UNL     1       6.106  24.390  52.650  1.00  0.00    -0.322 OA
HETATM   29  C   UNL     1       5.189  25.480  52.547  1.00  0.00     0.213 C 
ENDBRANCH  26  28
ENDBRANCH  23  26
ENDBRANCH  14  17
ENDBRANCH  12  13
ENDBRANCH   2  12
BRANCH   1  30
HETATM   30  C   UNL     1       6.607  31.437  58.806  1.00  0.00     0.006 A 
HETATM   31  C   UNL     1       7.782  31.151  59.545  1.00  0.00     0.077 A 
HETATM   32  C   UNL     1       7.911  31.588  60.873  1.00  0.00     0.037 A 
HETATM   33  C   UNL     1       6.897  32.321  61.483  1.00  0.00     0.003 A 
HETATM   34  C   UNL     1       5.750  32.628  60.769  1.00  0.00     0.001 A 
HETATM   35  C   UNL     1       5.612  32.197  59.449  1.00  0.00     0.012 A 
BRANCH  31  36
HETATM   36  O   UNL     1       8.757  30.434  58.891  1.00  0.00    -0.351 OA
BRANCH  36  37
HETATM   37  C   UNL     1       9.923  31.153  58.473  1.00  0.00     0.171 C 
HETATM   38  C   UNL     1      10.608  30.361  57.374  1.00  0.00     0.034 C 
ENDBRANCH  36  37
ENDBRANCH  31  36
ENDBRANCH   1  30
BRANCH   6  39
HETATM   39  O   UNL     1       3.538  30.770  58.087  1.00  0.00    -0.389 OA
HETATM   40  H   UNL     1       4.212  31.253  58.603  1.00  0.00     0.210 HD
ENDBRANCH   6  39
TORSDOF 9
ENDMDL
MODEL 2
REMARK VINA RESULT:      -9.7      3.702      7.340
REMARK  9 active torsions:
REMARK  status: ('A' for Active; 'I' for Inactive)
REMARK    1  A    between atoms: C_2  and  O_3 
REMARK    2  A    between atoms: O_3  and  C_4 
REMARK    3  A    between atoms: C_5  and  C_6 
REMARK    4  A    between atoms: N_7  and  C_9 
REMARK    5  A    between atoms: C_9  and  C_10 
REMARK       I    between atoms: C_10  and  N_11 
REMARK    6  A    between atoms: N_11  and  C_12 
REMARK    7  A    between atoms: C_20  and  C_21 
REMARK    8  A    between atoms: C_21  and  O_22 
REMARK    9  A    between atoms: C_28  and  O_29 
ROOT
HETATM    1  C   UNL     1       7.465  27.915  55.670  1.00  0.00     0.231 C 
HETATM    2  N   UNL     1       5.968  28.244  55.546  1.00  0.00    -0.054 N 
HETATM    3  H   UNL     1       5.522  27.336  55.319  1.00  0.00     0.281 HD
HETATM    4  C   UNL     1       5.286  28.735  56.798  1.00  0.00     0.239 C 
HETATM    5  C   UNL     1       6.042  29.884  57.438  1.00  0.00     0.066 C 
HETATM    6  C   UNL     1       7.502  29.520  57.714  1.00  0.00     0.065 C 
HETATM    7  C   UNL     1       8.188  29.079  56.403  1.00  0.00     0.055 C 
HETATM    8  C   UNL     1       8.235  30.724  58.337  1.00  0.00     0.038 C 
HETATM    9  C   UNL     1       9.728  30.459  58.530  1.00  0.00     0.003 C 
HETATM   10  C   UNL     1      10.389  30.036  57.225  1.00  0.00     0.001 C 
HETATM   11  C   UNL     1       9.693  28.826  56.607  1.00  0.00     0.010 C 
ENDROOT
BRANCH   2  12
HETATM   12  C   UNL     1       5.612  29.100  54.317  1.00  0.00     0.338 C 
BRANCH  12  13
HETATM   13  C   UNL     1       4.852  28.237  53.302  1.00  0.00     0.248 C 
HETATM   14  N   UNL     1       5.220  28.456  51.990  1.00  0.00    -0.319 N 
HETATM   15  H   UNL     1       5.951  29.136  51.775  1.00  0.00     0.169 HD
HETATM   16  O   UNL     1       3.910  27.573  53.729  1.00  0.00    -0.271 OA
BRANCH  14  17
HETATM   17  C   UNL     1       4.555  27.988  50.859  1.00  0.00     0.094 A 
HETATM   18  S   UNL     1       4.778  26.404  50.300  1.00  0.00    -0.075 SA
HETATM   19  C   UNL     1       3.700  26.630  49.016  1.00  0.00    -0.008 A 
HETATM   20  C   UNL     1       3.146  27.898  48.997  1.00  0.00    -0.026 A 
HETATM   21  C   UNL     1       3.382  25.522  48.057  1.00  0.00     0.047 C 
HETATM   22  C   UNL     1       2.147  28.289  47.939  1.00  0.00     0.041 C 
HETATM   23  C   UNL     1       3.674  28.721  50.068  1.00  0.00     0.080 A 
HETATM   24  C   UNL     1       1.582  27.074  47.186  1.00  0.00     0.005 C 
HETATM   25  C   UNL     1       2.680  26.074  46.810  1.00  0.00     0.005 C 
BRANCH  23  26
HETATM   26  C   UNL     1       3.353  30.119  50.381  1.00  0.00     0.296 C 
HETATM   27  O   UNL     1       3.658  31.039  49.624  1.00  0.00    -0.259 OA
BRANCH  26  28
HETATM   28  O   UNL     1       2.709  30.281  51.567  1.00  0.00    -0.322 OA
HETATM   29  C   UNL     1       3.108  31.426  52.322  1.00  0.00     0.213 C 
ENDBRANCH  26  28
ENDBRANCH  23  26
ENDBRANCH  14  17
ENDBRANCH  12  13
ENDBRANCH   2  12
BRANCH   1  30
HETATM   30  C   UNL     1       7.764  26.473  56.094  1.00  0.00     0.006 A 
HETATM   31  C   UNL     1       7.400  25.391  55.255  1.00  0.00     0.077 A 
HETATM   32  C   UNL     1       7.651  24.068  55.653  1.00  0.00     0.037 A 
HETATM   33  C   UNL     1       8.271  23.795  56.869  1.00  0.00     0.003 A 
HETATM   34  C   UNL     1       8.651  24.841  57.693  1.00  0.00     0.001 A 
HETATM   35  C   UNL     1       8.406  26.160  57.307  1.00  0.00     0.012 A 
BRANCH  31  36
HETATM   36  O   UNL     1       6.801  25.717  54.061  1.00  0.00    -0.351 OA
BRANCH  36  37
HETATM   37  C   UNL     1       6.715  24.682  53.073  1.00  0.00     0.171 C 
HETATM   38  C   UNL     1       7.829  24.887  52.063  1.00  0.00     0.034 C 
ENDBRANCH  36  37
ENDBRANCH  31  36
ENDBRANCH   1  30
BRANCH   6  39
HETATM   39  O   UNL     1       7.498  28.434  58.637  1.00  0.00    -0.389 OA
HETATM   40  H   UNL     1       8.384  28.027  58.682  1.00  0.00     0.210 HD
ENDBRANCH   6  39
TORSDOF 9
ENDMDL
MODEL 3
REMARK VINA RESULT:      -9.5      2.285      8.644
REMARK  9 active torsions:
REMARK  status: ('A' for Active; 'I' for Inactive)
REMARK    1  A    between atoms: C_2  and  O_3 
REMARK    2  A    between atoms: O_3  and  C_4 
REMARK    3  A    between atoms: C_5  and  C_6 
REMARK    4  A    between atoms: N_7  and  C_9 
REMARK    5  A    between atoms: C_9  and  C_10 
REMARK       I    between atoms: C_10  and  N_11 
REMARK    6  A    between atoms: N_11  and  C_12 
REMARK    7  A    between atoms: C_20  and  C_21 
REMARK    8  A    between atoms: C_21  and  O_22 
REMARK    9  A    between atoms: C_28  and  O_29 
ROOT
HETATM    1  C   UNL     1       6.781  27.703  53.977  1.00  0.00     0.231 C 
HETATM    2  N   UNL     1       6.632  28.148  55.442  1.00  0.00    -0.054 N 
HETATM    3  H   UNL     1       6.052  29.004  55.394  1.00  0.00     0.281 HD
HETATM    4  C   UNL     1       5.894  27.201  56.354  1.00  0.00     0.239 C 
HETATM    5  C   UNL     1       6.444  25.790  56.269  1.00  0.00     0.066 C 
HETATM    6  C   UNL     1       6.455  25.271  54.830  1.00  0.00     0.065 C 
HETATM    7  C   UNL     1       7.268  26.228  53.934  1.00  0.00     0.055 C 
HETATM    8  C   UNL     1       7.047  23.847  54.790  1.00  0.00     0.038 C 
HETATM    9  C   UNL     1       7.190  23.318  53.363  1.00  0.00     0.003 C 
HETATM   10  C   UNL     1       8.003  24.270  52.497  1.00  0.00     0.001 C 
HETATM   11  C   UNL     1       7.415  25.679  52.503  1.00  0.00     0.010 C 
ENDROOT
BRANCH   2  12
HETATM   12  C   UNL     1       7.934  28.668  56.076  1.00  0.00     0.338 C 
BRANCH  12  13
HETATM   13  C   UNL     1       7.677  29.014  57.548  1.00  0.00     0.248 C 
HETATM   14  N   UNL     1       7.487  30.360  57.785  1.00  0.00    -0.319 N 
HETATM   15  H   UNL     1       7.513  31.020  57.006  1.00  0.00     0.169 HD
HETATM   16  O   UNL     1       7.820  28.109  58.367  1.00  0.00    -0.271 OA
BRANCH  14  17
HETATM   17  C   UNL     1       7.458  30.981  59.031  1.00  0.00     0.094 A 
HETATM   18  S   UNL     1       8.679  30.714  60.176  1.00  0.00    -0.075 SA
HETATM   19  C   UNL     1       7.953  31.756  61.295  1.00  0.00    -0.008 A 
HETATM   20  C   UNL     1       6.788  32.329  60.819  1.00  0.00    -0.026 A 
HETATM   21  C   UNL     1       8.578  32.025  62.632  1.00  0.00     0.047 C 
HETATM   22  C   UNL     1       6.004  33.301  61.662  1.00  0.00     0.041 C 
HETATM   23  C   UNL     1       6.468  31.849  59.488  1.00  0.00     0.080 A 
HETATM   24  C   UNL     1       6.810  33.822  62.862  1.00  0.00     0.005 C 
HETATM   25  C   UNL     1       7.569  32.696  63.572  1.00  0.00     0.005 C 
BRANCH  23  26
HETATM   26  C   UNL     1       5.319  32.202  58.647  1.00  0.00     0.296 C 
HETATM   27  O   UNL     1       4.164  31.947  58.987  1.00  0.00    -0.259 OA
BRANCH  26  28
HETATM   28  O   UNL     1       5.659  32.817  57.483  1.00  0.00    -0.322 OA
HETATM   29  C   UNL     1       4.770  33.853  57.063  1.00  0.00     0.213 C 
ENDBRANCH  26  28
ENDBRANCH  23  26
ENDBRANCH  14  17
ENDBRANCH  12  13
ENDBRANCH   2  12
BRANCH   1  30
HETATM   30  C   UNL     1       5.625  28.129  53.065  1.00  0.00     0.006 A 
HETATM   31  C   UNL     1       4.771  29.194  53.444  1.00  0.00     0.077 A 
HETATM   32  C   UNL     1       3.696  29.569  52.623  1.00  0.00     0.037 A 
HETATM   33  C   UNL     1       3.457  28.914  51.418  1.00  0.00     0.003 A 
HETATM   34  C   UNL     1       4.294  27.884  51.022  1.00  0.00     0.001 A 
HETATM   35  C   UNL     1       5.365  27.503  51.832  1.00  0.00     0.012 A 
BRANCH  31  36
HETATM   36  O   UNL     1       5.057  29.814  54.638  1.00  0.00    -0.351 OA
BRANCH  36  37
HETATM   37  C   UNL     1       4.045  30.666  55.188  1.00  0.00     0.171 C 
HETATM   38  C   UNL     1       3.423  29.966  56.382  1.00  0.00     0.034 C 
ENDBRANCH  36  37
ENDBRANCH  31  36
ENDBRANCH   1  30
BRANCH   6  39
HETATM   39  O   UNL     1       5.101  25.236  54.386  1.00  0.00    -0.389 OA
HETATM   40  H   UNL     1       4.514  24.959  55.116  1.00  0.00     0.210 HD
ENDBRANCH   6  39
TORSDOF 9
ENDMDL
MODEL 4
REMARK VINA RESULT:      -9.4      3.257      9.195
REMARK  9 active torsions:
REMARK  status: ('A' for Active; 'I' for Inactive)
REMARK    1  A    between atoms: C_2  and  O_3 
REMARK    2  A    between atoms: O_3  and  C_4 
REMARK    3  A    between atoms: C_5  and  C_6 
REMARK    4  A    between atoms: N_7  and  C_9 
REMARK    5  A    between atoms: C_9  and  C_10 
REMARK       I    between atoms: C_10  and  N_11 
REMARK    6  A    between atoms: N_11  and  C_12 
REMARK    7  A    between atoms: C_20  and  C_21 
REMARK    8  A    between atoms: C_21  and  O_22 
REMARK    9  A    between atoms: C_28  and  O_29 
ROOT
HETATM    1  C   UNL     1       6.715  29.495  57.561  1.00  0.00     0.231 C 
HETATM    2  N   UNL     1       5.842  30.653  57.050  1.00  0.00    -0.054 N 
HETATM    3  H   UNL     1       6.436  31.494  57.164  1.00  0.00     0.281 HD
HETATM    4  C   UNL     1       5.465  30.611  55.590  1.00  0.00     0.239 C 
HETATM    5  C   UNL     1       4.871  29.271  55.199  1.00  0.00     0.066 C 
HETATM    6  C   UNL     1       5.800  28.111  55.561  1.00  0.00     0.065 C 
HETATM    7  C   UNL     1       6.118  28.147  57.071  1.00  0.00     0.055 C 
HETATM    8  C   UNL     1       5.144  26.771  55.171  1.00  0.00     0.038 C 
HETATM    9  C   UNL     1       5.975  25.567  55.612  1.00  0.00     0.003 C 
HETATM   10  C   UNL     1       6.270  25.614  57.105  1.00  0.00     0.001 C 
HETATM   11  C   UNL     1       6.946  26.923  57.505  1.00  0.00     0.010 C 
ENDROOT
BRANCH   2  12
HETATM   12  C   UNL     1       4.637  30.978  57.951  1.00  0.00     0.338 C 
BRANCH  12  13
HETATM   13  C   UNL     1       5.106  31.838  59.131  1.00  0.00     0.248 C 
HETATM   14  N   UNL     1       4.358  31.674  60.280  1.00  0.00    -0.319 N 
HETATM   15  H   UNL     1       3.580  31.012  60.287  1.00  0.00     0.169 HD
HETATM   16  O   UNL     1       5.973  32.678  58.900  1.00  0.00    -0.271 OA
BRANCH  14  17
HETATM   17  C   UNL     1       4.411  32.473  61.419  1.00  0.00     0.094 A 
HETATM   18  S   UNL     1       5.289  31.997  62.788  1.00  0.00    -0.075 SA
HETATM   19  C   UNL     1       4.877  33.407  63.628  1.00  0.00    -0.008 A 
HETATM   20  C   UNL     1       4.082  34.262  62.886  1.00  0.00    -0.026 A 
HETATM   21  C   UNL     1       5.386  33.668  65.014  1.00  0.00     0.047 C 
HETATM   22  C   UNL     1       3.624  35.580  63.455  1.00  0.00     0.041 C 
HETATM   23  C   UNL     1       3.773  33.700  61.585  1.00  0.00     0.080 A 
HETATM   24  C   UNL     1       4.412  35.984  64.711  1.00  0.00     0.005 C 
HETATM   25  C   UNL     1       4.597  34.805  65.672  1.00  0.00     0.005 C 
BRANCH  23  26
HETATM   26  C   UNL     1       2.955  34.283  60.515  1.00  0.00     0.296 C 
HETATM   27  O   UNL     1       1.902  33.763  60.149  1.00  0.00    -0.259 OA
BRANCH  26  28
HETATM   28  O   UNL     1       3.475  35.422  59.985  1.00  0.00    -0.322 OA
HETATM   29  C   UNL     1       3.751  35.366  58.585  1.00  0.00     0.213 C 
ENDBRANCH  26  28
ENDBRANCH  23  26
ENDBRANCH  14  17
ENDBRANCH  12  13
ENDBRANCH   2  12
BRANCH   1  30
HETATM   30  C   UNL     1       8.223  29.731  57.425  1.00  0.00     0.006 A 
HETATM   31  C   UNL     1       8.973  30.212  58.527  1.00  0.00     0.077 A 
HETATM   32  C   UNL     1      10.351  30.452  58.398  1.00  0.00     0.037 A 
HETATM   33  C   UNL     1      11.006  30.211  57.194  1.00  0.00     0.003 A 
HETATM   34  C   UNL     1      10.293  29.722  56.112  1.00  0.00     0.001 A 
HETATM   35  C   UNL     1       8.923  29.481  56.230  1.00  0.00     0.012 A 
BRANCH  31  36
HETATM   36  O   UNL     1       8.279  30.422  59.696  1.00  0.00    -0.351 OA
BRANCH  36  37
HETATM   37  C   UNL     1       9.053  30.612  60.887  1.00  0.00     0.171 C 
HETATM   38  C   UNL     1       8.860  32.040  61.363  1.00  0.00     0.034 C 
ENDBRANCH  36  37
ENDBRANCH  31  36
ENDBRANCH   1  30
BRANCH   6  39
HETATM   39  O   UNL     1       7.002  28.287  54.816  1.00  0.00    -0.389 OA
HETATM   40  H   UNL     1       7.068  27.608  54.117  1.00  0.00     0.210 HD
ENDBRANCH   6  39
TORSDOF 9
ENDMDL
MODEL 5
REMARK VINA RESULT:      -9.3      2.384      8.826
REMARK  9 active torsions:
REMARK  status: ('A' for Active; 'I' for Inactive)
REMARK    1  A    between atoms: C_2  and  O_3 
REMARK    2  A    between atoms: O_3  and  C_4 
REMARK    3  A    between atoms: C_5  and  C_6 
REMARK    4  A    between atoms: N_7  and  C_9 
REMARK    5  A    between atoms: C_9  and  C_10 
REMARK       I    between atoms: C_10  and  N_11 
REMARK    6  A    between atoms: N_11  and  C_12 
REMARK    7  A    between atoms: C_20  and  C_21 
REMARK    8  A    between atoms: C_21  and  O_22 
REMARK    9  A    between atoms: C_28  and  O_29 
ROOT
HETATM    1  C   UNL     1       6.742  27.425  53.609  1.00  0.00     0.231 C 
HETATM    2  N   UNL     1       6.414  27.973  55.008  1.00  0.00    -0.054 N 
HETATM    3  H   UNL     1       5.840  28.817  54.827  1.00  0.00     0.281 HD
HETATM    4  C   UNL     1       5.571  27.087  55.891  1.00  0.00     0.239 C 
HETATM    5  C   UNL     1       6.133  25.680  55.978  1.00  0.00     0.066 C 
HETATM    6  C   UNL     1       6.321  25.057  54.594  1.00  0.00     0.065 C 
HETATM    7  C   UNL     1       7.236  25.957  53.735  1.00  0.00     0.055 C 
HETATM    8  C   UNL     1       6.919  23.642  54.731  1.00  0.00     0.038 C 
HETATM    9  C   UNL     1       7.237  23.012  53.375  1.00  0.00     0.003 C 
HETATM   10  C   UNL     1       8.147  23.909  52.547  1.00  0.00     0.001 C 
HETATM   11  C   UNL     1       7.558  25.307  52.377  1.00  0.00     0.010 C 
ENDROOT
BRANCH   2  12
HETATM   12  C   UNL     1       7.626  28.555  55.756  1.00  0.00     0.338 C 
BRANCH  12  13
HETATM   13  C   UNL     1       7.179  29.052  57.136  1.00  0.00     0.248 C 
HETATM   14  N   UNL     1       6.927  30.408  57.191  1.00  0.00    -0.319 N 
HETATM   15  H   UNL     1       7.033  30.978  56.350  1.00  0.00     0.169 HD
HETATM   16  O   UNL     1       7.240  28.251  58.066  1.00  0.00    -0.271 OA
BRANCH  14  17
HETATM   17  C   UNL     1       6.726  31.163  58.344  1.00  0.00     0.094 A 
HETATM   18  S   UNL     1       5.225  31.875  58.680  1.00  0.00    -0.075 SA
HETATM   19  C   UNL     1       5.784  32.535  60.133  1.00  0.00    -0.008 A 
HETATM   20  C   UNL     1       7.106  32.220  60.394  1.00  0.00    -0.026 A 
HETATM   21  C   UNL     1       4.883  33.334  61.027  1.00  0.00     0.047 C 
HETATM   22  C   UNL     1       7.783  32.701  61.651  1.00  0.00     0.041 C 
HETATM   23  C   UNL     1       7.683  31.433  59.320  1.00  0.00     0.080 A 
HETATM   24  C   UNL     1       6.781  33.214  62.698  1.00  0.00     0.005 C 
HETATM   25  C   UNL     1       5.704  34.104  62.069  1.00  0.00     0.005 C 
BRANCH  23  26
HETATM   26  C   UNL     1       9.050  30.912  59.210  1.00  0.00     0.296 C 
HETATM   27  O   UNL     1       9.492  30.078  60.000  1.00  0.00    -0.259 OA
BRANCH  26  28
HETATM   28  O   UNL     1       9.756  31.440  58.175  1.00  0.00    -0.322 OA
HETATM   29  C   UNL     1      10.600  30.517  57.484  1.00  0.00     0.213 C 
ENDBRANCH  26  28
ENDBRANCH  23  26
ENDBRANCH  14  17
ENDBRANCH  12  13
ENDBRANCH   2  12
BRANCH   1  30
HETATM   30  C   UNL     1       5.705  27.769  52.535  1.00  0.00     0.006 A 
HETATM   31  C   UNL     1       4.823  28.863  52.717  1.00  0.00     0.077 A 
HETATM   32  C   UNL     1       3.856  29.165  51.745  1.00  0.00     0.037 A 
HETATM   33  C   UNL     1       3.753  28.407  50.582  1.00  0.00     0.003 A 
HETATM   34  C   UNL     1       4.620  27.346  50.378  1.00  0.00     0.001 A 
HETATM   35  C   UNL     1       5.585  27.038  51.339  1.00  0.00     0.012 A 
BRANCH  31  36
HETATM   36  O   UNL     1       4.974  29.585  53.877  1.00  0.00    -0.351 OA
BRANCH  36  37
HETATM   37  C   UNL     1       3.922  30.497  54.218  1.00  0.00     0.171 C 
HETATM   38  C   UNL     1       3.623  30.354  55.699  1.00  0.00     0.034 C 
ENDBRANCH  36  37
ENDBRANCH  31  36
ENDBRANCH   1  30
BRANCH   6  39
HETATM   39  O   UNL     1       5.033  24.974  53.991  1.00  0.00    -0.389 OA
HETATM   40  H   UNL     1       4.692  24.060  54.049  1.00  0.00     0.210 HD
ENDBRANCH   6  39
TORSDOF 9
ENDMDL
MODEL 6
REMARK VINA RESULT:      -9.2      3.129      9.413
REMARK  9 active torsions:
REMARK  status: ('A' for Active; 'I' for Inactive)
REMARK    1  A    between atoms: C_2  and  O_3 
REMARK    2  A    between atoms: O_3  and  C_4 
REMARK    3  A    between atoms: C_5  and  C_6 
REMARK    4  A    between atoms: N_7  and  C_9 
REMARK    5  A    between atoms: C_9  and  C_10 
REMARK       I    between atoms: C_10  and  N_11 
REMARK    6  A    between atoms: N_11  and  C_12 
REMARK    7  A    between atoms: C_20  and  C_21 
REMARK    8  A    between atoms: C_21  and  O_22 
REMARK    9  A    between atoms: C_28  and  O_29 
ROOT
HETATM    1  C   UNL     1       6.916  28.831  57.632  1.00  0.00     0.231 C 
HETATM    2  N   UNL     1       5.832  29.793  57.116  1.00  0.00    -0.054 N 
HETATM    3  H   UNL     1       6.230  30.737  57.272  1.00  0.00     0.281 HD
HETATM    4  C   UNL     1       5.520  29.717  55.643  1.00  0.00     0.239 C 
HETATM    5  C   UNL     1       5.238  28.295  55.198  1.00  0.00     0.066 C 
HETATM    6  C   UNL     1       6.381  27.347  55.567  1.00  0.00     0.065 C 
HETATM    7  C   UNL     1       6.636  27.403  57.088  1.00  0.00     0.055 C 
HETATM    8  C   UNL     1       6.038  25.912  55.121  1.00  0.00     0.038 C 
HETATM    9  C   UNL     1       7.092  24.898  55.564  1.00  0.00     0.003 C 
HETATM   10  C   UNL     1       7.323  24.960  57.068  1.00  0.00     0.001 C 
HETATM   11  C   UNL     1       7.691  26.370  57.525  1.00  0.00     0.010 C 
ENDROOT
BRANCH   2  12
HETATM   12  C   UNL     1       4.559  29.826  57.979  1.00  0.00     0.338 C 
BRANCH  12  13
HETATM   13  C   UNL     1       4.146  31.284  58.216  1.00  0.00     0.248 C 
HETATM   14  N   UNL     1       4.886  31.928  59.188  1.00  0.00    -0.319 N 
HETATM   15  H   UNL     1       5.639  31.429  59.665  1.00  0.00     0.169 HD
HETATM   16  O   UNL     1       3.128  31.676  57.650  1.00  0.00    -0.271 OA
BRANCH  14  17
HETATM   17  C   UNL     1       4.594  33.162  59.762  1.00  0.00     0.094 A 
HETATM   18  S   UNL     1       4.448  34.561  58.816  1.00  0.00    -0.075 SA
HETATM   19  C   UNL     1       4.106  35.523  60.165  1.00  0.00    -0.008 A 
HETATM   20  C   UNL     1       4.084  34.803  61.346  1.00  0.00    -0.026 A 
HETATM   21  C   UNL     1       3.819  36.989  60.028  1.00  0.00     0.047 C 
HETATM   22  C   UNL     1       3.779  35.479  62.658  1.00  0.00     0.041 C 
HETATM   23  C   UNL     1       4.406  33.407  61.121  1.00  0.00     0.080 A 
HETATM   24  C   UNL     1       3.165  36.876  62.471  1.00  0.00     0.005 C 
HETATM   25  C   UNL     1       3.898  37.682  61.393  1.00  0.00     0.005 C 
BRANCH  23  26
HETATM   26  C   UNL     1       4.499  32.326  62.108  1.00  0.00     0.296 C 
HETATM   27  O   UNL     1       3.613  31.480  62.228  1.00  0.00    -0.259 OA
BRANCH  26  28
HETATM   28  O   UNL     1       5.632  32.363  62.858  1.00  0.00    -0.322 OA
HETATM   29  C   UNL     1       5.464  32.861  64.186  1.00  0.00     0.213 C 
ENDBRANCH  26  28
ENDBRANCH  23  26
ENDBRANCH  14  17
ENDBRANCH  12  13
ENDBRANCH   2  12
BRANCH   1  30
HETATM   30  C   UNL     1       8.342  29.386  57.559  1.00  0.00     0.006 A 
HETATM   31  C   UNL     1       8.712  30.513  58.335  1.00  0.00     0.077 A 
HETATM   32  C   UNL     1      10.011  31.038  58.251  1.00  0.00     0.037 A 
HETATM   33  C   UNL     1      10.963  30.455  57.418  1.00  0.00     0.003 A 
HETATM   34  C   UNL     1      10.626  29.341  56.668  1.00  0.00     0.001 A 
HETATM   35  C   UNL     1       9.336  28.812  56.744  1.00  0.00     0.012 A 
BRANCH  31  36
HETATM   36  O   UNL     1       7.738  31.042  59.149  1.00  0.00    -0.351 OA
BRANCH  36  37
HETATM   37  C   UNL     1       8.031  31.118  60.549  1.00  0.00     0.171 C 
HETATM   38  C   UNL     1       8.284  32.571  60.909  1.00  0.00     0.034 C 
ENDBRANCH  36  37
ENDBRANCH  31  36
ENDBRANCH   1  30
BRANCH   6  39
HETATM   39  O   UNL     1       7.541  27.797  54.872  1.00  0.00    -0.389 OA
HETATM   40  H   UNL     1       7.708  28.739  55.071  1.00  0.00     0.210 HD
ENDBRANCH   6  39
TORSDOF 9
ENDMDL
MODEL 7
REMARK VINA RESULT:      -8.8      4.119      7.263
REMARK  9 active torsions:
REMARK  status: ('A' for Active; 'I' for Inactive)
REMARK    1  A    between atoms: C_2  and  O_3 
REMARK    2  A    between atoms: O_3  and  C_4 
REMARK    3  A    between atoms: C_5  and  C_6 
REMARK    4  A    between atoms: N_7  and  C_9 
REMARK    5  A    between atoms: C_9  and  C_10 
REMARK       I    between atoms: C_10  and  N_11 
REMARK    6  A    between atoms: N_11  and  C_12 
REMARK    7  A    between atoms: C_20  and  C_21 
REMARK    8  A    between atoms: C_21  and  O_22 
REMARK    9  A    between atoms: C_28  and  O_29 
ROOT
HETATM    1  C   UNL     1       5.019  35.274  61.856  1.00  0.00     0.231 C 
HETATM    2  N   UNL     1       4.078  34.638  60.819  1.00  0.00    -0.054 N 
HETATM    3  H   UNL     1       3.830  33.718  61.227  1.00  0.00     0.281 HD
HETATM    4  C   UNL     1       2.770  35.349  60.580  1.00  0.00     0.239 C 
HETATM    5  C   UNL     1       2.974  36.824  60.294  1.00  0.00     0.066 C 
HETATM    6  C   UNL     1       3.779  37.511  61.398  1.00  0.00     0.065 C 
HETATM    7  C   UNL     1       5.136  36.798  61.576  1.00  0.00     0.055 C 
HETATM    8  C   UNL     1       3.984  39.000  61.049  1.00  0.00     0.038 C 
HETATM    9  C   UNL     1       4.880  39.715  62.060  1.00  0.00     0.003 C 
HETATM   10  C   UNL     1       6.218  39.003  62.216  1.00  0.00     0.001 C 
HETATM   11  C   UNL     1       6.034  37.533  62.588  1.00  0.00     0.010 C 
ENDROOT
BRANCH   2  12
HETATM   12  C   UNL     1       4.771  34.238  59.505  1.00  0.00     0.338 C 
BRANCH  12  13
HETATM   13  C   UNL     1       4.866  32.709  59.428  1.00  0.00     0.248 C 
HETATM   14  N   UNL     1       5.775  32.247  58.497  1.00  0.00    -0.319 N 
HETATM   15  H   UNL     1       6.319  32.915  57.946  1.00  0.00     0.169 HD
HETATM   16  O   UNL     1       4.037  32.065  60.067  1.00  0.00    -0.271 OA
BRANCH  14  17
HETATM   17  C   UNL     1       5.910  30.933  58.058  1.00  0.00     0.094 A 
HETATM   18  S   UNL     1       4.687  30.176  57.161  1.00  0.00    -0.075 SA
HETATM   19  C   UNL     1       5.573  28.740  57.034  1.00  0.00    -0.008 A 
HETATM   20  C   UNL     1       6.807  28.813  57.654  1.00  0.00    -0.026 A 
HETATM   21  C   UNL     1       5.043  27.558  56.277  1.00  0.00     0.047 C 
HETATM   22  C   UNL     1       7.753  27.640  57.636  1.00  0.00     0.041 C 
HETATM   23  C   UNL     1       7.002  30.100  58.294  1.00  0.00     0.080 A 
HETATM   24  C   UNL     1       7.357  26.582  56.594  1.00  0.00     0.005 C 
HETATM   25  C   UNL     1       5.852  26.299  56.612  1.00  0.00     0.005 C 
BRANCH  23  26
HETATM   26  C   UNL     1       8.163  30.568  59.060  1.00  0.00     0.296 C 
HETATM   27  O   UNL     1       8.534  29.999  60.086  1.00  0.00    -0.259 OA
BRANCH  26  28
HETATM   28  O   UNL     1       8.760  31.669  58.533  1.00  0.00    -0.322 OA
HETATM   29  C   UNL     1      10.155  31.529  58.260  1.00  0.00     0.213 C 
ENDBRANCH  26  28
ENDBRANCH  23  26
ENDBRANCH  14  17
ENDBRANCH  12  13
ENDBRANCH   2  12
BRANCH   1  30
HETATM   30  C   UNL     1       4.789  34.800  63.295  1.00  0.00     0.006 A 
HETATM   31  C   UNL     1       5.800  34.084  63.982  1.00  0.00     0.077 A 
HETATM   32  C   UNL     1       5.583  33.627  65.292  1.00  0.00     0.037 A 
HETATM   33  C   UNL     1       4.379  33.880  65.944  1.00  0.00     0.003 A 
HETATM   34  C   UNL     1       3.386  34.597  65.295  1.00  0.00     0.001 A 
HETATM   35  C   UNL     1       3.593  35.054  63.993  1.00  0.00     0.012 A 
BRANCH  31  36
HETATM   36  O   UNL     1       6.973  33.871  63.297  1.00  0.00    -0.351 OA
BRANCH  36  37
HETATM   37  C   UNL     1       7.924  32.980  63.894  1.00  0.00     0.171 C 
HETATM   38  C   UNL     1       8.076  31.766  62.996  1.00  0.00     0.034 C 
ENDBRANCH  36  37
ENDBRANCH  31  36
ENDBRANCH   1  30
BRANCH   6  39
HETATM   39  O   UNL     1       3.021  37.403  62.600  1.00  0.00    -0.389 OA
HETATM   40  H   UNL     1       2.075  37.279  62.391  1.00  0.00     0.210 HD
ENDBRANCH   6  39
TORSDOF 9
ENDMDL
MODEL 8
REMARK VINA RESULT:      -8.6      1.921      2.765
REMARK  9 active torsions:
REMARK  status: ('A' for Active; 'I' for Inactive)
REMARK    1  A    between atoms: C_2  and  O_3 
REMARK    2  A    between atoms: O_3  and  C_4 
REMARK    3  A    between atoms: C_5  and  C_6 
REMARK    4  A    between atoms: N_7  and  C_9 
REMARK    5  A    between atoms: C_9  and  C_10 
REMARK       I    between atoms: C_10  and  N_11 
REMARK    6  A    between atoms: N_11  and  C_12 
REMARK    7  A    between atoms: C_20  and  C_21 
REMARK    8  A    between atoms: C_21  and  O_22 
REMARK    9  A    between atoms: C_28  and  O_29 
ROOT
HETATM    1  C   UNL     1       5.596  32.094  57.276  1.00  0.00     0.231 C 
HETATM    2  N   UNL     1       5.168  30.699  56.791  1.00  0.00    -0.054 N 
HETATM    3  H   UNL     1       5.601  30.046  57.470  1.00  0.00     0.281 HD
HETATM    4  C   UNL     1       3.689  30.406  56.823  1.00  0.00     0.239 C 
HETATM    5  C   UNL     1       2.884  31.491  56.133  1.00  0.00     0.066 C 
HETATM    6  C   UNL     1       3.183  32.875  56.712  1.00  0.00     0.065 C 
HETATM    7  C   UNL     1       4.694  33.169  56.609  1.00  0.00     0.055 C 
HETATM    8  C   UNL     1       2.365  33.946  55.962  1.00  0.00     0.038 C 
HETATM    9  C   UNL     1       2.706  35.363  56.419  1.00  0.00     0.003 C 
HETATM   10  C   UNL     1       4.199  35.639  56.302  1.00  0.00     0.001 C 
HETATM   11  C   UNL     1       5.025  34.604  57.062  1.00  0.00     0.010 C 
ENDROOT
BRANCH   2  12
HETATM   12  C   UNL     1       5.817  30.270  55.463  1.00  0.00     0.338 C 
BRANCH  12  13
HETATM   13  C   UNL     1       5.785  28.740  55.356  1.00  0.00     0.248 C 
HETATM   14  N   UNL     1       7.026  28.162  55.174  1.00  0.00    -0.319 N 
HETATM   15  H   UNL     1       7.858  28.753  55.136  1.00  0.00     0.169 HD
HETATM   16  O   UNL     1       4.679  28.208  55.285  1.00  0.00    -0.271 OA
BRANCH  14  17
HETATM   17  C   UNL     1       7.275  26.837  54.826  1.00  0.00     0.094 A 
HETATM   18  S   UNL     1       7.419  26.366  53.205  1.00  0.00    -0.075 SA
HETATM   19  C   UNL     1       7.702  24.752  53.626  1.00  0.00    -0.008 A 
HETATM   20  C   UNL     1       7.705  24.546  54.994  1.00  0.00    -0.026 A 
HETATM   21  C   UNL     1       7.961  23.705  52.584  1.00  0.00     0.047 C 
HETATM   22  C   UNL     1       7.958  23.177  55.571  1.00  0.00     0.041 C 
HETATM   23  C   UNL     1       7.418  25.773  55.714  1.00  0.00     0.080 A 
HETATM   24  C   UNL     1       8.548  22.205  54.537  1.00  0.00     0.005 C 
HETATM   25  C   UNL     1       7.829  22.301  53.187  1.00  0.00     0.005 C 
BRANCH  23  26
HETATM   26  C   UNL     1       7.319  25.974  57.164  1.00  0.00     0.296 C 
HETATM   27  O   UNL     1       8.094  26.713  57.770  1.00  0.00    -0.259 OA
BRANCH  26  28
HETATM   28  O   UNL     1       6.314  25.270  57.748  1.00  0.00    -0.322 OA
HETATM   29  C   UNL     1       5.036  25.407  57.124  1.00  0.00     0.213 C 
ENDBRANCH  26  28
ENDBRANCH  23  26
ENDBRANCH  14  17
ENDBRANCH  12  13
ENDBRANCH   2  12
BRANCH   1  30
HETATM   30  C   UNL     1       5.868  32.185  58.782  1.00  0.00     0.006 A 
HETATM   31  C   UNL     1       7.139  31.835  59.301  1.00  0.00     0.077 A 
HETATM   32  C   UNL     1       7.383  31.894  60.683  1.00  0.00     0.037 A 
HETATM   33  C   UNL     1       6.389  32.309  61.565  1.00  0.00     0.003 A 
HETATM   34  C   UNL     1       5.147  32.675  61.073  1.00  0.00     0.001 A 
HETATM   35  C   UNL     1       4.894  32.619  59.701  1.00  0.00     0.012 A 
BRANCH  31  36
HETATM   36  O   UNL     1       8.088  31.443  58.386  1.00  0.00    -0.351 OA
BRANCH  36  37
HETATM   37  C   UNL     1       8.601  30.110  58.511  1.00  0.00     0.171 C 
HETATM   38  C   UNL     1       9.612  29.878  57.404  1.00  0.00     0.034 C 
ENDBRANCH  36  37
ENDBRANCH  31  36
ENDBRANCH   1  30
BRANCH   6  39
HETATM   39  O   UNL     1       2.794  32.851  58.082  1.00  0.00    -0.389 OA
HETATM   40  H   UNL     1       3.573  32.696  58.651  1.00  0.00     0.210 HD
ENDBRANCH   6  39
TORSDOF 9
ENDMDL
MODEL 9
REMARK VINA RESULT:      -8.5      3.967      6.861
REMARK  9 active torsions:
REMARK  status: ('A' for Active; 'I' for Inactive)
REMARK    1  A    between atoms: C_2  and  O_3 
REMARK    2  A    between atoms: O_3  and  C_4 
REMARK    3  A    between atoms: C_5  and  C_6 
REMARK    4  A    between atoms: N_7  and  C_9 
REMARK    5  A    between atoms: C_9  and  C_10 
REMARK       I    between atoms: C_10  and  N_11 
REMARK    6  A    between atoms: N_11  and  C_12 
REMARK    7  A    between atoms: C_20  and  C_21 
REMARK    8  A    between atoms: C_21  and  O_22 
REMARK    9  A    between atoms: C_28  and  O_29 
ROOT
HETATM    1  C   UNL     1       5.404  35.219  61.958  1.00  0.00     0.231 C 
HETATM    2  N   UNL     1       4.354  34.338  61.260  1.00  0.00    -0.054 N 
HETATM    3  H   UNL     1       4.442  33.415  61.724  1.00  0.00     0.281 HD
HETATM    4  C   UNL     1       2.914  34.751  61.435  1.00  0.00     0.239 C 
HETATM    5  C   UNL     1       2.702  36.215  61.100  1.00  0.00     0.066 C 
HETATM    6  C   UNL     1       3.636  37.122  61.904  1.00  0.00     0.065 C 
HETATM    7  C   UNL     1       5.103  36.713  61.656  1.00  0.00     0.055 C 
HETATM    8  C   UNL     1       3.404  38.595  61.510  1.00  0.00     0.038 C 
HETATM    9  C   UNL     1       4.388  39.541  62.197  1.00  0.00     0.003 C 
HETATM   10  C   UNL     1       5.830  39.128  61.934  1.00  0.00     0.001 C 
HETATM   11  C   UNL     1       6.085  37.680  62.344  1.00  0.00     0.010 C 
ENDROOT
BRANCH   2  12
HETATM   12  C   UNL     1       4.688  34.002  59.796  1.00  0.00     0.338 C 
BRANCH  12  13
HETATM   13  C   UNL     1       5.230  32.569  59.716  1.00  0.00     0.248 C 
HETATM   14  N   UNL     1       5.641  32.192  58.454  1.00  0.00    -0.319 N 
HETATM   15  H   UNL     1       5.579  32.858  57.681  1.00  0.00     0.169 HD
HETATM   16  O   UNL     1       5.100  31.867  60.717  1.00  0.00    -0.271 OA
BRANCH  14  17
HETATM   17  C   UNL     1       5.961  30.901  58.043  1.00  0.00     0.094 A 
HETATM   18  S   UNL     1       7.496  30.242  58.328  1.00  0.00    -0.075 SA
HETATM   19  C   UNL     1       7.080  28.775  57.594  1.00  0.00    -0.008 A 
HETATM   20  C   UNL     1       5.776  28.756  57.134  1.00  0.00    -0.026 A 
HETATM   21  C   UNL     1       8.052  27.635  57.518  1.00  0.00     0.047 C 
HETATM   22  C   UNL     1       5.210  27.530  56.465  1.00  0.00     0.041 C 
HETATM   23  C   UNL     1       5.114  30.025  57.366  1.00  0.00     0.080 A 
HETATM   24  C   UNL     1       6.078  26.282  56.693  1.00  0.00     0.005 C 
HETATM   25  C   UNL     1       7.570  26.583  56.512  1.00  0.00     0.005 C 
BRANCH  23  26
HETATM   26  C   UNL     1       3.742  30.412  57.018  1.00  0.00     0.296 C 
HETATM   27  O   UNL     1       2.931  30.762  57.875  1.00  0.00    -0.259 OA
BRANCH  26  28
HETATM   28  O   UNL     1       3.471  30.337  55.688  1.00  0.00    -0.322 OA
HETATM   29  C   UNL     1       3.991  31.411  54.903  1.00  0.00     0.213 C 
ENDBRANCH  26  28
ENDBRANCH  23  26
ENDBRANCH  14  17
ENDBRANCH  12  13
ENDBRANCH   2  12
BRANCH   1  30
HETATM   30  C   UNL     1       5.723  34.802  63.398  1.00  0.00     0.006 A 
HETATM   31  C   UNL     1       6.707  33.815  63.655  1.00  0.00     0.077 A 
HETATM   32  C   UNL     1       6.984  33.414  64.972  1.00  0.00     0.037 A 
HETATM   33  C   UNL     1       6.311  33.987  66.048  1.00  0.00     0.003 A 
HETATM   34  C   UNL     1       5.361  34.969  65.817  1.00  0.00     0.001 A 
HETATM   35  C   UNL     1       5.077  35.373  64.511  1.00  0.00     0.012 A 
BRANCH  31  36
HETATM   36  O   UNL     1       7.349  33.290  62.559  1.00  0.00    -0.351 OA
BRANCH  36  37
HETATM   37  C   UNL     1       8.003  32.027  62.731  1.00  0.00     0.171 C 
HETATM   38  C   UNL     1       9.185  31.964  61.780  1.00  0.00     0.034 C 
ENDBRANCH  36  37
ENDBRANCH  31  36
ENDBRANCH   1  30
BRANCH   6  39
HETATM   39  O   UNL     1       3.316  36.941  63.280  1.00  0.00    -0.389 OA
HETATM   40  H   UNL     1       4.132  36.924  63.816  1.00  0.00     0.210 HD
ENDBRANCH   6  39
TORSDOF 9
ENDMDL
MODEL 10
REMARK VINA RESULT:      -8.4      1.506      2.023
REMARK  9 active torsions:
REMARK  status: ('A' for Active; 'I' for Inactive)
REMARK    1  A    between atoms: C_2  and  O_3 
REMARK    2  A    between atoms: O_3  and  C_4 
REMARK    3  A    between atoms: C_5  and  C_6 
REMARK    4  A    between atoms: N_7  and  C_9 
REMARK    5  A    between atoms: C_9  and  C_10 
REMARK       I    between atoms: C_10  and  N_11 
REMARK    6  A    between atoms: N_11  and  C_12 
REMARK    7  A    between atoms: C_20  and  C_21 
REMARK    8  A    between atoms: C_21  and  O_22 
REMARK    9  A    between atoms: C_28  and  O_29 
ROOT
HETATM    1  C   UNL     1       5.184  31.777  57.097  1.00  0.00     0.231 C 
HETATM    2  N   UNL     1       4.687  30.407  56.606  1.00  0.00    -0.054 N 
HETATM    3  H   UNL     1       4.767  29.791  57.435  1.00  0.00     0.281 HD
HETATM    4  C   UNL     1       3.243  30.335  56.178  1.00  0.00     0.239 C 
HETATM    5  C   UNL     1       2.893  31.428  55.185  1.00  0.00     0.066 C 
HETATM    6  C   UNL     1       3.239  32.817  55.723  1.00  0.00     0.065 C 
HETATM    7  C   UNL     1       4.736  32.876  56.094  1.00  0.00     0.055 C 
HETATM    8  C   UNL     1       2.893  33.889  54.670  1.00  0.00     0.038 C 
HETATM    9  C   UNL     1       3.321  35.290  55.105  1.00  0.00     0.003 C 
HETATM   10  C   UNL     1       4.802  35.332  55.458  1.00  0.00     0.001 C 
HETATM   11  C   UNL     1       5.158  34.295  56.521  1.00  0.00     0.010 C 
ENDROOT
BRANCH   2  12
HETATM   12  C   UNL     1       5.627  29.724  55.596  1.00  0.00     0.338 C 
BRANCH  12  13
HETATM   13  C   UNL     1       6.007  28.334  56.121  1.00  0.00     0.248 C 
HETATM   14  N   UNL     1       6.872  27.639  55.299  1.00  0.00    -0.319 N 
HETATM   15  H   UNL     1       7.206  28.071  54.436  1.00  0.00     0.169 HD
HETATM   16  O   UNL     1       5.400  27.924  57.108  1.00  0.00    -0.271 OA
BRANCH  14  17
HETATM   17  C   UNL     1       7.206  26.291  55.406  1.00  0.00     0.094 A 
HETATM   18  S   UNL     1       7.852  25.656  56.838  1.00  0.00    -0.075 SA
HETATM   19  C   UNL     1       7.951  24.098  56.184  1.00  0.00    -0.008 A 
HETATM   20  C   UNL     1       7.487  24.031  54.883  1.00  0.00    -0.026 A 
HETATM   21  C   UNL     1       8.455  22.941  56.994  1.00  0.00     0.047 C 
HETATM   22  C   UNL     1       7.477  22.725  54.132  1.00  0.00     0.041 C 
HETATM   23  C   UNL     1       7.074  25.335  54.401  1.00  0.00     0.080 A 
HETATM   24  C   UNL     1       7.667  21.513  55.058  1.00  0.00     0.005 C 
HETATM   25  C   UNL     1       8.779  21.749  56.085  1.00  0.00     0.005 C 
BRANCH  23  26
HETATM   26  C   UNL     1       6.540  25.689  53.080  1.00  0.00     0.296 C 
HETATM   27  O   UNL     1       7.215  25.578  52.058  1.00  0.00    -0.259 OA
BRANCH  26  28
HETATM   28  O   UNL     1       5.259  26.144  53.111  1.00  0.00    -0.322 OA
HETATM   29  C   UNL     1       4.962  27.179  52.171  1.00  0.00     0.213 C 
ENDBRANCH  26  28
ENDBRANCH  23  26
ENDBRANCH  14  17
ENDBRANCH  12  13
ENDBRANCH   2  12
BRANCH   1  30
HETATM   30  C   UNL     1       4.991  32.020  58.598  1.00  0.00     0.006 A 
HETATM   31  C   UNL     1       6.112  32.241  59.437  1.00  0.00     0.077 A 
HETATM   32  C   UNL     1       5.939  32.439  60.816  1.00  0.00     0.037 A 
HETATM   33  C   UNL     1       4.667  32.435  61.383  1.00  0.00     0.003 A 
HETATM   34  C   UNL     1       3.559  32.241  60.575  1.00  0.00     0.001 A 
HETATM   35  C   UNL     1       3.720  32.042  59.203  1.00  0.00     0.012 A 
BRANCH  31  36
HETATM   36  O   UNL     1       7.343  32.246  58.825  1.00  0.00    -0.351 OA
BRANCH  36  37
HETATM   37  C   UNL     1       7.954  30.972  58.582  1.00  0.00     0.171 C 
HETATM   38  C   UNL     1       8.614  30.503  59.866  1.00  0.00     0.034 C 
ENDBRANCH  36  37
ENDBRANCH  31  36
ENDBRANCH   1  30
BRANCH   6  39
HETATM   39  O   UNL     1       2.449  33.023  56.891  1.00  0.00    -0.389 OA
HETATM   40  H   UNL     1       2.754  32.439  57.611  1.00  0.00     0.210 HD
ENDBRANCH   6  39
TORSDOF 9
ENDMDL
