MODEL 1
REMARK VINA RESULT:      -8.4      0.000      0.000
REMARK  6 active torsions:
REMARK  status: ('A' for Active; 'I' for Inactive)
REMARK    1  A    between atoms: C_2  and  C_4 
REMARK    2  A    between atoms: C_2  and  C_11 
REMARK    3  A    between atoms: C_2  and  O_3 
REMARK    4  A    between atoms: C_11  and  N_12 
REMARK       I    between atoms: N_12  and  C_13 
REMARK    5  A    between atoms: C_13  and  C_14 
REMARK    6  A    between atoms: C_15  and  C_16 
ROOT
HETATM    1  N   UNL     1       6.107  24.767  52.588  1.00  0.00    -0.354 N 
HETATM    2  C   UNL     1       7.389  24.267  52.593  1.00  0.00     0.255 C 
HETATM    3  O   UNL     1       8.287  24.780  51.933  1.00  0.00    -0.268 OA
HETATM    4  H   UNL     1       5.375  24.172  52.954  1.00  0.00     0.162 HD
ENDROOT
BRANCH   2   5
HETATM    5  C   UNL     1       7.582  23.094  53.428  1.00  0.00     0.080 A 
HETATM    6  C   UNL     1       7.538  22.993  54.856  1.00  0.00     0.107 A 
HETATM    7  N   UNL     1       7.671  21.712  55.249  1.00  0.00    -0.173 NA
HETATM    8  N   UNL     1       7.837  21.024  54.116  1.00  0.00    -0.288 N 
HETATM    9  H   UNL     1       7.961  20.019  54.181  1.00  0.00     0.188 HD
HETATM   10  C   UNL     1       7.800  21.798  52.997  1.00  0.00     0.128 A 
BRANCH   6  11
HETATM   11  C   UNL     1       7.389  24.053  55.847  1.00  0.00     0.034 A 
HETATM   12  C   UNL     1       8.484  24.516  56.581  1.00  0.00     0.129 A 
HETATM   13  F   UNL     1       9.701  23.979  56.406  1.00  0.00    -0.205 F 
HETATM   14  C   UNL     1       8.341  25.523  57.535  1.00  0.00     0.043 A 
HETATM   15  C   UNL     1       7.084  26.074  57.776  1.00  0.00     0.003 A 
HETATM   16  C   UNL     1       5.976  25.612  57.066  1.00  0.00     0.001 A 
HETATM   17  C   UNL     1       6.126  24.605  56.108  1.00  0.00     0.017 A 
ENDBRANCH   6  11
ENDBRANCH   2   5
BRANCH   1  18
HETATM   18  C   UNL     1       5.721  25.928  51.797  1.00  0.00     0.165 C 
BRANCH  18  19
HETATM   19  C   UNL     1       4.951  27.044  52.572  1.00  0.00     0.097 C 
HETATM   20  C   UNL     1       4.487  28.114  51.569  1.00  0.00     0.053 C 
BRANCH  19  21
HETATM   21  C   UNL     1       5.783  27.720  53.666  1.00  0.00    -0.023 A 
HETATM   22  C   UNL     1       7.190  27.689  53.634  1.00  0.00     0.013 A 
HETATM   23  C   UNL     1       7.944  28.309  54.634  1.00  0.00     0.043 A 
HETATM   24  C   UNL     1       7.300  28.973  55.669  1.00  0.00     0.116 A 
HETATM   25  F   UNL     1       8.025  29.567  56.625  1.00  0.00    -0.206 F 
HETATM   26  C   UNL     1       5.915  29.032  55.722  1.00  0.00     0.043 A 
HETATM   27  C   UNL     1       5.162  28.411  54.723  1.00  0.00     0.013 A 
ENDBRANCH  19  21
BRANCH  19  28
HETATM   28  O   UNL     1       3.738  26.509  53.124  1.00  0.00    -0.384 OA
HETATM   29  H   UNL     1       3.929  26.214  54.041  1.00  0.00     0.211 HD
ENDBRANCH  19  28
ENDBRANCH  18  19
ENDBRANCH   1  18
TORSDOF 6
ENDMDL
MODEL 2
REMARK VINA RESULT:      -8.4      4.607      7.249
REMARK  6 active torsions:
REMARK  status: ('A' for Active; 'I' for Inactive)
REMARK    1  A    between atoms: C_2  and  C_4 
REMARK    2  A    between atoms: C_2  and  C_11 
REMARK    3  A    between atoms: C_2  and  O_3 
REMARK    4  A    between atoms: C_11  and  N_12 
REMARK       I    between atoms: N_12  and  C_13 
REMARK    5  A    between atoms: C_13  and  C_14 
REMARK    6  A    between atoms: C_15  and  C_16 
ROOT
HETATM    1  N   UNL     1       8.660  27.324  57.052  1.00  0.00    -0.354 N 
HETATM    2  C   UNL     1       8.245  28.502  57.632  1.00  0.00     0.255 C 
HETATM    3  O   UNL     1       7.143  28.611  58.160  1.00  0.00    -0.268 OA
HETATM    4  H   UNL     1       9.461  27.367  56.436  1.00  0.00     0.162 HD
ENDROOT
BRANCH   2   5
HETATM    5  C   UNL     1       9.207  29.588  57.558  1.00  0.00     0.080 A 
HETATM    6  C   UNL     1       9.445  30.639  58.500  1.00  0.00     0.107 A 
HETATM    7  N   UNL     1      10.489  31.398  58.117  1.00  0.00    -0.173 NA
HETATM    8  N   UNL     1      10.877  30.877  56.949  1.00  0.00    -0.288 N 
HETATM    9  H   UNL     1      11.663  31.306  56.473  1.00  0.00     0.188 HD
HETATM   10  C   UNL     1      10.144  29.798  56.562  1.00  0.00     0.128 A 
BRANCH   6  11
HETATM   11  C   UNL     1       8.721  30.953  59.728  1.00  0.00     0.034 A 
HETATM   12  C   UNL     1       7.508  31.646  59.696  1.00  0.00     0.129 A 
HETATM   13  F   UNL     1       6.988  32.059  58.530  1.00  0.00    -0.205 F 
HETATM   14  C   UNL     1       6.821  31.954  60.869  1.00  0.00     0.043 A 
HETATM   15  C   UNL     1       7.352  31.580  62.101  1.00  0.00     0.003 A 
HETATM   16  C   UNL     1       8.571  30.904  62.154  1.00  0.00     0.001 A 
HETATM   17  C   UNL     1       9.255  30.594  60.974  1.00  0.00     0.017 A 
ENDBRANCH   6  11
ENDBRANCH   2   5
BRANCH   1  18
HETATM   18  C   UNL     1       7.824  26.131  57.014  1.00  0.00     0.165 C 
BRANCH  18  19
HETATM   19  C   UNL     1       6.965  25.952  55.722  1.00  0.00     0.097 C 
HETATM   20  C   UNL     1       5.481  25.886  56.118  1.00  0.00     0.053 C 
BRANCH  19  21
HETATM   21  C   UNL     1       7.318  24.697  54.918  1.00  0.00    -0.023 A 
HETATM   22  C   UNL     1       7.391  23.433  55.536  1.00  0.00     0.013 A 
HETATM   23  C   UNL     1       7.712  22.291  54.797  1.00  0.00     0.043 A 
HETATM   24  C   UNL     1       7.953  22.399  53.435  1.00  0.00     0.116 A 
HETATM   25  F   UNL     1       8.258  21.302  52.729  1.00  0.00    -0.206 F 
HETATM   26  C   UNL     1       7.876  23.627  52.794  1.00  0.00     0.043 A 
HETATM   27  C   UNL     1       7.557  24.769  53.533  1.00  0.00     0.013 A 
ENDBRANCH  19  21
BRANCH  19  28
HETATM   28  O   UNL     1       7.073  27.122  54.897  1.00  0.00    -0.384 OA
HETATM   29  H   UNL     1       6.560  26.960  54.076  1.00  0.00     0.211 HD
ENDBRANCH  19  28
ENDBRANCH  18  19
ENDBRANCH   1  18
TORSDOF 6
ENDMDL
MODEL 3
REMARK VINA RESULT:      -8.2      2.832      4.824
REMARK  6 active torsions:
REMARK  status: ('A' for Active; 'I' for Inactive)
REMARK    1  A    between atoms: C_2  and  C_4 
REMARK    2  A    between atoms: C_2  and  C_11 
REMARK    3  A    between atoms: C_2  and  O_3 
REMARK    4  A    between atoms: C_11  and  N_12 
REMARK       I    between atoms: N_12  and  C_13 
REMARK    5  A    between atoms: C_13  and  C_14 
REMARK    6  A    between atoms: C_15  and  C_16 
ROOT
HETATM    1  N   UNL     1       6.587  26.365  54.386  1.00  0.00    -0.354 N 
HETATM    2  C   UNL     1       6.131  25.444  55.301  1.00  0.00     0.255 C 
HETATM    3  O   UNL     1       4.972  25.040  55.291  1.00  0.00    -0.268 OA
HETATM    4  H   UNL     1       7.463  26.828  54.591  1.00  0.00     0.162 HD
ENDROOT
BRANCH   2   5
HETATM    5  C   UNL     1       7.122  25.004  56.269  1.00  0.00     0.080 A 
HETATM    6  C   UNL     1       7.955  23.841  56.232  1.00  0.00     0.107 A 
HETATM    7  N   UNL     1       8.815  23.835  57.269  1.00  0.00    -0.173 NA
HETATM    8  N   UNL     1       8.512  24.933  57.967  1.00  0.00    -0.288 N 
HETATM    9  H   UNL     1       9.045  25.127  58.808  1.00  0.00     0.188 HD
HETATM   10  C   UNL     1       7.504  25.667  57.421  1.00  0.00     0.128 A 
BRANCH   6  11
HETATM   11  C   UNL     1       7.960  22.744  55.270  1.00  0.00     0.034 A 
HETATM   12  C   UNL     1       7.912  21.413  55.691  1.00  0.00     0.129 A 
HETATM   13  F   UNL     1       7.882  21.110  56.998  1.00  0.00    -0.205 F 
HETATM   14  C   UNL     1       7.925  20.364  54.773  1.00  0.00     0.043 A 
HETATM   15  C   UNL     1       8.000  20.638  53.409  1.00  0.00     0.003 A 
HETATM   16  C   UNL     1       8.067  21.961  52.971  1.00  0.00     0.001 A 
HETATM   17  C   UNL     1       8.051  23.010  53.896  1.00  0.00     0.017 A 
ENDBRANCH   6  11
ENDBRANCH   2   5
BRANCH   1  18
HETATM   18  C   UNL     1       5.732  26.932  53.351  1.00  0.00     0.165 C 
BRANCH  18  19
HETATM   19  C   UNL     1       5.601  26.082  52.047  1.00  0.00     0.097 C 
HETATM   20  C   UNL     1       6.933  25.358  51.791  1.00  0.00     0.053 C 
BRANCH  19  21
HETATM   21  C   UNL     1       5.241  26.907  50.808  1.00  0.00    -0.023 A 
HETATM   22  C   UNL     1       5.459  28.298  50.771  1.00  0.00     0.013 A 
HETATM   23  C   UNL     1       5.131  29.046  49.637  1.00  0.00     0.043 A 
HETATM   24  C   UNL     1       4.591  28.411  48.528  1.00  0.00     0.116 A 
HETATM   25  F   UNL     1       4.279  29.130  47.441  1.00  0.00    -0.206 F 
HETATM   26  C   UNL     1       4.376  27.040  48.528  1.00  0.00     0.043 A 
HETATM   27  C   UNL     1       4.703  26.293  49.662  1.00  0.00     0.013 A 
ENDBRANCH  19  21
BRANCH  19  28
HETATM   28  O   UNL     1       4.643  25.030  52.244  1.00  0.00    -0.384 OA
HETATM   29  H   UNL     1       3.840  25.253  51.725  1.00  0.00     0.211 HD
ENDBRANCH  19  28
ENDBRANCH  18  19
ENDBRANCH   1  18
TORSDOF 6
ENDMDL
MODEL 4
REMARK VINA RESULT:      -8.2      3.920      5.822
REMARK  6 active torsions:
REMARK  status: ('A' for Active; 'I' for Inactive)
REMARK    1  A    between atoms: C_2  and  C_4 
REMARK    2  A    between atoms: C_2  and  C_11 
REMARK    3  A    between atoms: C_2  and  O_3 
REMARK    4  A    between atoms: C_11  and  N_12 
REMARK       I    between atoms: N_12  and  C_13 
REMARK    5  A    between atoms: C_13  and  C_14 
REMARK    6  A    between atoms: C_15  and  C_16 
ROOT
HETATM    1  N   UNL     1       5.763  26.075  51.866  1.00  0.00    -0.354 N 
HETATM    2  C   UNL     1       5.430  25.398  53.017  1.00  0.00     0.255 C 
HETATM    3  O   UNL     1       4.465  24.641  53.068  1.00  0.00    -0.268 OA
HETATM    4  H   UNL     1       6.409  26.848  51.952  1.00  0.00     0.162 HD
ENDROOT
BRANCH   2   5
HETATM    5  C   UNL     1       6.301  25.659  54.150  1.00  0.00     0.080 A 
HETATM    6  C   UNL     1       7.258  24.790  54.763  1.00  0.00     0.107 A 
HETATM    7  N   UNL     1       7.939  25.433  55.731  1.00  0.00    -0.173 NA
HETATM    8  N   UNL     1       7.405  26.658  55.764  1.00  0.00    -0.288 N 
HETATM    9  H   UNL     1       7.774  27.321  56.437  1.00  0.00     0.188 HD
HETATM   10  C   UNL     1       6.417  26.848  54.847  1.00  0.00     0.128 A 
BRANCH   6  11
HETATM   11  C   UNL     1       7.541  23.387  54.477  1.00  0.00     0.034 A 
HETATM   12  C   UNL     1       7.937  22.974  53.203  1.00  0.00     0.129 A 
HETATM   13  F   UNL     1       8.046  23.860  52.201  1.00  0.00    -0.205 F 
HETATM   14  C   UNL     1       8.199  21.633  52.926  1.00  0.00     0.043 A 
HETATM   15  C   UNL     1       8.053  20.678  53.930  1.00  0.00     0.003 A 
HETATM   16  C   UNL     1       7.641  21.069  55.204  1.00  0.00     0.001 A 
HETATM   17  C   UNL     1       7.383  22.416  55.477  1.00  0.00     0.017 A 
ENDBRANCH   6  11
ENDBRANCH   2   5
BRANCH   1  18
HETATM   18  C   UNL     1       4.996  25.951  50.633  1.00  0.00     0.165 C 
BRANCH  18  19
HETATM   19  C   UNL     1       4.629  27.296  49.931  1.00  0.00     0.097 C 
HETATM   20  C   UNL     1       4.169  28.303  50.998  1.00  0.00     0.053 C 
BRANCH  19  21
HETATM   21  C   UNL     1       3.529  27.159  48.874  1.00  0.00    -0.023 A 
HETATM   22  C   UNL     1       3.597  26.168  47.876  1.00  0.00     0.013 A 
HETATM   23  C   UNL     1       2.590  26.046  46.915  1.00  0.00     0.043 A 
HETATM   24  C   UNL     1       1.501  26.906  46.948  1.00  0.00     0.116 A 
HETATM   25  F   UNL     1       0.536  26.786  46.027  1.00  0.00    -0.206 F 
HETATM   26  C   UNL     1       1.397  27.884  47.926  1.00  0.00     0.043 A 
HETATM   27  C   UNL     1       2.405  28.007  48.885  1.00  0.00     0.013 A 
ENDBRANCH  19  21
BRANCH  19  28
HETATM   28  O   UNL     1       5.806  27.884  49.355  1.00  0.00    -0.384 OA
HETATM   29  H   UNL     1       6.580  27.354  49.644  1.00  0.00     0.211 HD
ENDBRANCH  19  28
ENDBRANCH  18  19
ENDBRANCH   1  18
TORSDOF 6
ENDMDL
MODEL 5
REMARK VINA RESULT:      -8.0      2.914      4.390
REMARK  6 active torsions:
REMARK  status: ('A' for Active; 'I' for Inactive)
REMARK    1  A    between atoms: C_2  and  C_4 
REMARK    2  A    between atoms: C_2  and  C_11 
REMARK    3  A    between atoms: C_2  and  O_3 
REMARK    4  A    between atoms: C_11  and  N_12 
REMARK       I    between atoms: N_12  and  C_13 
REMARK    5  A    between atoms: C_13  and  C_14 
REMARK    6  A    between atoms: C_15  and  C_16 
ROOT
HETATM    1  N   UNL     1       7.224  26.628  55.932  1.00  0.00    -0.354 N 
HETATM    2  C   UNL     1       6.507  25.684  55.233  1.00  0.00     0.255 C 
HETATM    3  O   UNL     1       5.427  25.261  55.634  1.00  0.00    -0.268 OA
HETATM    4  H   UNL     1       8.195  26.755  55.680  1.00  0.00     0.162 HD
ENDROOT
BRANCH   2   5
HETATM    5  C   UNL     1       7.134  25.232  54.002  1.00  0.00     0.080 A 
HETATM    6  C   UNL     1       7.720  23.959  53.711  1.00  0.00     0.107 A 
HETATM    7  N   UNL     1       8.111  23.895  52.424  1.00  0.00    -0.173 NA
HETATM    8  N   UNL     1       7.825  25.101  51.922  1.00  0.00    -0.288 N 
HETATM    9  H   UNL     1       8.045  25.277  50.948  1.00  0.00     0.188 HD
HETATM   10  C   UNL     1       7.247  25.943  52.821  1.00  0.00     0.128 A 
BRANCH   6  11
HETATM   11  C   UNL     1       7.930  22.820  54.598  1.00  0.00     0.034 A 
HETATM   12  C   UNL     1       7.787  21.508  54.137  1.00  0.00     0.129 A 
HETATM   13  F   UNL     1       7.430  21.266  52.866  1.00  0.00    -0.205 F 
HETATM   14  C   UNL     1       7.979  20.419  54.986  1.00  0.00     0.043 A 
HETATM   15  C   UNL     1       8.308  20.633  56.322  1.00  0.00     0.003 A 
HETATM   16  C   UNL     1       8.437  21.935  56.805  1.00  0.00     0.001 A 
HETATM   17  C   UNL     1       8.247  23.024  55.949  1.00  0.00     0.017 A 
ENDBRANCH   6  11
ENDBRANCH   2   5
BRANCH   1  18
HETATM   18  C   UNL     1       6.760  27.186  57.196  1.00  0.00     0.165 C 
BRANCH  18  19
HETATM   19  C   UNL     1       6.377  28.700  57.163  1.00  0.00     0.097 C 
HETATM   20  C   UNL     1       6.144  29.121  55.702  1.00  0.00     0.053 C 
BRANCH  19  21
HETATM   21  C   UNL     1       7.437  29.617  57.779  1.00  0.00    -0.023 A 
HETATM   22  C   UNL     1       8.810  29.390  57.564  1.00  0.00     0.013 A 
HETATM   23  C   UNL     1       9.773  30.231  58.127  1.00  0.00     0.043 A 
HETATM   24  C   UNL     1       9.374  31.312  58.900  1.00  0.00     0.116 A 
HETATM   25  F   UNL     1      10.300  32.118  59.437  1.00  0.00    -0.206 F 
HETATM   26  C   UNL     1       8.029  31.571  59.120  1.00  0.00     0.043 A 
HETATM   27  C   UNL     1       7.066  30.729  58.559  1.00  0.00     0.013 A 
ENDBRANCH  19  21
BRANCH  19  28
HETATM   28  O   UNL     1       5.109  28.897  57.808  1.00  0.00    -0.384 OA
HETATM   29  H   UNL     1       5.082  28.323  58.604  1.00  0.00     0.211 HD
ENDBRANCH  19  28
ENDBRANCH  18  19
ENDBRANCH   1  18
TORSDOF 6
ENDMDL
MODEL 6
REMARK VINA RESULT:      -7.9      2.740      6.217
REMARK  6 active torsions:
REMARK  status: ('A' for Active; 'I' for Inactive)
REMARK    1  A    between atoms: C_2  and  C_4 
REMARK    2  A    between atoms: C_2  and  C_11 
REMARK    3  A    between atoms: C_2  and  O_3 
REMARK    4  A    between atoms: C_11  and  N_12 
REMARK       I    between atoms: N_12  and  C_13 
REMARK    5  A    between atoms: C_13  and  C_14 
REMARK    6  A    between atoms: C_15  and  C_16 
ROOT
HETATM    1  N   UNL     1       5.308  26.313  53.892  1.00  0.00    -0.354 N 
HETATM    2  C   UNL     1       5.325  26.933  55.120  1.00  0.00     0.255 C 
HETATM    3  O   UNL     1       5.623  26.330  56.147  1.00  0.00    -0.268 OA
HETATM    4  H   UNL     1       4.832  26.790  53.137  1.00  0.00     0.162 HD
ENDROOT
BRANCH   2   5
HETATM    5  C   UNL     1       4.956  28.339  55.098  1.00  0.00     0.080 A 
HETATM    6  C   UNL     1       5.678  29.462  55.613  1.00  0.00     0.107 A 
HETATM    7  N   UNL     1       5.050  30.614  55.311  1.00  0.00    -0.173 NA
HETATM    8  N   UNL     1       3.943  30.238  54.664  1.00  0.00    -0.288 N 
HETATM    9  H   UNL     1       3.309  30.961  54.342  1.00  0.00     0.188 HD
HETATM   10  C   UNL     1       3.831  28.890  54.513  1.00  0.00     0.128 A 
BRANCH   6  11
HETATM   11  C   UNL     1       6.920  29.483  56.380  1.00  0.00     0.034 A 
HETATM   12  C   UNL     1       8.142  29.159  55.786  1.00  0.00     0.129 A 
HETATM   13  F   UNL     1       8.200  28.797  54.495  1.00  0.00    -0.205 F 
HETATM   14  C   UNL     1       9.327  29.170  56.520  1.00  0.00     0.043 A 
HETATM   15  C   UNL     1       9.300  29.498  57.874  1.00  0.00     0.003 A 
HETATM   16  C   UNL     1       8.086  29.807  58.488  1.00  0.00     0.001 A 
HETATM   17  C   UNL     1       6.901  29.797  57.747  1.00  0.00     0.017 A 
ENDBRANCH   6  11
ENDBRANCH   2   5
BRANCH   1  18
HETATM   18  C   UNL     1       5.633  24.903  53.721  1.00  0.00     0.165 C 
BRANCH  18  19
HETATM   19  C   UNL     1       7.149  24.580  53.531  1.00  0.00     0.097 C 
HETATM   20  C   UNL     1       7.522  24.797  52.055  1.00  0.00     0.053 C 
BRANCH  19  21
HETATM   21  C   UNL     1       7.528  23.151  53.931  1.00  0.00    -0.023 A 
HETATM   22  C   UNL     1       7.888  22.195  52.962  1.00  0.00     0.013 A 
HETATM   23  C   UNL     1       8.236  20.893  53.333  1.00  0.00     0.043 A 
HETATM   24  C   UNL     1       8.236  20.538  54.674  1.00  0.00     0.116 A 
HETATM   25  F   UNL     1       8.571  19.289  55.027  1.00  0.00    -0.206 F 
HETATM   26  C   UNL     1       7.899  21.460  55.654  1.00  0.00     0.043 A 
HETATM   27  C   UNL     1       7.550  22.760  55.283  1.00  0.00     0.013 A 
ENDBRANCH  19  21
BRANCH  19  28
HETATM   28  O   UNL     1       7.945  25.530  54.255  1.00  0.00    -0.384 OA
HETATM   29  H   UNL     1       8.889  25.286  54.135  1.00  0.00     0.211 HD
ENDBRANCH  19  28
ENDBRANCH  18  19
ENDBRANCH   1  18
TORSDOF 6
ENDMDL
MODEL 7
REMARK VINA RESULT:      -7.9      2.519      6.077
REMARK  6 active torsions:
REMARK  status: ('A' for Active; 'I' for Inactive)
REMARK    1  A    between atoms: C_2  and  C_4 
REMARK    2  A    between atoms: C_2  and  C_11 
REMARK    3  A    between atoms: C_2  and  O_3 
REMARK    4  A    between atoms: C_11  and  N_12 
REMARK       I    between atoms: N_12  and  C_13 
REMARK    5  A    between atoms: C_13  and  C_14 
REMARK    6  A    between atoms: C_15  and  C_16 
ROOT
HETATM    1  N   UNL     1       5.042  25.963  53.702  1.00  0.00    -0.354 N 
HETATM    2  C   UNL     1       4.808  27.011  52.841  1.00  0.00     0.255 C 
HETATM    3  O   UNL     1       5.005  26.915  51.633  1.00  0.00    -0.268 OA
HETATM    4  H   UNL     1       5.090  26.175  54.689  1.00  0.00     0.162 HD
ENDROOT
BRANCH   2   5
HETATM    5  C   UNL     1       4.324  28.224  53.478  1.00  0.00     0.080 A 
HETATM    6  C   UNL     1       4.847  28.906  54.622  1.00  0.00     0.107 A 
HETATM    7  N   UNL     1       4.176  30.052  54.846  1.00  0.00    -0.173 NA
HETATM    8  N   UNL     1       3.229  30.079  53.904  1.00  0.00    -0.288 N 
HETATM    9  H   UNL     1       2.593  30.870  53.888  1.00  0.00     0.188 HD
HETATM   10  C   UNL     1       3.264  29.010  53.062  1.00  0.00     0.128 A 
BRANCH   6  11
HETATM   11  C   UNL     1       5.939  28.512  55.506  1.00  0.00     0.034 A 
HETATM   12  C   UNL     1       5.721  27.650  56.584  1.00  0.00     0.129 A 
HETATM   13  F   UNL     1       4.492  27.179  56.846  1.00  0.00    -0.205 F 
HETATM   14  C   UNL     1       6.761  27.279  57.435  1.00  0.00     0.043 A 
HETATM   15  C   UNL     1       8.043  27.782  57.221  1.00  0.00     0.003 A 
HETATM   16  C   UNL     1       8.276  28.658  56.161  1.00  0.00     0.001 A 
HETATM   17  C   UNL     1       7.229  29.024  55.309  1.00  0.00     0.017 A 
ENDBRANCH   6  11
ENDBRANCH   2   5
BRANCH   1  18
HETATM   18  C   UNL     1       5.545  24.673  53.247  1.00  0.00     0.165 C 
BRANCH  18  19
HETATM   19  C   UNL     1       7.086  24.462  53.394  1.00  0.00     0.097 C 
HETATM   20  C   UNL     1       7.752  24.706  52.030  1.00  0.00     0.053 C 
BRANCH  19  21
HETATM   21  C   UNL     1       7.471  23.065  53.889  1.00  0.00    -0.023 A 
HETATM   22  C   UNL     1       7.462  22.751  55.262  1.00  0.00     0.013 A 
HETATM   23  C   UNL     1       7.813  21.474  55.708  1.00  0.00     0.043 A 
HETATM   24  C   UNL     1       8.166  20.497  54.788  1.00  0.00     0.116 A 
HETATM   25  F   UNL     1       8.500  19.274  55.218  1.00  0.00    -0.206 F 
HETATM   26  C   UNL     1       8.173  20.771  53.428  1.00  0.00     0.043 A 
HETATM   27  C   UNL     1       7.824  22.048  52.982  1.00  0.00     0.013 A 
ENDBRANCH  19  21
BRANCH  19  28
HETATM   28  O   UNL     1       7.637  25.469  54.257  1.00  0.00    -0.384 OA
HETATM   29  H   UNL     1       7.382  25.248  55.179  1.00  0.00     0.211 HD
ENDBRANCH  19  28
ENDBRANCH  18  19
ENDBRANCH   1  18
TORSDOF 6
ENDMDL
MODEL 8
REMARK VINA RESULT:      -7.9      3.289      5.044
REMARK  6 active torsions:
REMARK  status: ('A' for Active; 'I' for Inactive)
REMARK    1  A    between atoms: C_2  and  C_4 
REMARK    2  A    between atoms: C_2  and  C_11 
REMARK    3  A    between atoms: C_2  and  O_3 
REMARK    4  A    between atoms: C_11  and  N_12 
REMARK       I    between atoms: N_12  and  C_13 
REMARK    5  A    between atoms: C_13  and  C_14 
REMARK    6  A    between atoms: C_15  and  C_16 
ROOT
HETATM    1  N   UNL     1       6.680  28.391  55.295  1.00  0.00    -0.354 N 
HETATM    2  C   UNL     1       7.015  27.609  54.214  1.00  0.00     0.255 C 
HETATM    3  O   UNL     1       8.126  27.663  53.694  1.00  0.00    -0.268 OA
HETATM    4  H   UNL     1       5.697  28.474  55.521  1.00  0.00     0.162 HD
ENDROOT
BRANCH   2   5
HETATM    5  C   UNL     1       5.955  26.734  53.743  1.00  0.00     0.080 A 
HETATM    6  C   UNL     1       5.882  25.305  53.797  1.00  0.00     0.107 A 
HETATM    7  N   UNL     1       4.691  24.869  53.345  1.00  0.00    -0.173 NA
HETATM    8  N   UNL     1       4.043  25.977  52.973  1.00  0.00    -0.288 N 
HETATM    9  H   UNL     1       3.108  25.878  52.592  1.00  0.00     0.188 HD
HETATM   10  C   UNL     1       4.751  27.120  53.182  1.00  0.00     0.128 A 
BRANCH   6  11
HETATM   11  C   UNL     1       6.890  24.351  54.246  1.00  0.00     0.034 A 
HETATM   12  C   UNL     1       7.747  23.724  53.338  1.00  0.00     0.129 A 
HETATM   13  F   UNL     1       7.648  23.970  52.023  1.00  0.00    -0.205 F 
HETATM   14  C   UNL     1       8.705  22.805  53.765  1.00  0.00     0.043 A 
HETATM   15  C   UNL     1       8.808  22.491  55.118  1.00  0.00     0.003 A 
HETATM   16  C   UNL     1       7.949  23.093  56.037  1.00  0.00     0.001 A 
HETATM   17  C   UNL     1       6.992  24.017  55.604  1.00  0.00     0.017 A 
ENDBRANCH   6  11
ENDBRANCH   2   5
BRANCH   1  18
HETATM   18  C   UNL     1       7.609  29.341  55.894  1.00  0.00     0.165 C 
BRANCH  18  19
HETATM   19  C   UNL     1       8.122  28.971  57.322  1.00  0.00     0.097 C 
HETATM   20  C   UNL     1       7.442  27.667  57.771  1.00  0.00     0.053 C 
BRANCH  19  21
HETATM   21  C   UNL     1       7.856  30.054  58.372  1.00  0.00    -0.023 A 
HETATM   22  C   UNL     1       8.719  30.231  59.470  1.00  0.00     0.013 A 
HETATM   23  C   UNL     1       8.472  31.222  60.424  1.00  0.00     0.043 A 
HETATM   24  C   UNL     1       7.369  32.051  60.284  1.00  0.00     0.116 A 
HETATM   25  F   UNL     1       7.136  33.001  61.199  1.00  0.00    -0.206 F 
HETATM   26  C   UNL     1       6.507  31.911  59.206  1.00  0.00     0.043 A 
HETATM   27  C   UNL     1       6.752  30.920  58.254  1.00  0.00     0.013 A 
ENDBRANCH  19  21
BRANCH  19  28
HETATM   28  O   UNL     1       9.522  28.656  57.271  1.00  0.00    -0.384 OA
HETATM   29  H   UNL     1       9.633  27.865  56.702  1.00  0.00     0.211 HD
ENDBRANCH  19  28
ENDBRANCH  18  19
ENDBRANCH   1  18
TORSDOF 6
ENDMDL
MODEL 9
REMARK VINA RESULT:      -7.8      2.847      4.569
REMARK  6 active torsions:
REMARK  status: ('A' for Active; 'I' for Inactive)
REMARK    1  A    between atoms: C_2  and  C_4 
REMARK    2  A    between atoms: C_2  and  C_11 
REMARK    3  A    between atoms: C_2  and  O_3 
REMARK    4  A    between atoms: C_11  and  N_12 
REMARK       I    between atoms: N_12  and  C_13 
REMARK    5  A    between atoms: C_13  and  C_14 
REMARK    6  A    between atoms: C_15  and  C_16 
ROOT
HETATM    1  N   UNL     1       5.525  27.347  56.168  1.00  0.00    -0.354 N 
HETATM    2  C   UNL     1       6.391  26.594  55.408  1.00  0.00     0.255 C 
HETATM    3  O   UNL     1       7.563  26.429  55.734  1.00  0.00    -0.268 OA
HETATM    4  H   UNL     1       4.659  27.638  55.734  1.00  0.00     0.162 HD
ENDROOT
BRANCH   2   5
HETATM    5  C   UNL     1       5.809  26.029  54.203  1.00  0.00     0.080 A 
HETATM    6  C   UNL     1       6.036  24.742  53.618  1.00  0.00     0.107 A 
HETATM    7  N   UNL     1       5.234  24.553  52.553  1.00  0.00    -0.173 NA
HETATM    8  N   UNL     1       4.551  25.696  52.435  1.00  0.00    -0.288 N 
HETATM    9  H   UNL     1       3.878  25.774  51.679  1.00  0.00     0.188 HD
HETATM   10  C   UNL     1       4.858  26.616  53.389  1.00  0.00     0.128 A 
BRANCH   6  11
HETATM   11  C   UNL     1       6.978  23.703  54.019  1.00  0.00     0.034 A 
HETATM   12  C   UNL     1       7.924  23.200  53.123  1.00  0.00     0.129 A 
HETATM   13  F   UNL     1       7.974  23.647  51.859  1.00  0.00    -0.205 F 
HETATM   14  C   UNL     1       8.820  22.201  53.502  1.00  0.00     0.043 A 
HETATM   15  C   UNL     1       8.769  21.681  54.794  1.00  0.00     0.003 A 
HETATM   16  C   UNL     1       7.820  22.158  55.697  1.00  0.00     0.001 A 
HETATM   17  C   UNL     1       6.926  23.162  55.312  1.00  0.00     0.017 A 
ENDBRANCH   6  11
ENDBRANCH   2   5
BRANCH   1  18
HETATM   18  C   UNL     1       5.934  28.006  57.403  1.00  0.00     0.165 C 
BRANCH  18  19
HETATM   19  C   UNL     1       6.363  29.500  57.257  1.00  0.00     0.097 C 
HETATM   20  C   UNL     1       5.815  30.046  55.928  1.00  0.00     0.053 C 
BRANCH  19  21
HETATM   21  C   UNL     1       7.880  29.710  57.290  1.00  0.00    -0.023 A 
HETATM   22  C   UNL     1       8.684  29.388  56.179  1.00  0.00     0.013 A 
HETATM   23  C   UNL     1      10.067  29.584  56.214  1.00  0.00     0.043 A 
HETATM   24  C   UNL     1      10.658  30.113  57.352  1.00  0.00     0.116 A 
HETATM   25  F   UNL     1      11.984  30.301  57.382  1.00  0.00    -0.206 F 
HETATM   26  C   UNL     1       9.892  30.453  58.458  1.00  0.00     0.043 A 
HETATM   27  C   UNL     1       8.510  30.255  58.424  1.00  0.00     0.013 A 
ENDBRANCH  19  21
BRANCH  19  28
HETATM   28  O   UNL     1       5.726  30.293  58.271  1.00  0.00    -0.384 OA
HETATM   29  H   UNL     1       6.379  30.949  58.595  1.00  0.00     0.211 HD
ENDBRANCH  19  28
ENDBRANCH  18  19
ENDBRANCH   1  18
TORSDOF 6
ENDMDL
MODEL 10
REMARK VINA RESULT:      -7.8      4.704      7.614
REMARK  6 active torsions:
REMARK  status: ('A' for Active; 'I' for Inactive)
REMARK    1  A    between atoms: C_2  and  C_4 
REMARK    2  A    between atoms: C_2  and  C_11 
REMARK    3  A    between atoms: C_2  and  O_3 
REMARK    4  A    between atoms: C_11  and  N_12 
REMARK       I    between atoms: N_12  and  C_13 
REMARK    5  A    between atoms: C_13  and  C_14 
REMARK    6  A    between atoms: C_15  and  C_16 
ROOT
HETATM    1  N   UNL     1       6.406  28.244  56.938  1.00  0.00    -0.354 N 
HETATM    2  C   UNL     1       6.996  29.168  57.769  1.00  0.00     0.255 C 
HETATM    3  O   UNL     1       7.947  28.879  58.489  1.00  0.00    -0.268 OA
HETATM    4  H   UNL     1       5.497  28.473  56.559  1.00  0.00     0.162 HD
ENDROOT
BRANCH   2   5
HETATM    5  C   UNL     1       6.398  30.492  57.728  1.00  0.00     0.080 A 
HETATM    6  C   UNL     1       6.700  31.636  58.534  1.00  0.00     0.107 A 
HETATM    7  N   UNL     1       5.995  32.709  58.125  1.00  0.00    -0.173 NA
HETATM    8  N   UNL     1       5.238  32.255  57.122  1.00  0.00    -0.288 N 
HETATM    9  H   UNL     1       4.614  32.909  56.661  1.00  0.00     0.188 HD
HETATM   10  C   UNL     1       5.431  30.936  56.845  1.00  0.00     0.128 A 
BRANCH   6  11
HETATM   11  C   UNL     1       7.611  31.747  59.668  1.00  0.00     0.034 A 
HETATM   12  C   UNL     1       7.129  31.823  60.977  1.00  0.00     0.129 A 
HETATM   13  F   UNL     1       5.809  31.818  61.222  1.00  0.00    -0.205 F 
HETATM   14  C   UNL     1       7.998  31.937  62.062  1.00  0.00     0.043 A 
HETATM   15  C   UNL     1       9.373  31.990  61.844  1.00  0.00     0.003 A 
HETATM   16  C   UNL     1       9.872  31.934  60.543  1.00  0.00     0.001 A 
HETATM   17  C   UNL     1       8.996  31.816  59.459  1.00  0.00     0.017 A 
ENDBRANCH   6  11
ENDBRANCH   2   5
BRANCH   1  18
HETATM   18  C   UNL     1       6.859  26.860  56.857  1.00  0.00     0.165 C 
BRANCH  18  19
HETATM   19  C   UNL     1       5.884  25.874  56.138  1.00  0.00     0.097 C 
HETATM   20  C   UNL     1       5.009  25.184  57.197  1.00  0.00     0.053 C 
BRANCH  19  21
HETATM   21  C   UNL     1       6.595  24.801  55.309  1.00  0.00    -0.023 A 
HETATM   22  C   UNL     1       6.345  24.662  53.930  1.00  0.00     0.013 A 
HETATM   23  C   UNL     1       6.998  23.683  53.177  1.00  0.00     0.043 A 
HETATM   24  C   UNL     1       7.913  22.840  53.792  1.00  0.00     0.116 A 
HETATM   25  F   UNL     1       8.539  21.903  53.068  1.00  0.00    -0.206 F 
HETATM   26  C   UNL     1       8.191  22.959  55.146  1.00  0.00     0.043 A 
HETATM   27  C   UNL     1       7.538  23.938  55.898  1.00  0.00     0.013 A 
ENDBRANCH  19  21
BRANCH  19  28
HETATM   28  O   UNL     1       4.961  26.609  55.320  1.00  0.00    -0.384 OA
HETATM   29  H   UNL     1       5.072  26.306  54.393  1.00  0.00     0.211 HD
ENDBRANCH  19  28
ENDBRANCH  18  19
ENDBRANCH   1  18
TORSDOF 6
ENDMDL
