MODEL 1
REMARK VINA RESULT:     -10.6      0.000      0.000
REMARK  6 active torsions:
REMARK  status: ('A' for Active; 'I' for Inactive)
REMARK    1  A    between atoms: C_4  and  C_5 
REMARK    2  A    between atoms: C_5  and  N_6 
REMARK    3  A    between atoms: C_8  and  C_9 
REMARK       I    between atoms: C_9  and  N_10 
REMARK    4  A    between atoms: N_10  and  N_11 
REMARK    5  A    between atoms: C_12  and  C_13 
REMARK    6  A    between atoms: C_14  and  O_15 
ROOT
HETATM    1  C   UNL     1       8.123  28.820  57.302  1.00  0.00     0.273 C 
HETATM    2  N   UNL     1       7.193  28.083  56.589  1.00  0.00    -0.243 N 
HETATM    3  O   UNL     1       9.339  28.650  57.256  1.00  0.00    -0.266 OA
HETATM    4  H   UNL     1       6.200  28.279  56.597  1.00  0.00     0.192 HD
ENDROOT
BRANCH   2   5
HETATM    5  N   UNL     1       7.662  27.164  55.701  1.00  0.00    -0.183 NA
HETATM    6  C   UNL     1       7.130  25.980  55.751  1.00  0.00     0.153 C 
BRANCH   6   7
HETATM    7  C   UNL     1       7.518  24.922  54.782  1.00  0.00     0.027 A 
HETATM    8  C   UNL     1       7.480  25.208  53.404  1.00  0.00     0.078 A 
HETATM    9  C   UNL     1       7.765  24.224  52.469  1.00  0.00     0.038 A 
HETATM   10  C   UNL     1       8.096  22.941  52.894  1.00  0.00     0.015 A 
HETATM   11  C   UNL     1       8.159  22.627  54.259  1.00  0.00    -0.025 A 
HETATM   12  C   UNL     1       7.878  23.617  55.239  1.00  0.00    -0.012 A 
HETATM   13  C   UNL     1       8.505  21.322  54.646  1.00  0.00     0.012 A 
HETATM   14  C   UNL     1       7.989  23.221  56.599  1.00  0.00     0.013 A 
HETATM   15  C   UNL     1       8.339  21.918  56.966  1.00  0.00     0.001 A 
HETATM   16  C   UNL     1       8.593  20.968  55.990  1.00  0.00     0.001 A 
BRANCH   8  17
HETATM   17  O   UNL     1       7.156  26.433  52.885  1.00  0.00    -0.360 OA
HETATM   18  H   UNL     1       6.716  26.300  52.017  1.00  0.00     0.217 HD
ENDBRANCH   8  17
ENDBRANCH   6   7
ENDBRANCH   2   5
BRANCH   1  19
HETATM   19  C   UNL     1       7.634  29.934  58.148  1.00  0.00     0.049 A 
HETATM   20  C   UNL     1       8.213  30.039  59.416  1.00  0.00     0.108 A 
HETATM   21  N   UNL     1       7.879  31.046  60.257  1.00  0.00    -0.361 N 
HETATM   22  C   UNL     1       6.959  31.969  59.895  1.00  0.00     0.090 A 
HETATM   23  C   UNL     1       6.335  31.892  58.652  1.00  0.00     0.018 A 
HETATM   24  C   UNL     1       6.673  30.868  57.770  1.00  0.00     0.020 A 
BRANCH  21  25
HETATM   25  C   UNL     1       8.538  31.140  61.586  1.00  0.00     0.166 C 
BRANCH  25  26
HETATM   26  C   UNL     1       7.660  31.865  62.572  1.00  0.00    -0.040 A 
HETATM   27  C   UNL     1       6.276  31.629  62.594  1.00  0.00     0.009 A 
HETATM   28  C   UNL     1       5.460  32.287  63.515  1.00  0.00     0.001 A 
HETATM   29  C   UNL     1       6.013  33.185  64.424  1.00  0.00     0.000 A 
HETATM   30  C   UNL     1       7.385  33.422  64.420  1.00  0.00     0.001 A 
HETATM   31  C   UNL     1       8.206  32.763  63.504  1.00  0.00     0.009 A 
ENDBRANCH  25  26
ENDBRANCH  21  25
ENDBRANCH   1  19
TORSDOF 6
ENDMDL
MODEL 2
REMARK VINA RESULT:     -10.6      1.331      2.667
REMARK  6 active torsions:
REMARK  status: ('A' for Active; 'I' for Inactive)
REMARK    1  A    between atoms: C_4  and  C_5 
REMARK    2  A    between atoms: C_5  and  N_6 
REMARK    3  A    between atoms: C_8  and  C_9 
REMARK       I    between atoms: C_9  and  N_10 
REMARK    4  A    between atoms: N_10  and  N_11 
REMARK    5  A    between atoms: C_12  and  C_13 
REMARK    6  A    between atoms: C_14  and  O_15 
ROOT
HETATM    1  C   UNL     1       8.416  28.901  57.908  1.00  0.00     0.273 C 
HETATM    2  N   UNL     1       7.820  27.672  58.136  1.00  0.00    -0.243 N 
HETATM    3  O   UNL     1       9.367  29.092  57.154  1.00  0.00    -0.266 OA
HETATM    4  H   UNL     1       7.000  27.548  58.716  1.00  0.00     0.192 HD
ENDROOT
BRANCH   2   5
HETATM    5  N   UNL     1       8.256  26.613  57.401  1.00  0.00    -0.183 NA
HETATM    6  C   UNL     1       7.345  25.828  56.909  1.00  0.00     0.153 C 
BRANCH   6   7
HETATM    7  C   UNL     1       7.708  24.683  56.035  1.00  0.00     0.027 A 
HETATM    8  C   UNL     1       8.223  23.511  56.620  1.00  0.00     0.078 A 
HETATM    9  C   UNL     1       8.642  22.450  55.831  1.00  0.00     0.038 A 
HETATM   10  C   UNL     1       8.549  22.541  54.446  1.00  0.00     0.015 A 
HETATM   11  C   UNL     1       8.026  23.687  53.831  1.00  0.00    -0.025 A 
HETATM   12  C   UNL     1       7.585  24.786  54.616  1.00  0.00    -0.012 A 
HETATM   13  C   UNL     1       7.943  23.735  52.430  1.00  0.00     0.012 A 
HETATM   14  C   UNL     1       7.045  25.898  53.914  1.00  0.00     0.013 A 
HETATM   15  C   UNL     1       6.966  25.927  52.518  1.00  0.00     0.001 A 
HETATM   16  C   UNL     1       7.419  24.847  51.776  1.00  0.00     0.001 A 
BRANCH   8  17
HETATM   17  O   UNL     1       8.365  23.327  57.971  1.00  0.00    -0.360 OA
HETATM   18  H   UNL     1       9.274  23.594  58.231  1.00  0.00     0.217 HD
ENDBRANCH   8  17
ENDBRANCH   6   7
ENDBRANCH   2   5
BRANCH   1  19
HETATM   19  C   UNL     1       7.843  30.092  58.578  1.00  0.00     0.049 A 
HETATM   20  C   UNL     1       8.399  30.423  59.817  1.00  0.00     0.108 A 
HETATM   21  N   UNL     1       7.988  31.520  60.498  1.00  0.00    -0.361 N 
HETATM   22  C   UNL     1       7.012  32.313  60.001  1.00  0.00     0.090 A 
HETATM   23  C   UNL     1       6.409  32.009  58.783  1.00  0.00     0.018 A 
HETATM   24  C   UNL     1       6.825  30.891  58.063  1.00  0.00     0.020 A 
BRANCH  21  25
HETATM   25  C   UNL     1       8.623  31.854  61.799  1.00  0.00     0.166 C 
BRANCH  25  26
HETATM   26  C   UNL     1       7.592  32.301  62.803  1.00  0.00    -0.040 A 
HETATM   27  C   UNL     1       7.975  33.065  63.917  1.00  0.00     0.009 A 
HETATM   28  C   UNL     1       7.023  33.494  64.842  1.00  0.00     0.001 A 
HETATM   29  C   UNL     1       5.680  33.168  64.668  1.00  0.00     0.000 A 
HETATM   30  C   UNL     1       5.285  32.418  63.563  1.00  0.00     0.001 A 
HETATM   31  C   UNL     1       6.233  31.991  62.632  1.00  0.00     0.009 A 
ENDBRANCH  25  26
ENDBRANCH  21  25
ENDBRANCH   1  19
TORSDOF 6
ENDMDL
MODEL 3
REMARK VINA RESULT:     -10.4      1.782     10.511
REMARK  6 active torsions:
REMARK  status: ('A' for Active; 'I' for Inactive)
REMARK    1  A    between atoms: C_4  and  C_5 
REMARK    2  A    between atoms: C_5  and  N_6 
REMARK    3  A    between atoms: C_8  and  C_9 
REMARK       I    between atoms: C_9  and  N_10 
REMARK    4  A    between atoms: N_10  and  N_11 
REMARK    5  A    between atoms: C_12  and  C_13 
REMARK    6  A    between atoms: C_14  and  O_15 
ROOT
HETATM    1  C   UNL     1       7.772  28.020  57.399  1.00  0.00     0.273 C 
HETATM    2  N   UNL     1       8.036  29.355  57.657  1.00  0.00    -0.243 N 
HETATM    3  O   UNL     1       7.618  27.156  58.258  1.00  0.00    -0.266 OA
HETATM    4  H   UNL     1       8.100  30.062  56.935  1.00  0.00     0.192 HD
ENDROOT
BRANCH   2   5
HETATM    5  N   UNL     1       8.033  29.760  58.957  1.00  0.00    -0.183 NA
HETATM    6  C   UNL     1       7.691  30.993  59.184  1.00  0.00     0.153 C 
BRANCH   6   7
HETATM    7  C   UNL     1       7.587  31.518  60.570  1.00  0.00     0.027 A 
HETATM    8  C   UNL     1       8.488  31.054  61.547  1.00  0.00     0.078 A 
HETATM    9  C   UNL     1       8.374  31.466  62.867  1.00  0.00     0.038 A 
HETATM   10  C   UNL     1       7.364  32.350  63.230  1.00  0.00     0.015 A 
HETATM   11  C   UNL     1       6.460  32.844  62.280  1.00  0.00    -0.025 A 
HETATM   12  C   UNL     1       6.557  32.443  60.919  1.00  0.00    -0.012 A 
HETATM   13  C   UNL     1       5.459  33.740  62.687  1.00  0.00     0.012 A 
HETATM   14  C   UNL     1       5.617  33.010  60.017  1.00  0.00     0.013 A 
HETATM   15  C   UNL     1       4.629  33.905  60.439  1.00  0.00     0.001 A 
HETATM   16  C   UNL     1       4.548  34.266  61.775  1.00  0.00     0.001 A 
BRANCH   8  17
HETATM   17  O   UNL     1       9.509  30.176  61.293  1.00  0.00    -0.360 OA
HETATM   18  H   UNL     1      10.244  30.360  61.919  1.00  0.00     0.217 HD
ENDBRANCH   8  17
ENDBRANCH   6   7
ENDBRANCH   2   5
BRANCH   1  19
HETATM   19  C   UNL     1       7.609  27.599  55.988  1.00  0.00     0.049 A 
HETATM   20  C   UNL     1       6.985  26.365  55.787  1.00  0.00     0.108 A 
HETATM   21  N   UNL     1       6.739  25.900  54.539  1.00  0.00    -0.361 N 
HETATM   22  C   UNL     1       7.111  26.614  53.453  1.00  0.00     0.090 A 
HETATM   23  C   UNL     1       7.760  27.837  53.602  1.00  0.00     0.018 A 
HETATM   24  C   UNL     1       8.012  28.336  54.878  1.00  0.00     0.020 A 
BRANCH  21  25
HETATM   25  C   UNL     1       6.047  24.595  54.366  1.00  0.00     0.166 C 
BRANCH  25  26
HETATM   26  C   UNL     1       7.035  23.458  54.364  1.00  0.00    -0.040 A 
HETATM   27  C   UNL     1       7.452  22.881  55.575  1.00  0.00     0.009 A 
HETATM   28  C   UNL     1       8.355  21.818  55.578  1.00  0.00     0.001 A 
HETATM   29  C   UNL     1       8.852  21.317  54.377  1.00  0.00     0.000 A 
HETATM   30  C   UNL     1       8.440  21.873  53.169  1.00  0.00     0.001 A 
HETATM   31  C   UNL     1       7.532  22.933  53.160  1.00  0.00     0.009 A 
ENDBRANCH  25  26
ENDBRANCH  21  25
ENDBRANCH   1  19
TORSDOF 6
ENDMDL
MODEL 4
REMARK VINA RESULT:     -10.2      2.297      3.719
REMARK  6 active torsions:
REMARK  status: ('A' for Active; 'I' for Inactive)
REMARK    1  A    between atoms: C_4  and  C_5 
REMARK    2  A    between atoms: C_5  and  N_6 
REMARK    3  A    between atoms: C_8  and  C_9 
REMARK       I    between atoms: C_9  and  N_10 
REMARK    4  A    between atoms: N_10  and  N_11 
REMARK    5  A    between atoms: C_12  and  C_13 
REMARK    6  A    between atoms: C_14  and  O_15 
ROOT
HETATM    1  C   UNL     1       7.817  31.181  59.505  1.00  0.00     0.273 C 
HETATM    2  N   UNL     1       7.963  29.814  59.337  1.00  0.00    -0.243 N 
HETATM    3  O   UNL     1       7.824  32.005  58.594  1.00  0.00    -0.266 OA
HETATM    4  H   UNL     1       7.895  29.147  60.096  1.00  0.00     0.192 HD
ENDROOT
BRANCH   2   5
HETATM    5  N   UNL     1       8.025  29.337  58.064  1.00  0.00    -0.183 NA
HETATM    6  C   UNL     1       7.541  28.148  57.861  1.00  0.00     0.153 C 
BRANCH   6   7
HETATM    7  C   UNL     1       7.495  27.560  56.497  1.00  0.00     0.027 A 
HETATM    8  C   UNL     1       7.165  28.386  55.406  1.00  0.00     0.078 A 
HETATM    9  C   UNL     1       7.040  27.857  54.130  1.00  0.00     0.038 A 
HETATM   10  C   UNL     1       7.248  26.497  53.923  1.00  0.00     0.015 A 
HETATM   11  C   UNL     1       7.593  25.649  54.984  1.00  0.00    -0.025 A 
HETATM   12  C   UNL     1       7.733  26.166  56.301  1.00  0.00    -0.012 A 
HETATM   13  C   UNL     1       7.801  24.284  54.730  1.00  0.00     0.012 A 
HETATM   14  C   UNL     1       8.110  25.243  57.313  1.00  0.00     0.013 A 
HETATM   15  C   UNL     1       8.318  23.887  57.042  1.00  0.00     0.001 A 
HETATM   16  C   UNL     1       8.159  23.407  55.751  1.00  0.00     0.001 A 
BRANCH   8  17
HETATM   17  O   UNL     1       6.931  29.732  55.507  1.00  0.00    -0.360 OA
HETATM   18  H   UNL     1       6.836  30.103  54.602  1.00  0.00     0.217 HD
ENDBRANCH   8  17
ENDBRANCH   6   7
ENDBRANCH   2   5
BRANCH   1  19
HETATM   19  C   UNL     1       7.583  31.697  60.874  1.00  0.00     0.049 A 
HETATM   20  C   UNL     1       6.370  32.359  61.079  1.00  0.00     0.108 A 
HETATM   21  N   UNL     1       6.027  32.830  62.301  1.00  0.00    -0.361 N 
HETATM   22  C   UNL     1       6.864  32.688  63.353  1.00  0.00     0.090 A 
HETATM   23  C   UNL     1       8.097  32.060  63.193  1.00  0.00     0.018 A 
HETATM   24  C   UNL     1       8.462  31.560  61.945  1.00  0.00     0.020 A 
BRANCH  21  25
HETATM   25  C   UNL     1       4.714  33.502  62.485  1.00  0.00     0.166 C 
BRANCH  25  26
HETATM   26  C   UNL     1       4.893  34.887  63.050  1.00  0.00    -0.040 A 
HETATM   27  C   UNL     1       5.586  35.865  62.319  1.00  0.00     0.009 A 
HETATM   28  C   UNL     1       5.742  37.154  62.831  1.00  0.00     0.001 A 
HETATM   29  C   UNL     1       5.209  37.482  64.075  1.00  0.00     0.000 A 
HETATM   30  C   UNL     1       4.512  36.525  64.807  1.00  0.00     0.001 A 
HETATM   31  C   UNL     1       4.349  35.237  64.297  1.00  0.00     0.009 A 
ENDBRANCH  25  26
ENDBRANCH  21  25
ENDBRANCH   1  19
TORSDOF 6
ENDMDL
MODEL 5
REMARK VINA RESULT:     -10.1      1.522      2.295
REMARK  6 active torsions:
REMARK  status: ('A' for Active; 'I' for Inactive)
REMARK    1  A    between atoms: C_4  and  C_5 
REMARK    2  A    between atoms: C_5  and  N_6 
REMARK    3  A    between atoms: C_8  and  C_9 
REMARK       I    between atoms: C_9  and  N_10 
REMARK    4  A    between atoms: N_10  and  N_11 
REMARK    5  A    between atoms: C_12  and  C_13 
REMARK    6  A    between atoms: C_14  and  O_15 
ROOT
HETATM    1  C   UNL     1       6.300  28.531  55.811  1.00  0.00     0.273 C 
HETATM    2  N   UNL     1       7.156  27.566  56.315  1.00  0.00    -0.243 N 
HETATM    3  O   UNL     1       5.972  28.632  54.631  1.00  0.00    -0.266 OA
HETATM    4  H   UNL     1       7.365  27.465  57.301  1.00  0.00     0.192 HD
ENDROOT
BRANCH   2   5
HETATM    5  N   UNL     1       7.594  26.602  55.460  1.00  0.00    -0.183 NA
HETATM    6  C   UNL     1       7.164  25.394  55.672  1.00  0.00     0.153 C 
BRANCH   6   7
HETATM    7  C   UNL     1       7.524  24.279  54.759  1.00  0.00     0.027 A 
HETATM    8  C   UNL     1       7.477  24.491  53.368  1.00  0.00     0.078 A 
HETATM    9  C   UNL     1       7.735  23.453  52.484  1.00  0.00     0.038 A 
HETATM   10  C   UNL     1       8.048  22.190  52.975  1.00  0.00     0.015 A 
HETATM   11  C   UNL     1       8.120  21.948  54.354  1.00  0.00    -0.025 A 
HETATM   12  C   UNL     1       7.866  22.995  55.282  1.00  0.00    -0.012 A 
HETATM   13  C   UNL     1       8.447  20.660  54.807  1.00  0.00     0.012 A 
HETATM   14  C   UNL     1       7.984  22.670  56.660  1.00  0.00     0.013 A 
HETATM   15  C   UNL     1       8.315  21.383  57.094  1.00  0.00     0.001 A 
HETATM   16  C   UNL     1       8.541  20.377  56.167  1.00  0.00     0.001 A 
BRANCH   8  17
HETATM   17  O   UNL     1       7.169  25.693  52.786  1.00  0.00    -0.360 OA
HETATM   18  H   UNL     1       7.083  25.559  51.816  1.00  0.00     0.217 HD
ENDBRANCH   8  17
ENDBRANCH   6   7
ENDBRANCH   2   5
BRANCH   1  19
HETATM   19  C   UNL     1       5.685  29.487  56.761  1.00  0.00     0.049 A 
HETATM   20  C   UNL     1       6.563  30.375  57.389  1.00  0.00     0.108 A 
HETATM   21  N   UNL     1       6.108  31.326  58.239  1.00  0.00    -0.361 N 
HETATM   22  C   UNL     1       4.789  31.426  58.518  1.00  0.00     0.090 A 
HETATM   23  C   UNL     1       3.878  30.546  57.939  1.00  0.00     0.018 A 
HETATM   24  C   UNL     1       4.326  29.568  57.053  1.00  0.00     0.020 A 
BRANCH  21  25
HETATM   25  C   UNL     1       7.071  32.270  58.865  1.00  0.00     0.166 C 
BRANCH  25  26
HETATM   26  C   UNL     1       7.575  31.734  60.179  1.00  0.00    -0.040 A 
HETATM   27  C   UNL     1       8.744  30.958  60.224  1.00  0.00     0.009 A 
HETATM   28  C   UNL     1       9.224  30.470  61.440  1.00  0.00     0.001 A 
HETATM   29  C   UNL     1       8.547  30.752  62.624  1.00  0.00     0.000 A 
HETATM   30  C   UNL     1       7.391  31.528  62.595  1.00  0.00     0.001 A 
HETATM   31  C   UNL     1       6.910  32.022  61.382  1.00  0.00     0.009 A 
ENDBRANCH  25  26
ENDBRANCH  21  25
ENDBRANCH   1  19
TORSDOF 6
ENDMDL
MODEL 6
REMARK VINA RESULT:     -10.1      6.362      9.482
REMARK  6 active torsions:
REMARK  status: ('A' for Active; 'I' for Inactive)
REMARK    1  A    between atoms: C_4  and  C_5 
REMARK    2  A    between atoms: C_5  and  N_6 
REMARK    3  A    between atoms: C_8  and  C_9 
REMARK       I    between atoms: C_9  and  N_10 
REMARK    4  A    between atoms: N_10  and  N_11 
REMARK    5  A    between atoms: C_12  and  C_13 
REMARK    6  A    between atoms: C_14  and  O_15 
ROOT
HETATM    1  C   UNL     1       4.831  27.664  53.637  1.00  0.00     0.273 C 
HETATM    2  N   UNL     1       4.724  26.315  53.342  1.00  0.00    -0.243 N 
HETATM    3  O   UNL     1       5.284  28.121  54.684  1.00  0.00    -0.266 OA
HETATM    4  H   UNL     1       4.402  25.962  52.450  1.00  0.00     0.192 HD
ENDROOT
BRANCH   2   5
HETATM    5  N   UNL     1       5.243  25.430  54.237  1.00  0.00    -0.183 NA
HETATM    6  C   UNL     1       6.420  24.951  53.967  1.00  0.00     0.153 C 
BRANCH   6   7
HETATM    7  C   UNL     1       7.109  24.031  54.909  1.00  0.00     0.027 A 
HETATM    8  C   UNL     1       7.301  24.436  56.244  1.00  0.00     0.078 A 
HETATM    9  C   UNL     1       8.005  23.636  57.132  1.00  0.00     0.038 A 
HETATM   10  C   UNL     1       8.524  22.419  56.704  1.00  0.00     0.015 A 
HETATM   11  C   UNL     1       8.338  21.978  55.387  1.00  0.00    -0.025 A 
HETATM   12  C   UNL     1       7.616  22.775  54.456  1.00  0.00    -0.012 A 
HETATM   13  C   UNL     1       8.872  20.739  54.997  1.00  0.00     0.012 A 
HETATM   14  C   UNL     1       7.452  22.242  53.149  1.00  0.00     0.013 A 
HETATM   15  C   UNL     1       7.986  21.004  52.780  1.00  0.00     0.001 A 
HETATM   16  C   UNL     1       8.700  20.255  53.702  1.00  0.00     0.001 A 
BRANCH   8  17
HETATM   17  O   UNL     1       6.840  25.618  56.760  1.00  0.00    -0.360 OA
HETATM   18  H   UNL     1       5.864  25.560  56.855  1.00  0.00     0.217 HD
ENDBRANCH   8  17
ENDBRANCH   6   7
ENDBRANCH   2   5
BRANCH   1  19
HETATM   19  C   UNL     1       4.420  28.642  52.603  1.00  0.00     0.049 A 
HETATM   20  C   UNL     1       4.871  28.385  51.305  1.00  0.00     0.108 A 
HETATM   21  N   UNL     1       4.518  29.183  50.270  1.00  0.00    -0.361 N 
HETATM   22  C   UNL     1       3.732  30.265  50.472  1.00  0.00     0.090 A 
HETATM   23  C   UNL     1       3.279  30.578  51.752  1.00  0.00     0.018 A 
HETATM   24  C   UNL     1       3.624  29.762  52.827  1.00  0.00     0.020 A 
BRANCH  21  25
HETATM   25  C   UNL     1       4.994  28.860  48.900  1.00  0.00     0.166 C 
BRANCH  25  26
HETATM   26  C   UNL     1       4.083  27.863  48.234  1.00  0.00    -0.040 A 
HETATM   27  C   UNL     1       4.406  26.496  48.240  1.00  0.00     0.009 A 
HETATM   28  C   UNL     1       3.559  25.566  47.637  1.00  0.00     0.001 A 
HETATM   29  C   UNL     1       2.381  25.986  47.024  1.00  0.00     0.000 A 
HETATM   30  C   UNL     1       2.044  27.337  47.018  1.00  0.00     0.001 A 
HETATM   31  C   UNL     1       2.886  28.270  47.624  1.00  0.00     0.009 A 
ENDBRANCH  25  26
ENDBRANCH  21  25
ENDBRANCH   1  19
TORSDOF 6
ENDMDL
MODEL 7
REMARK VINA RESULT:      -9.9      2.257     10.441
REMARK  6 active torsions:
REMARK  status: ('A' for Active; 'I' for Inactive)
REMARK    1  A    between atoms: C_4  and  C_5 
REMARK    2  A    between atoms: C_5  and  N_6 
REMARK    3  A    between atoms: C_8  and  C_9 
REMARK       I    between atoms: C_9  and  N_10 
REMARK    4  A    between atoms: N_10  and  N_11 
REMARK    5  A    between atoms: C_12  and  C_13 
REMARK    6  A    between atoms: C_14  and  O_15 
ROOT
HETATM    1  C   UNL     1       5.950  28.754  56.672  1.00  0.00     0.273 C 
HETATM    2  N   UNL     1       6.690  29.755  57.279  1.00  0.00    -0.243 N 
HETATM    3  O   UNL     1       4.796  28.455  56.968  1.00  0.00    -0.266 OA
HETATM    4  H   UNL     1       7.619  30.023  56.979  1.00  0.00     0.192 HD
ENDROOT
BRANCH   2   5
HETATM    5  N   UNL     1       6.064  30.527  58.209  1.00  0.00    -0.183 NA
HETATM    6  C   UNL     1       6.802  31.386  58.846  1.00  0.00     0.153 C 
BRANCH   6   7
HETATM    7  C   UNL     1       6.208  32.326  59.831  1.00  0.00     0.027 A 
HETATM    8  C   UNL     1       5.098  33.105  59.452  1.00  0.00     0.078 A 
HETATM    9  C   UNL     1       4.564  34.046  60.320  1.00  0.00     0.038 A 
HETATM   10  C   UNL     1       5.125  34.221  61.580  1.00  0.00     0.015 A 
HETATM   11  C   UNL     1       6.220  33.452  61.996  1.00  0.00    -0.025 A 
HETATM   12  C   UNL     1       6.784  32.476  61.130  1.00  0.00    -0.012 A 
HETATM   13  C   UNL     1       6.752  33.655  63.280  1.00  0.00     0.012 A 
HETATM   14  C   UNL     1       7.876  31.723  61.639  1.00  0.00     0.013 A 
HETATM   15  C   UNL     1       8.390  31.935  62.922  1.00  0.00     0.001 A 
HETATM   16  C   UNL     1       7.831  32.904  63.740  1.00  0.00     0.001 A 
BRANCH   8  17
HETATM   17  O   UNL     1       4.481  33.016  58.232  1.00  0.00    -0.360 OA
HETATM   18  H   UNL     1       5.169  32.911  57.539  1.00  0.00     0.217 HD
ENDBRANCH   8  17
ENDBRANCH   6   7
ENDBRANCH   2   5
BRANCH   1  19
HETATM   19  C   UNL     1       6.565  28.014  55.545  1.00  0.00     0.049 A 
HETATM   20  C   UNL     1       6.089  26.717  55.333  1.00  0.00     0.108 A 
HETATM   21  N   UNL     1       6.543  25.965  54.302  1.00  0.00    -0.361 N 
HETATM   22  C   UNL     1       7.487  26.446  53.462  1.00  0.00     0.090 A 
HETATM   23  C   UNL     1       8.011  27.723  53.648  1.00  0.00     0.018 A 
HETATM   24  C   UNL     1       7.549  28.515  54.697  1.00  0.00     0.020 A 
BRANCH  21  25
HETATM   25  C   UNL     1       5.991  24.601  54.093  1.00  0.00     0.166 C 
BRANCH  25  26
HETATM   26  C   UNL     1       7.058  23.554  54.279  1.00  0.00    -0.040 A 
HETATM   27  C   UNL     1       7.517  22.809  53.181  1.00  0.00     0.009 A 
HETATM   28  C   UNL     1       8.515  21.848  53.345  1.00  0.00     0.001 A 
HETATM   29  C   UNL     1       9.067  21.619  54.603  1.00  0.00     0.000 A 
HETATM   30  C   UNL     1       8.627  22.356  55.699  1.00  0.00     0.001 A 
HETATM   31  C   UNL     1       7.633  23.322  55.539  1.00  0.00     0.009 A 
ENDBRANCH  25  26
ENDBRANCH  21  25
ENDBRANCH   1  19
TORSDOF 6
ENDMDL
MODEL 8
REMARK VINA RESULT:      -9.8      6.567      9.133
REMARK  6 active torsions:
REMARK  status: ('A' for Active; 'I' for Inactive)
REMARK    1  A    between atoms: C_4  and  C_5 
REMARK    2  A    between atoms: C_5  and  N_6 
REMARK    3  A    between atoms: C_8  and  C_9 
REMARK       I    between atoms: C_9  and  N_10 
REMARK    4  A    between atoms: N_10  and  N_11 
REMARK    5  A    between atoms: C_12  and  C_13 
REMARK    6  A    between atoms: C_14  and  O_15 
ROOT
HETATM    1  C   UNL     1       5.087  26.473  51.216  1.00  0.00     0.273 C 
HETATM    2  N   UNL     1       4.707  25.245  51.730  1.00  0.00    -0.243 N 
HETATM    3  O   UNL     1       5.813  27.281  51.790  1.00  0.00    -0.266 OA
HETATM    4  H   UNL     1       4.156  24.570  51.215  1.00  0.00     0.192 HD
ENDROOT
BRANCH   2   5
HETATM    5  N   UNL     1       5.251  24.862  52.918  1.00  0.00    -0.183 NA
HETATM    6  C   UNL     1       6.388  24.235  52.864  1.00  0.00     0.153 C 
BRANCH   6   7
HETATM    7  C   UNL     1       7.103  23.833  54.103  1.00  0.00     0.027 A 
HETATM    8  C   UNL     1       7.184  24.745  55.172  1.00  0.00     0.078 A 
HETATM    9  C   UNL     1       7.906  24.433  56.315  1.00  0.00     0.038 A 
HETATM   10  C   UNL     1       8.554  23.206  56.409  1.00  0.00     0.015 A 
HETATM   11  C   UNL     1       8.481  22.268  55.370  1.00  0.00    -0.025 A 
HETATM   12  C   UNL     1       7.743  22.559  54.190  1.00  0.00    -0.012 A 
HETATM   13  C   UNL     1       9.143  21.038  55.509  1.00  0.00     0.012 A 
HETATM   14  C   UNL     1       7.700  21.545  53.196  1.00  0.00     0.013 A 
HETATM   15  C   UNL     1       8.362  20.323  53.353  1.00  0.00     0.001 A 
HETATM   16  C   UNL     1       9.087  20.072  54.507  1.00  0.00     0.001 A 
BRANCH   8  17
HETATM   17  O   UNL     1       6.592  25.980  55.173  1.00  0.00    -0.360 OA
HETATM   18  H   UNL     1       7.057  26.551  55.823  1.00  0.00     0.217 HD
ENDBRANCH   8  17
ENDBRANCH   6   7
ENDBRANCH   2   5
BRANCH   1  19
HETATM   19  C   UNL     1       4.634  26.832  49.852  1.00  0.00     0.049 A 
HETATM   20  C   UNL     1       4.930  28.131  49.431  1.00  0.00     0.108 A 
HETATM   21  N   UNL     1       4.608  28.554  48.185  1.00  0.00    -0.361 N 
HETATM   22  C   UNL     1       3.970  27.731  47.322  1.00  0.00     0.090 A 
HETATM   23  C   UNL     1       3.629  26.436  47.705  1.00  0.00     0.018 A 
HETATM   24  C   UNL     1       3.962  25.980  48.979  1.00  0.00     0.020 A 
BRANCH  21  25
HETATM   25  C   UNL     1       4.966  29.934  47.765  1.00  0.00     0.166 C 
BRANCH  25  26
HETATM   26  C   UNL     1       4.785  30.907  48.900  1.00  0.00    -0.040 A 
HETATM   27  C   UNL     1       5.898  31.549  49.466  1.00  0.00     0.009 A 
HETATM   28  C   UNL     1       5.735  32.462  50.508  1.00  0.00     0.001 A 
HETATM   29  C   UNL     1       4.463  32.748  50.996  1.00  0.00     0.000 A 
HETATM   30  C   UNL     1       3.349  32.126  50.439  1.00  0.00     0.001 A 
HETATM   31  C   UNL     1       3.506  31.215  49.393  1.00  0.00     0.009 A 
ENDBRANCH  25  26
ENDBRANCH  21  25
ENDBRANCH   1  19
TORSDOF 6
ENDMDL
MODEL 9
REMARK VINA RESULT:      -9.7      1.952      3.338
REMARK  6 active torsions:
REMARK  status: ('A' for Active; 'I' for Inactive)
REMARK    1  A    between atoms: C_4  and  C_5 
REMARK    2  A    between atoms: C_5  and  N_6 
REMARK    3  A    between atoms: C_8  and  C_9 
REMARK       I    between atoms: C_9  and  N_10 
REMARK    4  A    between atoms: N_10  and  N_11 
REMARK    5  A    between atoms: C_12  and  C_13 
REMARK    6  A    between atoms: C_14  and  O_15 
ROOT
HETATM    1  C   UNL     1       6.744  29.859  56.830  1.00  0.00     0.273 C 
HETATM    2  N   UNL     1       7.357  29.041  57.764  1.00  0.00    -0.243 N 
HETATM    3  O   UNL     1       6.740  29.662  55.617  1.00  0.00    -0.266 OA
HETATM    4  H   UNL     1       7.297  29.191  58.763  1.00  0.00     0.192 HD
ENDROOT
BRANCH   2   5
HETATM    5  N   UNL     1       7.919  27.884  57.318  1.00  0.00    -0.183 NA
HETATM    6  C   UNL     1       7.103  26.962  56.904  1.00  0.00     0.153 C 
BRANCH   6   7
HETATM    7  C   UNL     1       7.612  25.688  56.332  1.00  0.00     0.027 A 
HETATM    8  C   UNL     1       8.239  24.758  57.183  1.00  0.00     0.078 A 
HETATM    9  C   UNL     1       8.791  23.592  56.672  1.00  0.00     0.038 A 
HETATM   10  C   UNL     1       8.723  23.335  55.307  1.00  0.00     0.015 A 
HETATM   11  C   UNL     1       8.092  24.232  54.434  1.00  0.00    -0.025 A 
HETATM   12  C   UNL     1       7.512  25.431  54.930  1.00  0.00    -0.012 A 
HETATM   13  C   UNL     1       8.038  23.930  53.064  1.00  0.00     0.012 A 
HETATM   14  C   UNL     1       6.871  26.272  53.982  1.00  0.00     0.013 A 
HETATM   15  C   UNL     1       6.822  25.954  52.621  1.00  0.00     0.001 A 
HETATM   16  C   UNL     1       7.410  24.786  52.162  1.00  0.00     0.001 A 
BRANCH   8  17
HETATM   17  O   UNL     1       8.367  24.922  58.537  1.00  0.00    -0.360 OA
HETATM   18  H   UNL     1       8.274  25.877  58.747  1.00  0.00     0.217 HD
ENDBRANCH   8  17
ENDBRANCH   6   7
ENDBRANCH   2   5
BRANCH   1  19
HETATM   19  C   UNL     1       5.987  31.036  57.319  1.00  0.00     0.049 A 
HETATM   20  C   UNL     1       6.246  31.425  58.636  1.00  0.00     0.108 A 
HETATM   21  N   UNL     1       5.649  32.515  59.174  1.00  0.00    -0.361 N 
HETATM   22  C   UNL     1       4.770  33.246  58.451  1.00  0.00     0.090 A 
HETATM   23  C   UNL     1       4.460  32.882  57.143  1.00  0.00     0.018 A 
HETATM   24  C   UNL     1       5.071  31.769  56.569  1.00  0.00     0.020 A 
BRANCH  21  25
HETATM   25  C   UNL     1       5.972  32.913  60.569  1.00  0.00     0.166 C 
BRANCH  25  26
HETATM   26  C   UNL     1       7.267  32.289  61.021  1.00  0.00    -0.040 A 
HETATM   27  C   UNL     1       7.278  31.386  62.096  1.00  0.00     0.009 A 
HETATM   28  C   UNL     1       8.471  30.793  62.511  1.00  0.00     0.001 A 
HETATM   29  C   UNL     1       9.665  31.092  61.859  1.00  0.00     0.000 A 
HETATM   30  C   UNL     1       9.667  31.980  60.785  1.00  0.00     0.001 A 
HETATM   31  C   UNL     1       8.475  32.571  60.364  1.00  0.00     0.009 A 
ENDBRANCH  25  26
ENDBRANCH  21  25
ENDBRANCH   1  19
TORSDOF 6
ENDMDL
MODEL 10
REMARK VINA RESULT:      -9.6      4.878      9.161
REMARK  6 active torsions:
REMARK  status: ('A' for Active; 'I' for Inactive)
REMARK    1  A    between atoms: C_4  and  C_5 
REMARK    2  A    between atoms: C_5  and  N_6 
REMARK    3  A    between atoms: C_8  and  C_9 
REMARK       I    between atoms: C_9  and  N_10 
REMARK    4  A    between atoms: N_10  and  N_11 
REMARK    5  A    between atoms: C_12  and  C_13 
REMARK    6  A    between atoms: C_14  and  O_15 
ROOT
HETATM    1  C   UNL     1       5.512  28.342  53.674  1.00  0.00     0.273 C 
HETATM    2  N   UNL     1       6.131  28.961  52.601  1.00  0.00    -0.243 N 
HETATM    3  O   UNL     1       4.303  28.144  53.769  1.00  0.00    -0.266 OA
HETATM    4  H   UNL     1       7.135  29.061  52.517  1.00  0.00     0.192 HD
ENDROOT
BRANCH   2   5
HETATM    5  N   UNL     1       5.358  29.292  51.530  1.00  0.00    -0.183 NA
HETATM    6  C   UNL     1       5.468  28.540  50.476  1.00  0.00     0.153 C 
BRANCH   6   7
HETATM    7  C   UNL     1       4.620  28.769  49.278  1.00  0.00     0.027 A 
HETATM    8  C   UNL     1       4.442  30.084  48.806  1.00  0.00     0.078 A 
HETATM    9  C   UNL     1       3.599  30.343  47.736  1.00  0.00     0.038 A 
HETATM   10  C   UNL     1       2.925  29.296  47.117  1.00  0.00     0.015 A 
HETATM   11  C   UNL     1       3.092  27.974  47.550  1.00  0.00    -0.025 A 
HETATM   12  C   UNL     1       3.954  27.678  48.642  1.00  0.00    -0.012 A 
HETATM   13  C   UNL     1       2.398  26.944  46.893  1.00  0.00     0.012 A 
HETATM   14  C   UNL     1       4.085  26.309  49.000  1.00  0.00     0.013 A 
HETATM   15  C   UNL     1       3.391  25.297  48.332  1.00  0.00     0.001 A 
HETATM   16  C   UNL     1       2.544  25.615  47.282  1.00  0.00     0.001 A 
BRANCH   8  17
HETATM   17  O   UNL     1       5.051  31.183  49.352  1.00  0.00    -0.360 OA
HETATM   18  H   UNL     1       5.735  30.879  49.988  1.00  0.00     0.217 HD
ENDBRANCH   8  17
ENDBRANCH   6   7
ENDBRANCH   2   5
BRANCH   1  19
HETATM   19  C   UNL     1       6.363  27.830  54.773  1.00  0.00     0.049 A 
HETATM   20  C   UNL     1       6.175  26.488  55.117  1.00  0.00     0.108 A 
HETATM   21  N   UNL     1       6.931  25.898  56.073  1.00  0.00    -0.361 N 
HETATM   22  C   UNL     1       7.876  26.602  56.735  1.00  0.00     0.090 A 
HETATM   23  C   UNL     1       8.083  27.949  56.447  1.00  0.00     0.018 A 
HETATM   24  C   UNL     1       7.322  28.571  55.459  1.00  0.00     0.020 A 
BRANCH  21  25
HETATM   25  C   UNL     1       6.720  24.461  56.391  1.00  0.00     0.166 C 
BRANCH  25  26
HETATM   26  C   UNL     1       7.485  23.582  55.437  1.00  0.00    -0.040 A 
HETATM   27  C   UNL     1       7.035  23.411  54.117  1.00  0.00     0.009 A 
HETATM   28  C   UNL     1       7.747  22.609  53.225  1.00  0.00     0.001 A 
HETATM   29  C   UNL     1       8.914  21.970  53.635  1.00  0.00     0.000 A 
HETATM   30  C   UNL     1       9.377  22.137  54.938  1.00  0.00     0.001 A 
HETATM   31  C   UNL     1       8.671  22.943  55.833  1.00  0.00     0.009 A 
ENDBRANCH  25  26
ENDBRANCH  21  25
ENDBRANCH   1  19
TORSDOF 6
ENDMDL
