MODEL 1
REMARK VINA RESULT:     -10.3      0.000      0.000
REMARK  4 active torsions:
REMARK  status: ('A' for Active; 'I' for Inactive)
REMARK    1  A    between atoms: C_7  and  C_8 
REMARK    2  A    between atoms: N_9  and  N_10 
REMARK       I    between atoms: N_10  and  C_11 
REMARK    3  A    between atoms: C_11  and  C_12 
REMARK    4  A    between atoms: C_16  and  C_17 
ROOT
HETATM    1  N   UNL     1       8.275  28.362  57.451  1.00  0.00    -0.242 N 
HETATM    2  C   UNL     1       9.240  29.358  57.480  1.00  0.00     0.289 C 
HETATM    3  O   UNL     1      10.207  29.409  56.724  1.00  0.00    -0.264 OA
HETATM    4  H   UNL     1       7.500  28.379  58.098  1.00  0.00     0.192 HD
ENDROOT
BRANCH   1   5
HETATM    5  N   UNL     1       8.374  27.339  56.550  1.00  0.00    -0.183 NA
HETATM    6  C   UNL     1       7.289  26.673  56.326  1.00  0.00     0.153 C 
BRANCH   6   7
HETATM    7  C   UNL     1       7.284  25.562  55.393  1.00  0.00     0.018 A 
HETATM    8  C   UNL     1       6.935  25.598  54.048  1.00  0.00     0.018 A 
HETATM    9  C   UNL     1       6.481  26.722  53.183  1.00  0.00     0.069 C 
HETATM   10  N   UNL     1       7.074  24.329  53.545  1.00  0.00    -0.358 N 
HETATM   11  H   UNL     1       6.888  24.061  52.588  1.00  0.00     0.166 HD
HETATM   12  C   UNL     1       7.504  23.464  54.522  1.00  0.00     0.043 A 
HETATM   13  C   UNL     1       7.645  24.205  55.694  1.00  0.00     0.004 A 
HETATM   14  C   UNL     1       7.775  22.093  54.451  1.00  0.00     0.030 A 
HETATM   15  C   UNL     1       8.080  23.535  56.859  1.00  0.00     0.014 A 
HETATM   16  C   UNL     1       8.354  22.164  56.807  1.00  0.00     0.001 A 
HETATM   17  C   UNL     1       8.204  21.454  55.618  1.00  0.00     0.002 A 
ENDBRANCH   6   7
ENDBRANCH   1   5
BRANCH   2  18
HETATM   18  C   UNL     1       9.032  30.368  58.489  1.00  0.00     0.121 A 
HETATM   19  N   UNL     1       9.737  31.538  58.468  1.00  0.00    -0.272 N 
HETATM   20  H   UNL     1      10.438  31.812  57.785  1.00  0.00     0.189 HD
HETATM   21  N   UNL     1       9.440  32.377  59.471  1.00  0.00    -0.174 NA
HETATM   22  C   UNL     1       8.501  31.740  60.187  1.00  0.00     0.089 A 
HETATM   23  C   UNL     1       8.217  30.472  59.598  1.00  0.00     0.071 A 
BRANCH  22  24
HETATM   24  C   UNL     1       7.915  32.342  61.393  1.00  0.00    -0.006 A 
HETATM   25  C   UNL     1       6.739  33.108  61.302  1.00  0.00     0.015 A 
HETATM   26  C   UNL     1       6.169  33.691  62.438  1.00  0.00     0.024 A 
HETATM   27  C   UNL     1       6.769  33.514  63.681  1.00  0.00     0.034 A 
HETATM   28 CL   UNL     1       6.073  34.229  65.081  1.00  0.00    -0.084 Cl
HETATM   29  C   UNL     1       7.934  32.758  63.794  1.00  0.00     0.024 A 
HETATM   30  C   UNL     1       8.503  32.175  62.656  1.00  0.00     0.015 A 
ENDBRANCH  22  24
ENDBRANCH   2  18
TORSDOF 4
ENDMDL
MODEL 2
REMARK VINA RESULT:     -10.2      1.561      1.868
REMARK  4 active torsions:
REMARK  status: ('A' for Active; 'I' for Inactive)
REMARK    1  A    between atoms: C_7  and  C_8 
REMARK    2  A    between atoms: N_9  and  N_10 
REMARK       I    between atoms: N_10  and  C_11 
REMARK    3  A    between atoms: C_11  and  C_12 
REMARK    4  A    between atoms: C_16  and  C_17 
ROOT
HETATM    1  N   UNL     1       7.419  27.404  56.219  1.00  0.00    -0.242 N 
HETATM    2  C   UNL     1       8.008  28.657  56.143  1.00  0.00     0.289 C 
HETATM    3  O   UNL     1       8.776  29.009  55.251  1.00  0.00    -0.264 OA
HETATM    4  H   UNL     1       6.791  27.177  56.977  1.00  0.00     0.192 HD
ENDROOT
BRANCH   1   5
HETATM    5  N   UNL     1       7.693  26.460  55.270  1.00  0.00    -0.183 NA
HETATM    6  C   UNL     1       7.310  25.255  55.541  1.00  0.00     0.153 C 
BRANCH   6   7
HETATM    7  C   UNL     1       7.559  24.174  54.605  1.00  0.00     0.018 A 
HETATM    8  C   UNL     1       7.548  24.247  53.218  1.00  0.00     0.018 A 
HETATM    9  C   UNL     1       7.294  25.391  52.298  1.00  0.00     0.069 C 
HETATM   10  N   UNL     1       7.834  22.997  52.730  1.00  0.00    -0.358 N 
HETATM   11  H   UNL     1       7.894  22.757  51.750  1.00  0.00     0.166 HD
HETATM   12  C   UNL     1       8.032  22.108  53.759  1.00  0.00     0.043 A 
HETATM   13  C   UNL     1       7.866  22.814  54.949  1.00  0.00     0.004 A 
HETATM   14  C   UNL     1       8.343  20.744  53.719  1.00  0.00     0.030 A 
HETATM   15  C   UNL     1       8.018  22.114  56.166  1.00  0.00     0.014 A 
HETATM   16  C   UNL     1       8.328  20.749  56.146  1.00  0.00     0.001 A 
HETATM   17  C   UNL     1       8.489  20.076  54.938  1.00  0.00     0.002 A 
ENDBRANCH   6   7
ENDBRANCH   1   5
BRANCH   2  18
HETATM   18  C   UNL     1       7.653  29.556  57.215  1.00  0.00     0.121 A 
HETATM   19  N   UNL     1       6.614  30.433  57.082  1.00  0.00    -0.272 N 
HETATM   20  H   UNL     1       6.014  30.543  56.270  1.00  0.00     0.189 HD
HETATM   21  N   UNL     1       6.407  31.206  58.157  1.00  0.00    -0.174 NA
HETATM   22  C   UNL     1       7.344  30.829  59.040  1.00  0.00     0.089 A 
HETATM   23  C   UNL     1       8.148  29.790  58.482  1.00  0.00     0.071 A 
BRANCH  22  24
HETATM   24  C   UNL     1       7.451  31.459  60.364  1.00  0.00    -0.006 A 
HETATM   25  C   UNL     1       6.509  32.421  60.768  1.00  0.00     0.015 A 
HETATM   26  C   UNL     1       6.597  33.033  62.022  1.00  0.00     0.024 A 
HETATM   27  C   UNL     1       7.629  32.689  62.888  1.00  0.00     0.034 A 
HETATM   28 CL   UNL     1       7.742  33.439  64.431  1.00  0.00    -0.084 Cl
HETATM   29  C   UNL     1       8.573  31.738  62.509  1.00  0.00     0.024 A 
HETATM   30  C   UNL     1       8.484  31.125  61.253  1.00  0.00     0.015 A 
ENDBRANCH  22  24
ENDBRANCH   2  18
TORSDOF 4
ENDMDL
MODEL 3
REMARK VINA RESULT:     -10.1      1.580      2.181
REMARK  4 active torsions:
REMARK  status: ('A' for Active; 'I' for Inactive)
REMARK    1  A    between atoms: C_7  and  C_8 
REMARK    2  A    between atoms: N_9  and  N_10 
REMARK       I    between atoms: N_10  and  C_11 
REMARK    3  A    between atoms: C_11  and  C_12 
REMARK    4  A    between atoms: C_16  and  C_17 
ROOT
HETATM    1  N   UNL     1       7.600  29.056  58.614  1.00  0.00    -0.242 N 
HETATM    2  C   UNL     1       8.365  30.168  58.935  1.00  0.00     0.289 C 
HETATM    3  O   UNL     1       9.162  30.704  58.169  1.00  0.00    -0.264 OA
HETATM    4  H   UNL     1       6.958  28.664  59.288  1.00  0.00     0.192 HD
ENDROOT
BRANCH   1   5
HETATM    5  N   UNL     1       7.719  28.475  57.384  1.00  0.00    -0.183 NA
HETATM    6  C   UNL     1       6.939  27.469  57.153  1.00  0.00     0.153 C 
BRANCH   6   7
HETATM    7  C   UNL     1       6.988  26.773  55.881  1.00  0.00     0.018 A 
HETATM    8  C   UNL     1       6.496  27.222  54.661  1.00  0.00     0.018 A 
HETATM    9  C   UNL     1       5.804  28.487  54.289  1.00  0.00     0.069 C 
HETATM   10  N   UNL     1       6.754  26.254  53.724  1.00  0.00    -0.358 N 
HETATM   11  H   UNL     1       6.506  26.313  52.746  1.00  0.00     0.166 HD
HETATM   12  C   UNL     1       7.399  25.184  54.296  1.00  0.00     0.043 A 
HETATM   13  C   UNL     1       7.561  25.478  55.649  1.00  0.00     0.004 A 
HETATM   14  C   UNL     1       7.847  23.991  53.717  1.00  0.00     0.030 A 
HETATM   15  C   UNL     1       8.204  24.523  56.467  1.00  0.00     0.014 A 
HETATM   16  C   UNL     1       8.657  23.323  55.905  1.00  0.00     0.001 A 
HETATM   17  C   UNL     1       8.481  23.064  54.548  1.00  0.00     0.002 A 
ENDBRANCH   6   7
ENDBRANCH   1   5
BRANCH   2  18
HETATM   18  C   UNL     1       8.163  30.675  60.270  1.00  0.00     0.121 A 
HETATM   19  N   UNL     1       8.931  30.239  61.312  1.00  0.00    -0.272 N 
HETATM   20  H   UNL     1       9.683  29.556  61.267  1.00  0.00     0.189 HD
HETATM   21  N   UNL     1       8.624  30.795  62.492  1.00  0.00    -0.174 NA
HETATM   22  C   UNL     1       7.611  31.633  62.225  1.00  0.00     0.089 A 
HETATM   23  C   UNL     1       7.293  31.586  60.835  1.00  0.00     0.071 A 
BRANCH  22  24
HETATM   24  C   UNL     1       6.981  32.438  63.282  1.00  0.00    -0.006 A 
HETATM   25  C   UNL     1       7.775  33.116  64.224  1.00  0.00     0.015 A 
HETATM   26  C   UNL     1       7.193  33.884  65.238  1.00  0.00     0.024 A 
HETATM   27  C   UNL     1       5.808  33.983  65.321  1.00  0.00     0.034 A 
HETATM   28 CL   UNL     1       5.087  34.925  66.565  1.00  0.00    -0.084 Cl
HETATM   29  C   UNL     1       5.002  33.321  64.398  1.00  0.00     0.024 A 
HETATM   30  C   UNL     1       5.586  32.553  63.383  1.00  0.00     0.015 A 
ENDBRANCH  22  24
ENDBRANCH   2  18
TORSDOF 4
ENDMDL
MODEL 4
REMARK VINA RESULT:      -9.8      3.898     10.388
REMARK  4 active torsions:
REMARK  status: ('A' for Active; 'I' for Inactive)
REMARK    1  A    between atoms: C_7  and  C_8 
REMARK    2  A    between atoms: N_9  and  N_10 
REMARK       I    between atoms: N_10  and  C_11 
REMARK    3  A    between atoms: C_11  and  C_12 
REMARK    4  A    between atoms: C_16  and  C_17 
ROOT
HETATM    1  N   UNL     1       6.864  31.021  58.017  1.00  0.00    -0.242 N 
HETATM    2  C   UNL     1       7.659  29.898  58.190  1.00  0.00     0.289 C 
HETATM    3  O   UNL     1       8.364  29.694  59.175  1.00  0.00    -0.264 OA
HETATM    4  H   UNL     1       6.302  31.128  57.184  1.00  0.00     0.192 HD
ENDROOT
BRANCH   1   5
HETATM    5  N   UNL     1       6.842  31.998  58.971  1.00  0.00    -0.183 NA
HETATM    6  C   UNL     1       5.767  32.069  59.687  1.00  0.00     0.153 C 
BRANCH   6   7
HETATM    7  C   UNL     1       5.635  33.076  60.724  1.00  0.00     0.018 A 
HETATM    8  C   UNL     1       4.797  34.184  60.713  1.00  0.00     0.018 A 
HETATM    9  C   UNL     1       3.822  34.666  59.697  1.00  0.00     0.069 C 
HETATM   10  N   UNL     1       4.990  34.866  61.888  1.00  0.00    -0.358 N 
HETATM   11  H   UNL     1       4.509  35.715  62.151  1.00  0.00     0.166 HD
HETATM   12  C   UNL     1       5.931  34.236  62.666  1.00  0.00     0.043 A 
HETATM   13  C   UNL     1       6.356  33.109  61.964  1.00  0.00     0.004 A 
HETATM   14  C   UNL     1       6.429  34.580  63.928  1.00  0.00     0.030 A 
HETATM   15  C   UNL     1       7.336  32.283  62.559  1.00  0.00     0.014 A 
HETATM   16  C   UNL     1       7.846  32.613  63.820  1.00  0.00     0.001 A 
HETATM   17  C   UNL     1       7.397  33.745  64.494  1.00  0.00     0.002 A 
ENDBRANCH   6   7
ENDBRANCH   1   5
BRANCH   2  18
HETATM   18  C   UNL     1       7.609  28.950  57.104  1.00  0.00     0.121 A 
HETATM   19  N   UNL     1       7.420  29.365  55.816  1.00  0.00    -0.272 N 
HETATM   20  H   UNL     1       7.302  30.324  55.499  1.00  0.00     0.189 HD
HETATM   21  N   UNL     1       7.391  28.372  54.917  1.00  0.00    -0.174 NA
HETATM   22  C   UNL     1       7.568  27.252  55.634  1.00  0.00     0.089 A 
HETATM   23  C   UNL     1       7.711  27.576  57.016  1.00  0.00     0.071 A 
BRANCH  22  24
HETATM   24  C   UNL     1       7.591  25.927  54.996  1.00  0.00    -0.006 A 
HETATM   25  C   UNL     1       7.603  25.816  53.595  1.00  0.00     0.015 A 
HETATM   26  C   UNL     1       7.622  24.565  52.971  1.00  0.00     0.024 A 
HETATM   27  C   UNL     1       7.630  23.408  53.744  1.00  0.00     0.034 A 
HETATM   28 CL   UNL     1       7.653  21.867  52.982  1.00  0.00    -0.084 Cl
HETATM   29  C   UNL     1       7.619  23.494  55.134  1.00  0.00     0.024 A 
HETATM   30  C   UNL     1       7.601  24.748  55.757  1.00  0.00     0.015 A 
ENDBRANCH  22  24
ENDBRANCH   2  18
TORSDOF 4
ENDMDL
MODEL 5
REMARK VINA RESULT:      -9.7      7.402     11.250
REMARK  4 active torsions:
REMARK  status: ('A' for Active; 'I' for Inactive)
REMARK    1  A    between atoms: C_7  and  C_8 
REMARK    2  A    between atoms: N_9  and  N_10 
REMARK       I    between atoms: N_10  and  C_11 
REMARK    3  A    between atoms: C_11  and  C_12 
REMARK    4  A    between atoms: C_16  and  C_17 
ROOT
HETATM    1  N   UNL     1       6.132  25.816  50.911  1.00  0.00    -0.242 N 
HETATM    2  C   UNL     1       5.513  27.058  50.926  1.00  0.00     0.289 C 
HETATM    3  O   UNL     1       5.592  27.860  51.853  1.00  0.00    -0.264 OA
HETATM    4  H   UNL     1       6.032  25.203  50.115  1.00  0.00     0.192 HD
ENDROOT
BRANCH   1   5
HETATM    5  N   UNL     1       6.875  25.409  51.982  1.00  0.00    -0.183 NA
HETATM    6  C   UNL     1       6.326  24.525  52.750  1.00  0.00     0.153 C 
BRANCH   6   7
HETATM    7  C   UNL     1       7.025  24.028  53.921  1.00  0.00     0.018 A 
HETATM    8  C   UNL     1       7.247  24.706  55.114  1.00  0.00     0.018 A 
HETATM    9  C   UNL     1       6.863  26.077  55.549  1.00  0.00     0.069 C 
HETATM   10  N   UNL     1       7.944  23.867  55.948  1.00  0.00    -0.358 N 
HETATM   11  H   UNL     1       8.242  24.099  56.886  1.00  0.00     0.166 HD
HETATM   12  C   UNL     1       8.183  22.662  55.335  1.00  0.00     0.043 A 
HETATM   13  C   UNL     1       7.621  22.730  54.061  1.00  0.00     0.004 A 
HETATM   14  C   UNL     1       8.851  21.528  55.812  1.00  0.00     0.030 A 
HETATM   15  C   UNL     1       7.734  21.601  53.220  1.00  0.00     0.014 A 
HETATM   16  C   UNL     1       8.400  20.458  53.681  1.00  0.00     0.001 A 
HETATM   17  C   UNL     1       8.949  20.425  54.960  1.00  0.00     0.002 A 
ENDBRANCH   6   7
ENDBRANCH   1   5
BRANCH   2  18
HETATM   18  C   UNL     1       4.742  27.361  49.745  1.00  0.00     0.121 A 
HETATM   19  N   UNL     1       5.314  27.332  48.505  1.00  0.00    -0.272 N 
HETATM   20  H   UNL     1       6.281  27.107  48.289  1.00  0.00     0.189 HD
HETATM   21  N   UNL     1       4.476  27.641  47.505  1.00  0.00    -0.174 NA
HETATM   22  C   UNL     1       3.300  27.886  48.104  1.00  0.00     0.089 A 
HETATM   23  C   UNL     1       3.428  27.719  49.515  1.00  0.00     0.071 A 
BRANCH  22  24
HETATM   24  C   UNL     1       2.110  28.271  47.331  1.00  0.00    -0.006 A 
HETATM   25  C   UNL     1       1.185  27.294  46.923  1.00  0.00     0.015 A 
HETATM   26  C   UNL     1       0.049  27.641  46.185  1.00  0.00     0.024 A 
HETATM   27  C   UNL     1      -0.174  28.972  45.846  1.00  0.00     0.034 A 
HETATM   28 CL   UNL     1      -1.569  29.404  44.938  1.00  0.00    -0.084 Cl
HETATM   29  C   UNL     1       0.729  29.956  46.239  1.00  0.00     0.024 A 
HETATM   30  C   UNL     1       1.866  29.607  46.979  1.00  0.00     0.015 A 
ENDBRANCH  22  24
ENDBRANCH   2  18
TORSDOF 4
ENDMDL
MODEL 6
REMARK VINA RESULT:      -9.6      1.511      2.795
REMARK  4 active torsions:
REMARK  status: ('A' for Active; 'I' for Inactive)
REMARK    1  A    between atoms: C_7  and  C_8 
REMARK    2  A    between atoms: N_9  and  N_10 
REMARK       I    between atoms: N_10  and  C_11 
REMARK    3  A    between atoms: C_11  and  C_12 
REMARK    4  A    between atoms: C_16  and  C_17 
ROOT
HETATM    1  N   UNL     1       7.637  28.783  58.052  1.00  0.00    -0.242 N 
HETATM    2  C   UNL     1       8.472  29.818  58.447  1.00  0.00     0.289 C 
HETATM    3  O   UNL     1       9.627  29.965  58.054  1.00  0.00    -0.264 OA
HETATM    4  H   UNL     1       6.694  28.721  58.409  1.00  0.00     0.192 HD
ENDROOT
BRANCH   1   5
HETATM    5  N   UNL     1       8.090  27.832  57.182  1.00  0.00    -0.183 NA
HETATM    6  C   UNL     1       7.277  26.858  56.933  1.00  0.00     0.153 C 
BRANCH   6   7
HETATM    7  C   UNL     1       7.660  25.789  56.029  1.00  0.00     0.018 A 
HETATM    8  C   UNL     1       8.343  24.623  56.353  1.00  0.00     0.018 A 
HETATM    9  C   UNL     1       8.869  24.124  57.653  1.00  0.00     0.069 C 
HETATM   10  N   UNL     1       8.494  23.894  55.200  1.00  0.00    -0.358 N 
HETATM   11  H   UNL     1       8.956  22.996  55.139  1.00  0.00     0.166 HD
HETATM   12  C   UNL     1       7.930  24.549  54.133  1.00  0.00     0.043 A 
HETATM   13  C   UNL     1       7.399  25.743  54.618  1.00  0.00     0.004 A 
HETATM   14  C   UNL     1       7.854  24.174  52.786  1.00  0.00     0.030 A 
HETATM   15  C   UNL     1       6.757  26.607  53.705  1.00  0.00     0.014 A 
HETATM   16  C   UNL     1       6.672  26.249  52.354  1.00  0.00     0.001 A 
HETATM   17  C   UNL     1       7.213  25.048  51.904  1.00  0.00     0.002 A 
ENDBRANCH   6   7
ENDBRANCH   1   5
BRANCH   2  18
HETATM   18  C   UNL     1       7.883  30.745  59.382  1.00  0.00     0.121 A 
HETATM   19  N   UNL     1       7.042  31.734  58.958  1.00  0.00    -0.272 N 
HETATM   20  H   UNL     1       6.755  31.915  57.999  1.00  0.00     0.189 HD
HETATM   21  N   UNL     1       6.577  32.520  59.939  1.00  0.00    -0.174 NA
HETATM   22  C   UNL     1       7.131  32.035  61.061  1.00  0.00     0.089 A 
HETATM   23  C   UNL     1       7.959  30.915  60.750  1.00  0.00     0.071 A 
BRANCH  22  24
HETATM   24  C   UNL     1       6.865  32.642  62.373  1.00  0.00    -0.006 A 
HETATM   25  C   UNL     1       7.862  32.652  63.364  1.00  0.00     0.015 A 
HETATM   26  C   UNL     1       7.625  33.223  64.619  1.00  0.00     0.024 A 
HETATM   27  C   UNL     1       6.387  33.792  64.896  1.00  0.00     0.034 A 
HETATM   28 CL   UNL     1       6.090  34.494  66.437  1.00  0.00    -0.084 Cl
HETATM   29  C   UNL     1       5.385  33.794  63.929  1.00  0.00     0.024 A 
HETATM   30  C   UNL     1       5.622  33.223  62.673  1.00  0.00     0.015 A 
ENDBRANCH  22  24
ENDBRANCH   2  18
TORSDOF 4
ENDMDL
MODEL 7
REMARK VINA RESULT:      -9.5      7.543     14.755
REMARK  4 active torsions:
REMARK  status: ('A' for Active; 'I' for Inactive)
REMARK    1  A    between atoms: C_7  and  C_8 
REMARK    2  A    between atoms: N_9  and  N_10 
REMARK       I    between atoms: N_10  and  C_11 
REMARK    3  A    between atoms: C_11  and  C_12 
REMARK    4  A    between atoms: C_16  and  C_17 
ROOT
HETATM    1  N   UNL     1       7.013  34.467  67.468  1.00  0.00    -0.242 N 
HETATM    2  C   UNL     1       5.857  34.100  66.796  1.00  0.00     0.289 C 
HETATM    3  O   UNL     1       4.728  34.162  67.276  1.00  0.00    -0.264 OA
HETATM    4  H   UNL     1       7.914  34.397  67.015  1.00  0.00     0.192 HD
ENDROOT
BRANCH   1   5
HETATM    5  N   UNL     1       6.943  34.918  68.755  1.00  0.00    -0.183 NA
HETATM    6  C   UNL     1       8.059  34.945  69.409  1.00  0.00     0.153 C 
BRANCH   6   7
HETATM    7  C   UNL     1       8.097  35.399  70.787  1.00  0.00     0.018 A 
HETATM    8  C   UNL     1       8.141  34.608  71.928  1.00  0.00     0.018 A 
HETATM    9  C   UNL     1       8.162  33.129  72.097  1.00  0.00     0.069 C 
HETATM   10  N   UNL     1       8.167  35.445  73.016  1.00  0.00    -0.358 N 
HETATM   11  H   UNL     1       8.201  35.142  73.980  1.00  0.00     0.166 HD
HETATM   12  C   UNL     1       8.141  36.760  72.618  1.00  0.00     0.043 A 
HETATM   13  C   UNL     1       8.096  36.766  71.225  1.00  0.00     0.004 A 
HETATM   14  C   UNL     1       8.155  37.931  73.385  1.00  0.00     0.030 A 
HETATM   15  C   UNL     1       8.062  38.014  70.564  1.00  0.00     0.014 A 
HETATM   16  C   UNL     1       8.074  39.195  71.315  1.00  0.00     0.001 A 
HETATM   17  C   UNL     1       8.121  39.152  72.706  1.00  0.00     0.002 A 
ENDBRANCH   6   7
ENDBRANCH   1   5
BRANCH   2  18
HETATM   18  C   UNL     1       6.067  33.622  65.451  1.00  0.00     0.121 A 
HETATM   19  N   UNL     1       5.021  33.188  64.687  1.00  0.00    -0.272 N 
HETATM   20  H   UNL     1       4.042  33.157  64.961  1.00  0.00     0.189 HD
HETATM   21  N   UNL     1       5.370  32.769  63.463  1.00  0.00    -0.174 NA
HETATM   22  C   UNL     1       6.701  32.930  63.410  1.00  0.00     0.089 A 
HETATM   23  C   UNL     1       7.176  33.467  64.644  1.00  0.00     0.071 A 
BRANCH  22  24
HETATM   24  C   UNL     1       7.471  32.571  62.210  1.00  0.00    -0.006 A 
HETATM   25  C   UNL     1       8.821  32.196  62.321  1.00  0.00     0.015 A 
HETATM   26  C   UNL     1       9.570  31.854  61.190  1.00  0.00     0.024 A 
HETATM   27  C   UNL     1       8.974  31.884  59.933  1.00  0.00     0.034 A 
HETATM   28 CL   UNL     1       9.890  31.465  58.539  1.00  0.00    -0.084 Cl
HETATM   29  C   UNL     1       7.638  32.252  59.800  1.00  0.00     0.024 A 
HETATM   30  C   UNL     1       6.889  32.594  60.933  1.00  0.00     0.015 A 
ENDBRANCH  22  24
ENDBRANCH   2  18
TORSDOF 4
ENDMDL
MODEL 8
REMARK VINA RESULT:      -9.1      6.992      9.609
REMARK  4 active torsions:
REMARK  status: ('A' for Active; 'I' for Inactive)
REMARK    1  A    between atoms: C_7  and  C_8 
REMARK    2  A    between atoms: N_9  and  N_10 
REMARK       I    between atoms: N_10  and  C_11 
REMARK    3  A    between atoms: C_11  and  C_12 
REMARK    4  A    between atoms: C_16  and  C_17 
ROOT
HETATM    1  N   UNL     1       6.055  25.941  52.036  1.00  0.00    -0.242 N 
HETATM    2  C   UNL     1       5.081  26.903  52.259  1.00  0.00     0.289 C 
HETATM    3  O   UNL     1       4.407  26.982  53.283  1.00  0.00    -0.264 OA
HETATM    4  H   UNL     1       6.580  25.932  51.172  1.00  0.00     0.192 HD
ENDROOT
BRANCH   1   5
HETATM    5  N   UNL     1       6.307  24.989  52.983  1.00  0.00    -0.183 NA
HETATM    6  C   UNL     1       7.488  25.011  53.510  1.00  0.00     0.153 C 
BRANCH   6   7
HETATM    7  C   UNL     1       7.863  24.039  54.520  1.00  0.00     0.018 A 
HETATM    8  C   UNL     1       8.045  24.270  55.878  1.00  0.00     0.018 A 
HETATM    9  C   UNL     1       7.920  25.514  56.686  1.00  0.00     0.069 C 
HETATM   10  N   UNL     1       8.393  23.079  56.463  1.00  0.00    -0.358 N 
HETATM   11  H   UNL     1       8.585  22.950  57.447  1.00  0.00     0.166 HD
HETATM   12  C   UNL     1       8.444  22.075  55.526  1.00  0.00     0.043 A 
HETATM   13  C   UNL     1       8.117  22.644  54.296  1.00  0.00     0.004 A 
HETATM   14  C   UNL     1       8.752  20.718  55.679  1.00  0.00     0.030 A 
HETATM   15  C   UNL     1       8.101  21.808  53.158  1.00  0.00     0.014 A 
HETATM   16  C   UNL     1       8.408  20.449  53.292  1.00  0.00     0.001 A 
HETATM   17  C   UNL     1       8.728  19.913  54.537  1.00  0.00     0.002 A 
ENDBRANCH   6   7
ENDBRANCH   1   5
BRANCH   2  18
HETATM   18  C   UNL     1       4.898  27.837  51.175  1.00  0.00     0.121 A 
HETATM   19  N   UNL     1       3.935  27.637  50.228  1.00  0.00    -0.272 N 
HETATM   20  H   UNL     1       3.281  26.859  50.183  1.00  0.00     0.189 HD
HETATM   21  N   UNL     1       3.887  28.585  49.282  1.00  0.00    -0.174 NA
HETATM   22  C   UNL     1       4.857  29.451  49.613  1.00  0.00     0.089 A 
HETATM   23  C   UNL     1       5.515  29.014  50.801  1.00  0.00     0.071 A 
BRANCH  22  24
HETATM   24  C   UNL     1       5.129  30.646  48.801  1.00  0.00    -0.006 A 
HETATM   25  C   UNL     1       4.605  30.753  47.500  1.00  0.00     0.015 A 
HETATM   26  C   UNL     1       4.856  31.881  46.713  1.00  0.00     0.024 A 
HETATM   27  C   UNL     1       5.635  32.917  47.219  1.00  0.00     0.034 A 
HETATM   28 CL   UNL     1       5.947  34.306  46.255  1.00  0.00    -0.084 Cl
HETATM   29  C   UNL     1       6.163  32.833  48.504  1.00  0.00     0.024 A 
HETATM   30  C   UNL     1       5.911  31.703  49.292  1.00  0.00     0.015 A 
ENDBRANCH  22  24
ENDBRANCH   2  18
TORSDOF 4
ENDMDL
MODEL 9
REMARK VINA RESULT:      -9.0      1.789      2.181
REMARK  4 active torsions:
REMARK  status: ('A' for Active; 'I' for Inactive)
REMARK    1  A    between atoms: C_7  and  C_8 
REMARK    2  A    between atoms: N_9  and  N_10 
REMARK       I    between atoms: N_10  and  C_11 
REMARK    3  A    between atoms: C_11  and  C_12 
REMARK    4  A    between atoms: C_16  and  C_17 
ROOT
HETATM    1  N   UNL     1       7.383  28.206  56.746  1.00  0.00    -0.242 N 
HETATM    2  C   UNL     1       6.758  29.442  56.657  1.00  0.00     0.289 C 
HETATM    3  O   UNL     1       6.182  29.855  55.655  1.00  0.00    -0.264 OA
HETATM    4  H   UNL     1       7.837  27.921  57.602  1.00  0.00     0.192 HD
ENDROOT
BRANCH   1   5
HETATM    5  N   UNL     1       7.398  27.367  55.668  1.00  0.00    -0.183 NA
HETATM    6  C   UNL     1       6.813  26.225  55.830  1.00  0.00     0.153 C 
BRANCH   6   7
HETATM    7  C   UNL     1       6.777  25.255  54.751  1.00  0.00     0.018 A 
HETATM    8  C   UNL     1       5.946  25.272  53.637  1.00  0.00     0.018 A 
HETATM    9  C   UNL     1       4.890  26.233  53.216  1.00  0.00     0.069 C 
HETATM   10  N   UNL     1       6.247  24.171  52.875  1.00  0.00    -0.358 N 
HETATM   11  H   UNL     1       5.796  23.930  52.002  1.00  0.00     0.166 HD
HETATM   12  C   UNL     1       7.249  23.435  53.458  1.00  0.00     0.043 A 
HETATM   13  C   UNL     1       7.604  24.088  54.637  1.00  0.00     0.004 A 
HETATM   14  C   UNL     1       7.860  22.251  53.029  1.00  0.00     0.030 A 
HETATM   15  C   UNL     1       8.626  23.522  55.431  1.00  0.00     0.014 A 
HETATM   16  C   UNL     1       9.247  22.337  55.018  1.00  0.00     0.001 A 
HETATM   17  C   UNL     1       8.869  21.713  53.833  1.00  0.00     0.002 A 
ENDBRANCH   6   7
ENDBRANCH   1   5
BRANCH   2  18
HETATM   18  C   UNL     1       6.830  30.241  57.856  1.00  0.00     0.121 A 
HETATM   19  N   UNL     1       7.785  30.004  58.803  1.00  0.00    -0.272 N 
HETATM   20  H   UNL     1       8.506  29.287  58.772  1.00  0.00     0.189 HD
HETATM   21  N   UNL     1       7.724  30.822  59.863  1.00  0.00    -0.174 NA
HETATM   22  C   UNL     1       6.687  31.636  59.611  1.00  0.00     0.089 A 
HETATM   23  C   UNL     1       6.099  31.301  58.355  1.00  0.00     0.071 A 
BRANCH  22  24
HETATM   24  C   UNL     1       6.288  32.688  60.558  1.00  0.00    -0.006 A 
HETATM   25  C   UNL     1       7.053  32.928  61.713  1.00  0.00     0.015 A 
HETATM   26  C   UNL     1       6.687  33.922  62.626  1.00  0.00     0.024 A 
HETATM   27  C   UNL     1       5.550  34.689  62.393  1.00  0.00     0.034 A 
HETATM   28 CL   UNL     1       5.095  35.912  63.513  1.00  0.00    -0.084 Cl
HETATM   29  C   UNL     1       4.778  34.468  61.256  1.00  0.00     0.024 A 
HETATM   30  C   UNL     1       5.146  33.473  60.342  1.00  0.00     0.015 A 
ENDBRANCH  22  24
ENDBRANCH   2  18
TORSDOF 4
ENDMDL
MODEL 10
REMARK VINA RESULT:      -9.0      1.234      2.562
REMARK  4 active torsions:
REMARK  status: ('A' for Active; 'I' for Inactive)
REMARK    1  A    between atoms: C_7  and  C_8 
REMARK    2  A    between atoms: N_9  and  N_10 
REMARK       I    between atoms: N_10  and  C_11 
REMARK    3  A    between atoms: C_11  and  C_12 
REMARK    4  A    between atoms: C_16  and  C_17 
ROOT
HETATM    1  N   UNL     1       8.043  28.155  57.976  1.00  0.00    -0.242 N 
HETATM    2  C   UNL     1       7.978  29.526  57.775  1.00  0.00     0.289 C 
HETATM    3  O   UNL     1       7.840  30.059  56.677  1.00  0.00    -0.264 OA
HETATM    4  H   UNL     1       8.152  27.777  58.906  1.00  0.00     0.192 HD
ENDROOT
BRANCH   1   5
HETATM    5  N   UNL     1       7.970  27.302  56.911  1.00  0.00    -0.183 NA
HETATM    6  C   UNL     1       7.240  26.247  57.077  1.00  0.00     0.153 C 
BRANCH   6   7
HETATM    7  C   UNL     1       7.100  25.271  56.012  1.00  0.00     0.018 A 
HETATM    8  C   UNL     1       7.639  23.991  55.973  1.00  0.00     0.018 A 
HETATM    9  C   UNL     1       8.483  23.252  56.951  1.00  0.00     0.069 C 
HETATM   10  N   UNL     1       7.258  23.414  54.788  1.00  0.00    -0.358 N 
HETATM   11  H   UNL     1       7.508  22.479  54.491  1.00  0.00     0.166 HD
HETATM   12  C   UNL     1       6.486  24.279  54.051  1.00  0.00     0.043 A 
HETATM   13  C   UNL     1       6.369  25.455  54.791  1.00  0.00     0.004 A 
HETATM   14  C   UNL     1       5.891  24.106  52.796  1.00  0.00     0.030 A 
HETATM   15  C   UNL     1       5.614  26.515  54.242  1.00  0.00     0.014 A 
HETATM   16  C   UNL     1       5.012  26.360  52.987  1.00  0.00     0.001 A 
HETATM   17  C   UNL     1       5.149  25.171  52.277  1.00  0.00     0.002 A 
ENDBRANCH   6   7
ENDBRANCH   1   5
BRANCH   2  18
HETATM   18  C   UNL     1       8.087  30.316  58.977  1.00  0.00     0.121 A 
HETATM   19  N   UNL     1       9.283  30.458  59.619  1.00  0.00    -0.272 N 
HETATM   20  H   UNL     1      10.173  30.052  59.342  1.00  0.00     0.189 HD
HETATM   21  N   UNL     1       9.229  31.217  60.723  1.00  0.00    -0.174 NA
HETATM   22  C   UNL     1       7.945  31.594  60.819  1.00  0.00     0.089 A 
HETATM   23  C   UNL     1       7.194  31.048  59.736  1.00  0.00     0.071 A 
BRANCH  22  24
HETATM   24  C   UNL     1       7.474  32.446  61.922  1.00  0.00    -0.006 A 
HETATM   25  C   UNL     1       6.405  33.336  61.723  1.00  0.00     0.015 A 
HETATM   26  C   UNL     1       5.946  34.155  62.759  1.00  0.00     0.024 A 
HETATM   27  C   UNL     1       6.554  34.092  64.009  1.00  0.00     0.034 A 
HETATM   28 CL   UNL     1       5.995  35.097  65.287  1.00  0.00    -0.084 Cl
HETATM   29  C   UNL     1       7.614  33.217  64.229  1.00  0.00     0.024 A 
HETATM   30  C   UNL     1       8.072  32.397  63.191  1.00  0.00     0.015 A 
ENDBRANCH  22  24
ENDBRANCH   2  18
TORSDOF 4
ENDMDL
