MODEL 1
REMARK VINA RESULT:      -7.8      0.000      0.000
REMARK  4 active torsions:
REMARK  status: ('A' for Active; 'I' for Inactive)
REMARK    1  A    between atoms: C_2  and  O_3 
REMARK    2  A    between atoms: O_3  and  C_4 
REMARK    3  A    between atoms: C_4  and  C_5 
REMARK    4  A    between atoms: C_9  and  N_10 
ROOT
HETATM    1  C   UNL     1       8.051  23.255  55.806  1.00  0.00     0.109 A 
HETATM    2  S   UNL     1       7.230  23.528  54.326  1.00  0.00    -0.063 SA
HETATM    3  C   UNL     1       7.034  25.168  54.667  1.00  0.00     0.088 A 
HETATM    4  C   UNL     1       7.583  25.581  55.868  1.00  0.00     0.033 A 
HETATM    5  C   UNL     1       8.158  24.435  56.532  1.00  0.00     0.063 A 
HETATM    6  N   UNL     1       6.387  25.992  53.809  1.00  0.00    -0.353 N 
HETATM    7  H   UNL     1       6.022  25.581  52.952  1.00  0.00     0.166 HD
HETATM    8  C   UNL     1       6.228  27.290  54.086  1.00  0.00     0.015 A 
HETATM    9  C   UNL     1       5.485  28.118  53.082  1.00  0.00     0.069 C 
HETATM   10  C   UNL     1       6.747  27.809  55.284  1.00  0.00    -0.005 A 
HETATM   11  C   UNL     1       7.466  26.969  56.179  1.00  0.00    -0.030 A 
HETATM   12  C   UNL     1       8.027  27.574  57.453  1.00  0.00     0.077 C 
HETATM   13  C   UNL     1       8.103  29.111  57.443  1.00  0.00     0.058 C 
HETATM   14  C   UNL     1       9.308  29.630  56.641  1.00  0.00     0.046 C 
HETATM   15  C   UNL     1       8.224  29.623  58.884  1.00  0.00     0.046 C 
HETATM   16  O   UNL     1       6.864  29.626  56.943  1.00  0.00    -0.376 OA
HETATM   17  C   UNL     1       6.580  29.286  55.594  1.00  0.00     0.210 C 
ENDROOT
BRANCH   1  18
HETATM   18  C   UNL     1       8.523  21.931  56.193  1.00  0.00     0.302 C 
HETATM   19  O   UNL     1       8.271  21.393  57.265  1.00  0.00    -0.259 OA
BRANCH  18  20
HETATM   20  O   UNL     1       9.265  21.358  55.202  1.00  0.00    -0.317 OA
BRANCH  20  21
HETATM   21  C   UNL     1       8.733  20.148  54.636  1.00  0.00     0.174 C 
HETATM   22  C   UNL     1       8.576  20.297  53.134  1.00  0.00     0.034 C 
ENDBRANCH  20  21
ENDBRANCH  18  20
ENDBRANCH   1  18
BRANCH   5  23
HETATM   23  N   UNL     1       8.748  24.475  57.745  1.00  0.00    -0.397 N 
HETATM   24  H   UNL     1       9.572  25.025  57.968  1.00  0.00     0.156 HD
HETATM   25  H   UNL     1       8.224  24.229  58.594  1.00  0.00     0.156 HD
ENDBRANCH   5  23
TORSDOF 4
ENDMDL
MODEL 2
REMARK VINA RESULT:      -7.7      3.021      6.925
REMARK  4 active torsions:
REMARK  status: ('A' for Active; 'I' for Inactive)
REMARK    1  A    between atoms: C_2  and  O_3 
REMARK    2  A    between atoms: O_3  and  C_4 
REMARK    3  A    between atoms: C_4  and  C_5 
REMARK    4  A    between atoms: C_9  and  N_10 
ROOT
HETATM    1  C   UNL     1       5.981  27.622  52.358  1.00  0.00     0.109 A 
HETATM    2  S   UNL     1       6.180  28.294  53.922  1.00  0.00    -0.063 SA
HETATM    3  C   UNL     1       6.649  26.807  54.568  1.00  0.00     0.088 A 
HETATM    4  C   UNL     1       6.698  25.768  53.656  1.00  0.00     0.033 A 
HETATM    5  C   UNL     1       6.281  26.265  52.366  1.00  0.00     0.063 A 
HETATM    6  N   UNL     1       6.950  26.675  55.882  1.00  0.00    -0.353 N 
HETATM    7  H   UNL     1       6.879  27.508  56.463  1.00  0.00     0.166 HD
HETATM    8  C   UNL     1       7.314  25.494  56.390  1.00  0.00     0.015 A 
HETATM    9  C   UNL     1       7.613  25.444  57.858  1.00  0.00     0.069 C 
HETATM   10  C   UNL     1       7.393  24.373  55.547  1.00  0.00    -0.005 A 
HETATM   11  C   UNL     1       7.121  24.500  54.156  1.00  0.00    -0.030 A 
HETATM   12  C   UNL     1       7.236  23.269  53.276  1.00  0.00     0.077 C 
HETATM   13  C   UNL     1       8.023  22.109  53.912  1.00  0.00     0.058 C 
HETATM   14  C   UNL     1       9.543  22.327  53.841  1.00  0.00     0.046 C 
HETATM   15  C   UNL     1       7.687  20.804  53.178  1.00  0.00     0.046 C 
HETATM   16  O   UNL     1       7.568  21.933  55.258  1.00  0.00    -0.376 OA
HETATM   17  C   UNL     1       7.820  23.034  56.119  1.00  0.00     0.210 C 
ENDROOT
BRANCH   1  18
HETATM   18  C   UNL     1       5.531  28.423  51.226  1.00  0.00     0.302 C 
HETATM   19  O   UNL     1       5.991  29.520  50.929  1.00  0.00    -0.259 OA
BRANCH  18  20
HETATM   20  O   UNL     1       4.545  27.789  50.528  1.00  0.00    -0.317 OA
BRANCH  20  21
HETATM   21  C   UNL     1       4.432  28.141  49.139  1.00  0.00     0.174 C 
HETATM   22  C   UNL     1       4.666  26.920  48.268  1.00  0.00     0.034 C 
ENDBRANCH  20  21
ENDBRANCH  18  20
ENDBRANCH   1  18
BRANCH   5  23
HETATM   23  N   UNL     1       6.180  25.506  51.254  1.00  0.00    -0.397 N 
HETATM   24  H   UNL     1       5.339  25.017  50.963  1.00  0.00     0.156 HD
HETATM   25  H   UNL     1       6.824  25.641  50.464  1.00  0.00     0.156 HD
ENDBRANCH   5  23
TORSDOF 4
ENDMDL
MODEL 3
REMARK VINA RESULT:      -7.6      4.429      7.058
REMARK  4 active torsions:
REMARK  status: ('A' for Active; 'I' for Inactive)
REMARK    1  A    between atoms: C_2  and  O_3 
REMARK    2  A    between atoms: O_3  and  C_4 
REMARK    3  A    between atoms: C_4  and  C_5 
REMARK    4  A    between atoms: C_9  and  N_10 
ROOT
HETATM    1  C   UNL     1       5.618  26.378  53.598  1.00  0.00     0.109 A 
HETATM    2  S   UNL     1       6.158  28.006  53.612  1.00  0.00    -0.063 SA
HETATM    3  C   UNL     1       5.673  28.245  52.014  1.00  0.00     0.088 A 
HETATM    4  C   UNL     1       5.078  27.148  51.418  1.00  0.00     0.033 A 
HETATM    5  C   UNL     1       5.075  26.054  52.361  1.00  0.00     0.063 A 
HETATM    6  N   UNL     1       5.863  29.433  51.392  1.00  0.00    -0.353 N 
HETATM    7  H   UNL     1       6.313  30.174  51.928  1.00  0.00     0.166 HD
HETATM    8  C   UNL     1       5.484  29.616  50.124  1.00  0.00     0.015 A 
HETATM    9  C   UNL     1       5.751  30.960  49.517  1.00  0.00     0.069 C 
HETATM   10  C   UNL     1       4.871  28.561  49.427  1.00  0.00    -0.005 A 
HETATM   11  C   UNL     1       4.624  27.320  50.076  1.00  0.00    -0.030 A 
HETATM   12  C   UNL     1       3.942  26.212  49.293  1.00  0.00     0.077 C 
HETATM   13  C   UNL     1       3.232  26.688  48.014  1.00  0.00     0.058 C 
HETATM   14  C   UNL     1       1.873  27.344  48.309  1.00  0.00     0.046 C 
HETATM   15  C   UNL     1       2.998  25.488  47.086  1.00  0.00     0.046 C 
HETATM   16  O   UNL     1       4.110  27.569  47.305  1.00  0.00    -0.376 OA
HETATM   17  C   UNL     1       4.426  28.771  47.991  1.00  0.00     0.210 C 
ENDROOT
BRANCH   1  18
HETATM   18  C   UNL     1       5.766  25.507  54.757  1.00  0.00     0.302 C 
HETATM   19  O   UNL     1       5.419  25.804  55.894  1.00  0.00    -0.259 OA
BRANCH  18  20
HETATM   20  O   UNL     1       6.323  24.310  54.412  1.00  0.00    -0.317 OA
BRANCH  20  21
HETATM   21  C   UNL     1       7.734  24.329  54.135  1.00  0.00     0.174 C 
HETATM   22  C   UNL     1       8.040  23.479  52.916  1.00  0.00     0.034 C 
ENDBRANCH  20  21
ENDBRANCH  18  20
ENDBRANCH   1  18
BRANCH   5  23
HETATM   23  N   UNL     1       4.597  24.820  52.093  1.00  0.00    -0.397 N 
HETATM   24  H   UNL     1       3.816  24.625  51.475  1.00  0.00     0.156 HD
HETATM   25  H   UNL     1       5.188  23.988  52.220  1.00  0.00     0.156 HD
ENDBRANCH   5  23
TORSDOF 4
ENDMDL
MODEL 4
REMARK VINA RESULT:      -7.4      6.452      9.718
REMARK  4 active torsions:
REMARK  status: ('A' for Active; 'I' for Inactive)
REMARK    1  A    between atoms: C_2  and  O_3 
REMARK    2  A    between atoms: O_3  and  C_4 
REMARK    3  A    between atoms: C_4  and  C_5 
REMARK    4  A    between atoms: C_9  and  N_10 
ROOT
HETATM    1  C   UNL     1       8.081  30.964  60.054  1.00  0.00     0.109 A 
HETATM    2  S   UNL     1       8.817  30.868  61.600  1.00  0.00    -0.063 SA
HETATM    3  C   UNL     1       7.790  32.049  62.229  1.00  0.00     0.088 A 
HETATM    4  C   UNL     1       6.856  32.542  61.336  1.00  0.00     0.033 A 
HETATM    5  C   UNL     1       7.059  31.904  60.056  1.00  0.00     0.063 A 
HETATM    6  N   UNL     1       7.897  32.461  63.515  1.00  0.00    -0.353 N 
HETATM    7  H   UNL     1       8.623  32.030  64.085  1.00  0.00     0.166 HD
HETATM    8  C   UNL     1       7.085  33.402  64.007  1.00  0.00     0.015 A 
HETATM    9  C   UNL     1       7.290  33.802  65.437  1.00  0.00     0.069 C 
HETATM   10  C   UNL     1       6.102  33.969  63.179  1.00  0.00    -0.005 A 
HETATM   11  C   UNL     1       5.947  33.521  61.838  1.00  0.00    -0.030 A 
HETATM   12  C   UNL     1       4.860  34.146  60.983  1.00  0.00     0.077 C 
HETATM   13  C   UNL     1       3.787  34.906  61.781  1.00  0.00     0.058 C 
HETATM   14  C   UNL     1       2.762  33.961  62.429  1.00  0.00     0.046 C 
HETATM   15  C   UNL     1       3.037  35.862  60.843  1.00  0.00     0.046 C 
HETATM   16  O   UNL     1       4.440  35.735  62.749  1.00  0.00    -0.376 OA
HETATM   17  C   UNL     1       5.170  35.028  63.740  1.00  0.00     0.210 C 
ENDROOT
BRANCH   1  18
HETATM   18  C   UNL     1       8.538  30.153  58.931  1.00  0.00     0.302 C 
HETATM   19  O   UNL     1       8.235  28.979  58.758  1.00  0.00    -0.259 OA
BRANCH  18  20
HETATM   20  O   UNL     1       9.332  30.874  58.088  1.00  0.00    -0.317 OA
BRANCH  20  21
HETATM   21  C   UNL     1      10.525  30.215  57.630  1.00  0.00     0.174 C 
HETATM   22  C   UNL     1      10.375  29.810  56.175  1.00  0.00     0.034 C 
ENDBRANCH  20  21
ENDBRANCH  18  20
ENDBRANCH   1  18
BRANCH   5  23
HETATM   23  N   UNL     1       6.339  32.177  58.946  1.00  0.00    -0.397 N 
HETATM   24  H   UNL     1       6.694  32.677  58.137  1.00  0.00     0.156 HD
HETATM   25  H   UNL     1       5.512  31.618  58.705  1.00  0.00     0.156 HD
ENDBRANCH   5  23
TORSDOF 4
ENDMDL
MODEL 5
REMARK VINA RESULT:      -7.3      1.994      6.191
REMARK  4 active torsions:
REMARK  status: ('A' for Active; 'I' for Inactive)
REMARK    1  A    between atoms: C_2  and  O_3 
REMARK    2  A    between atoms: O_3  and  C_4 
REMARK    3  A    between atoms: C_4  and  C_5 
REMARK    4  A    between atoms: C_9  and  N_10 
ROOT
HETATM    1  C   UNL     1       7.068  28.065  56.693  1.00  0.00     0.109 A 
HETATM    2  S   UNL     1       5.833  28.298  55.527  1.00  0.00    -0.063 SA
HETATM    3  C   UNL     1       6.165  26.816  54.792  1.00  0.00     0.088 A 
HETATM    4  C   UNL     1       7.178  26.086  55.387  1.00  0.00     0.033 A 
HETATM    5  C   UNL     1       7.709  26.850  56.492  1.00  0.00     0.063 A 
HETATM    6  N   UNL     1       5.473  26.400  53.704  1.00  0.00    -0.353 N 
HETATM    7  H   UNL     1       4.746  27.019  53.347  1.00  0.00     0.166 HD
HETATM    8  C   UNL     1       5.744  25.228  53.120  1.00  0.00     0.015 A 
HETATM    9  C   UNL     1       4.934  24.862  51.914  1.00  0.00     0.069 C 
HETATM   10  C   UNL     1       6.758  24.412  53.648  1.00  0.00    -0.005 A 
HETATM   11  C   UNL     1       7.468  24.812  54.814  1.00  0.00    -0.030 A 
HETATM   12  C   UNL     1       8.543  23.891  55.363  1.00  0.00     0.077 C 
HETATM   13  C   UNL     1       8.470  22.448  54.834  1.00  0.00     0.058 C 
HETATM   14  C   UNL     1       7.378  21.624  55.536  1.00  0.00     0.046 C 
HETATM   15  C   UNL     1       9.820  21.755  55.062  1.00  0.00     0.046 C 
HETATM   16  O   UNL     1       8.282  22.491  53.416  1.00  0.00    -0.376 OA
HETATM   17  C   UNL     1       7.058  23.074  52.996  1.00  0.00     0.210 C 
ENDROOT
BRANCH   1  18
HETATM   18  C   UNL     1       7.362  29.064  57.713  1.00  0.00     0.302 C 
HETATM   19  O   UNL     1       6.535  29.839  58.181  1.00  0.00    -0.259 OA
BRANCH  18  20
HETATM   20  O   UNL     1       8.670  29.015  58.095  1.00  0.00    -0.317 OA
BRANCH  20  21
HETATM   21  C   UNL     1       9.506  30.083  57.618  1.00  0.00     0.174 C 
HETATM   22  C   UNL     1      10.758  29.521  56.971  1.00  0.00     0.034 C 
ENDBRANCH  20  21
ENDBRANCH  18  20
ENDBRANCH   1  18
BRANCH   5  23
HETATM   23  N   UNL     1       8.734  26.446  57.273  1.00  0.00    -0.397 N 
HETATM   24  H   UNL     1       8.997  26.882  58.152  1.00  0.00     0.156 HD
HETATM   25  H   UNL     1       9.098  25.487  57.210  1.00  0.00     0.156 HD
ENDBRANCH   5  23
TORSDOF 4
ENDMDL
MODEL 6
REMARK VINA RESULT:      -7.1      6.384      9.060
REMARK  4 active torsions:
REMARK  status: ('A' for Active; 'I' for Inactive)
REMARK    1  A    between atoms: C_2  and  O_3 
REMARK    2  A    between atoms: O_3  and  C_4 
REMARK    3  A    between atoms: C_4  and  C_5 
REMARK    4  A    between atoms: C_9  and  N_10 
ROOT
HETATM    1  C   UNL     1       8.439  31.651  59.203  1.00  0.00     0.109 A 
HETATM    2  S   UNL     1       6.926  31.628  58.397  1.00  0.00    -0.063 SA
HETATM    3  C   UNL     1       6.110  32.129  59.786  1.00  0.00     0.088 A 
HETATM    4  C   UNL     1       6.918  32.353  60.885  1.00  0.00     0.033 A 
HETATM    5  C   UNL     1       8.283  32.045  60.526  1.00  0.00     0.063 A 
HETATM    6  N   UNL     1       4.765  32.292  59.791  1.00  0.00    -0.353 N 
HETATM    7  H   UNL     1       4.268  32.098  58.923  1.00  0.00     0.166 HD
HETATM    8  C   UNL     1       4.122  32.683  60.895  1.00  0.00     0.015 A 
HETATM    9  C   UNL     1       2.632  32.821  60.806  1.00  0.00     0.069 C 
HETATM   10  C   UNL     1       4.853  32.934  62.068  1.00  0.00    -0.005 A 
HETATM   11  C   UNL     1       6.270  32.808  62.072  1.00  0.00    -0.030 A 
HETATM   12  C   UNL     1       7.024  33.109  63.355  1.00  0.00     0.077 C 
HETATM   13  C   UNL     1       6.212  33.902  64.394  1.00  0.00     0.058 C 
HETATM   14  C   UNL     1       6.143  35.401  64.060  1.00  0.00     0.046 C 
HETATM   15  C   UNL     1       6.862  33.744  65.775  1.00  0.00     0.046 C 
HETATM   16  O   UNL     1       4.911  33.315  64.501  1.00  0.00    -0.376 OA
HETATM   17  C   UNL     1       4.126  33.391  63.320  1.00  0.00     0.210 C 
ENDROOT
BRANCH   1  18
HETATM   18  C   UNL     1       9.676  31.272  58.531  1.00  0.00     0.302 C 
HETATM   19  O   UNL     1      10.643  32.013  58.392  1.00  0.00    -0.259 OA
BRANCH  18  20
HETATM   20  O   UNL     1       9.629  29.981  58.093  1.00  0.00    -0.317 OA
BRANCH  20  21
HETATM   21  C   UNL     1      10.648  29.597  57.154  1.00  0.00     0.174 C 
HETATM   22  C   UNL     1      10.090  29.604  55.743  1.00  0.00     0.034 C 
ENDBRANCH  20  21
ENDBRANCH  18  20
ENDBRANCH   1  18
BRANCH   5  23
HETATM   23  N   UNL     1       9.330  32.123  61.375  1.00  0.00    -0.397 N 
HETATM   24  H   UNL     1       9.587  31.401  62.042  1.00  0.00     0.156 HD
HETATM   25  H   UNL     1      10.123  32.746  61.178  1.00  0.00     0.156 HD
ENDBRANCH   5  23
TORSDOF 4
ENDMDL
MODEL 7
REMARK VINA RESULT:      -7.1      3.406      5.676
REMARK  4 active torsions:
REMARK  status: ('A' for Active; 'I' for Inactive)
REMARK    1  A    between atoms: C_2  and  O_3 
REMARK    2  A    between atoms: O_3  and  C_4 
REMARK    3  A    between atoms: C_4  and  C_5 
REMARK    4  A    between atoms: C_9  and  N_10 
ROOT
HETATM    1  C   UNL     1       5.239  26.848  51.554  1.00  0.00     0.109 A 
HETATM    2  S   UNL     1       5.178  25.175  51.924  1.00  0.00    -0.063 SA
HETATM    3  C   UNL     1       6.042  25.399  53.356  1.00  0.00     0.088 A 
HETATM    4  C   UNL     1       6.388  26.711  53.627  1.00  0.00     0.033 A 
HETATM    5  C   UNL     1       5.923  27.544  52.542  1.00  0.00     0.063 A 
HETATM    6  N   UNL     1       6.355  24.354  54.159  1.00  0.00    -0.353 N 
HETATM    7  H   UNL     1       6.050  23.429  53.861  1.00  0.00     0.166 HD
HETATM    8  C   UNL     1       7.046  24.535  55.289  1.00  0.00     0.015 A 
HETATM    9  C   UNL     1       7.357  23.316  56.103  1.00  0.00     0.069 C 
HETATM   10  C   UNL     1       7.448  25.831  55.653  1.00  0.00    -0.005 A 
HETATM   11  C   UNL     1       7.092  26.947  54.845  1.00  0.00    -0.030 A 
HETATM   12  C   UNL     1       7.529  28.333  55.284  1.00  0.00     0.077 C 
HETATM   13  C   UNL     1       7.960  28.421  56.759  1.00  0.00     0.058 C 
HETATM   14  C   UNL     1       6.758  28.475  57.716  1.00  0.00     0.046 C 
HETATM   15  C   UNL     1       8.800  29.688  56.968  1.00  0.00     0.046 C 
HETATM   16  O   UNL     1       8.827  27.320  57.048  1.00  0.00    -0.376 OA
HETATM   17  C   UNL     1       8.219  26.041  56.943  1.00  0.00     0.210 C 
ENDROOT
BRANCH   1  18
HETATM   18  C   UNL     1       4.650  27.389  50.335  1.00  0.00     0.302 C 
HETATM   19  O   UNL     1       4.256  28.543  50.210  1.00  0.00    -0.259 OA
BRANCH  18  20
HETATM   20  O   UNL     1       4.609  26.453  49.344  1.00  0.00    -0.317 OA
BRANCH  20  21
HETATM   21  C   UNL     1       3.464  26.505  48.475  1.00  0.00     0.174 C 
HETATM   22  C   UNL     1       3.094  25.109  48.011  1.00  0.00     0.034 C 
ENDBRANCH  20  21
ENDBRANCH  18  20
ENDBRANCH   1  18
BRANCH   5  23
HETATM   23  N   UNL     1       6.122  28.878  52.467  1.00  0.00    -0.397 N 
HETATM   24  H   UNL     1       5.942  29.443  51.643  1.00  0.00     0.156 HD
HETATM   25  H   UNL     1       6.143  29.455  53.317  1.00  0.00     0.156 HD
ENDBRANCH   5  23
TORSDOF 4
ENDMDL
MODEL 8
REMARK VINA RESULT:      -6.9      3.446      7.273
REMARK  4 active torsions:
REMARK  status: ('A' for Active; 'I' for Inactive)
REMARK    1  A    between atoms: C_2  and  O_3 
REMARK    2  A    between atoms: O_3  and  C_4 
REMARK    3  A    between atoms: C_4  and  C_5 
REMARK    4  A    between atoms: C_9  and  N_10 
ROOT
HETATM    1  C   UNL     1       6.511  31.176  58.184  1.00  0.00     0.109 A 
HETATM    2  S   UNL     1       5.598  31.563  56.786  1.00  0.00    -0.063 SA
HETATM    3  C   UNL     1       5.910  30.058  56.091  1.00  0.00     0.088 A 
HETATM    4  C   UNL     1       6.677  29.208  56.866  1.00  0.00     0.033 A 
HETATM    5  C   UNL     1       7.037  29.894  58.086  1.00  0.00     0.063 A 
HETATM    6  N   UNL     1       5.430  29.737  54.865  1.00  0.00    -0.353 N 
HETATM    7  H   UNL     1       4.876  30.441  54.381  1.00  0.00     0.166 HD
HETATM    8  C   UNL     1       5.686  28.545  54.315  1.00  0.00     0.015 A 
HETATM    9  C   UNL     1       5.125  28.288  52.949  1.00  0.00     0.069 C 
HETATM   10  C   UNL     1       6.460  27.610  55.022  1.00  0.00    -0.005 A 
HETATM   11  C   UNL     1       6.937  27.913  56.327  1.00  0.00    -0.030 A 
HETATM   12  C   UNL     1       7.753  26.866  57.065  1.00  0.00     0.077 C 
HETATM   13  C   UNL     1       7.632  25.446  56.484  1.00  0.00     0.058 C 
HETATM   14  C   UNL     1       6.326  24.753  56.904  1.00  0.00     0.046 C 
HETATM   15  C   UNL     1       8.810  24.595  56.976  1.00  0.00     0.046 C 
HETATM   16  O   UNL     1       7.767  25.523  55.061  1.00  0.00    -0.376 OA
HETATM   17  C   UNL     1       6.739  26.251  54.406  1.00  0.00     0.210 C 
ENDROOT
BRANCH   1  18
HETATM   18  C   UNL     1       6.687  32.124  59.277  1.00  0.00     0.302 C 
HETATM   19  O   UNL     1       5.771  32.575  59.955  1.00  0.00    -0.259 OA
BRANCH  18  20
HETATM   20  O   UNL     1       8.003  32.433  59.461  1.00  0.00    -0.317 OA
BRANCH  20  21
HETATM   21  C   UNL     1       8.413  32.656  60.821  1.00  0.00     0.174 C 
HETATM   22  C   UNL     1       9.555  31.727  61.185  1.00  0.00     0.034 C 
ENDBRANCH  20  21
ENDBRANCH  18  20
ENDBRANCH   1  18
BRANCH   5  23
HETATM   23  N   UNL     1       7.813  29.365  59.056  1.00  0.00    -0.397 N 
HETATM   24  H   UNL     1       7.966  29.787  59.967  1.00  0.00     0.156 HD
HETATM   25  H   UNL     1       8.022  28.359  59.072  1.00  0.00     0.156 HD
ENDBRANCH   5  23
TORSDOF 4
ENDMDL
MODEL 9
REMARK VINA RESULT:      -6.9      8.675     12.338
REMARK  4 active torsions:
REMARK  status: ('A' for Active; 'I' for Inactive)
REMARK    1  A    between atoms: C_2  and  O_3 
REMARK    2  A    between atoms: O_3  and  C_4 
REMARK    3  A    between atoms: C_4  and  C_5 
REMARK    4  A    between atoms: C_9  and  N_10 
ROOT
HETATM    1  C   UNL     1       5.242  33.807  65.241  1.00  0.00     0.109 A 
HETATM    2  S   UNL     1       6.949  33.663  65.314  1.00  0.00    -0.063 SA
HETATM    3  C   UNL     1       7.028  33.081  63.732  1.00  0.00     0.088 A 
HETATM    4  C   UNL     1       5.809  32.990  63.085  1.00  0.00     0.033 A 
HETATM    5  C   UNL     1       4.769  33.403  63.998  1.00  0.00     0.063 A 
HETATM    6  N   UNL     1       8.211  32.738  63.168  1.00  0.00    -0.353 N 
HETATM    7  H   UNL     1       9.048  32.844  63.737  1.00  0.00     0.166 HD
HETATM    8  C   UNL     1       8.268  32.270  61.917  1.00  0.00     0.015 A 
HETATM    9  C   UNL     1       9.620  31.904  61.385  1.00  0.00     0.069 C 
HETATM   10  C   UNL     1       7.083  32.138  61.174  1.00  0.00    -0.005 A 
HETATM   11  C   UNL     1       5.836  32.531  61.734  1.00  0.00    -0.030 A 
HETATM   12  C   UNL     1       4.582  32.391  60.890  1.00  0.00     0.077 C 
HETATM   13  C   UNL     1       4.850  32.216  59.385  1.00  0.00     0.058 C 
HETATM   14  C   UNL     1       5.189  33.547  58.695  1.00  0.00     0.046 C 
HETATM   15  C   UNL     1       3.603  31.627  58.712  1.00  0.00     0.046 C 
HETATM   16  O   UNL     1       5.886  31.244  59.216  1.00  0.00    -0.376 OA
HETATM   17  C   UNL     1       7.147  31.620  59.748  1.00  0.00     0.210 C 
ENDROOT
BRANCH   1  18
HETATM   18  C   UNL     1       4.459  34.274  66.378  1.00  0.00     0.302 C 
HETATM   19  O   UNL     1       3.448  34.962  66.286  1.00  0.00    -0.259 OA
BRANCH  18  20
HETATM   20  O   UNL     1       4.983  33.834  67.558  1.00  0.00    -0.317 OA
BRANCH  20  21
HETATM   21  C   UNL     1       5.493  34.850  68.438  1.00  0.00     0.174 C 
HETATM   22  C   UNL     1       6.766  34.371  69.110  1.00  0.00     0.034 C 
ENDBRANCH  20  21
ENDBRANCH  18  20
ENDBRANCH   1  18
BRANCH   5  23
HETATM   23  N   UNL     1       3.452  33.405  63.702  1.00  0.00    -0.397 N 
HETATM   24  H   UNL     1       2.785  32.714  64.031  1.00  0.00     0.156 HD
HETATM   25  H   UNL     1       2.979  34.271  63.413  1.00  0.00     0.156 HD
ENDBRANCH   5  23
TORSDOF 4
ENDMDL
MODEL 10
REMARK VINA RESULT:      -6.9      3.863      7.006
REMARK  4 active torsions:
REMARK  status: ('A' for Active; 'I' for Inactive)
REMARK    1  A    between atoms: C_2  and  O_3 
REMARK    2  A    between atoms: O_3  and  C_4 
REMARK    3  A    between atoms: C_4  and  C_5 
REMARK    4  A    between atoms: C_9  and  N_10 
ROOT
HETATM    1  C   UNL     1       6.977  29.806  57.113  1.00  0.00     0.109 A 
HETATM    2  S   UNL     1       5.545  30.608  56.615  1.00  0.00    -0.063 SA
HETATM    3  C   UNL     1       5.392  29.620  55.256  1.00  0.00     0.088 A 
HETATM    4  C   UNL     1       6.371  28.652  55.129  1.00  0.00     0.033 A 
HETATM    5  C   UNL     1       7.306  28.793  56.221  1.00  0.00     0.063 A 
HETATM    6  N   UNL     1       4.374  29.786  54.378  1.00  0.00    -0.353 N 
HETATM    7  H   UNL     1       3.708  30.533  54.570  1.00  0.00     0.166 HD
HETATM    8  C   UNL     1       4.260  29.005  53.299  1.00  0.00     0.015 A 
HETATM    9  C   UNL     1       3.110  29.276  52.377  1.00  0.00     0.069 C 
HETATM   10  C   UNL     1       5.207  27.992  53.076  1.00  0.00    -0.005 A 
HETATM   11  C   UNL     1       6.259  27.774  54.009  1.00  0.00    -0.030 A 
HETATM   12  C   UNL     1       7.250  26.656  53.741  1.00  0.00     0.077 C 
HETATM   13  C   UNL     1       6.774  25.626  52.702  1.00  0.00     0.058 C 
HETATM   14  C   UNL     1       5.770  24.622  53.292  1.00  0.00     0.046 C 
HETATM   15  C   UNL     1       7.983  24.844  52.171  1.00  0.00     0.046 C 
HETATM   16  O   UNL     1       6.233  26.328  51.578  1.00  0.00    -0.376 OA
HETATM   17  C   UNL     1       5.072  27.095  51.859  1.00  0.00     0.210 C 
ENDROOT
BRANCH   1  18
HETATM   18  C   UNL     1       7.708  30.206  58.309  1.00  0.00     0.302 C 
HETATM   19  O   UNL     1       8.302  29.430  59.048  1.00  0.00    -0.259 OA
BRANCH  18  20
HETATM   20  O   UNL     1       7.663  31.557  58.491  1.00  0.00    -0.317 OA
BRANCH  20  21
HETATM   21  C   UNL     1       7.441  32.004  59.840  1.00  0.00     0.174 C 
HETATM   22  C   UNL     1       8.745  32.473  60.458  1.00  0.00     0.034 C 
ENDBRANCH  20  21
ENDBRANCH  18  20
ENDBRANCH   1  18
BRANCH   5  23
HETATM   23  N   UNL     1       8.406  28.028  56.385  1.00  0.00    -0.397 N 
HETATM   24  H   UNL     1       8.595  27.456  57.204  1.00  0.00     0.156 HD
HETATM   25  H   UNL     1       8.950  27.708  55.575  1.00  0.00     0.156 HD
ENDBRANCH   5  23
TORSDOF 4
ENDMDL
