MODEL 1
REMARK VINA RESULT:      -9.4      0.000      0.000
REMARK  5 active torsions:
REMARK  status: ('A' for Active; 'I' for Inactive)
REMARK    1  A    between atoms: C_2  and  C_3 
REMARK    2  A    between atoms: C_8  and  C_9 
REMARK       I    between atoms: C_9  and  N_10 
REMARK    3  A    between atoms: N_10  and  C_11 
REMARK    4  A    between atoms: C_11  and  C_12 
REMARK    5  A    between atoms: C_19  and  C_20 
ROOT
HETATM    1  C   UNL     1       5.181  26.118  54.896  1.00  0.00     0.118 C 
HETATM    2  N   UNL     1       4.827  26.871  56.093  1.00  0.00    -0.366 N 
HETATM    3  C   UNL     1       5.260  28.127  56.323  1.00  0.00     0.123 A 
HETATM    4  N   UNL     1       6.064  28.787  55.438  1.00  0.00    -0.240 N 
HETATM    5  N   UNL     1       6.340  30.055  55.789  1.00  0.00    -0.165 NA
HETATM    6  C   UNL     1       5.738  30.189  56.992  1.00  0.00     0.148 A 
HETATM    7  C   UNL     1       5.049  28.999  57.357  1.00  0.00     0.088 A 
HETATM    8  C   UNL     1       6.527  28.222  54.186  1.00  0.00     0.221 C 
HETATM    9  C   UNL     1       5.612  27.061  53.756  1.00  0.00     0.066 C 
HETATM   10  H   UNL     1       4.267  26.371  56.783  1.00  0.00     0.161 HD
ENDROOT
BRANCH   6  11
HETATM   11  C   UNL     1       5.798  31.434  57.773  1.00  0.00     0.272 C 
HETATM   12  N   UNL     1       6.155  31.247  59.089  1.00  0.00    -0.353 N 
HETATM   13  H   UNL     1       6.472  30.310  59.332  1.00  0.00     0.162 HD
HETATM   14  O   UNL     1       5.561  32.535  57.284  1.00  0.00    -0.266 OA
BRANCH  12  15
HETATM   15  C   UNL     1       6.501  32.351  59.959  1.00  0.00     0.155 C 
BRANCH  15  16
HETATM   16  C   UNL     1       7.795  32.082  60.724  1.00  0.00     0.139 C 
HETATM   17  O   UNL     1       7.525  31.916  62.132  1.00  0.00    -0.384 OA
HETATM   18  C   UNL     1       8.368  30.866  62.633  1.00  0.00     0.168 C 
HETATM   19  C   UNL     1       9.304  30.469  61.509  1.00  0.00     0.029 C 
HETATM   20  C   UNL     1       8.490  30.804  60.285  1.00  0.00     0.035 C 
ENDBRANCH  15  16
ENDBRANCH  12  15
ENDBRANCH   6  11
BRANCH   8  21
HETATM   21  C   UNL     1       7.988  27.846  54.291  1.00  0.00     0.409 C 
HETATM   22  F   UNL     1       8.832  28.866  54.049  1.00  0.00    -0.169 F 
HETATM   23  F   UNL     1       8.262  27.394  55.542  1.00  0.00    -0.169 F 
HETATM   24  F   UNL     1       8.315  26.842  53.447  1.00  0.00    -0.169 F 
ENDBRANCH   8  21
BRANCH   1  25
HETATM   25  C   UNL     1       6.143  24.978  55.190  1.00  0.00    -0.034 A 
HETATM   26  C   UNL     1       6.660  24.722  56.470  1.00  0.00     0.011 A 
HETATM   27  C   UNL     1       7.528  23.651  56.697  1.00  0.00     0.026 A 
HETATM   28  C   UNL     1       7.890  22.802  55.651  1.00  0.00     0.055 A 
HETATM   29  C   UNL     1       7.380  23.032  54.372  1.00  0.00     0.056 A 
HETATM   30 CL   UNL     1       8.960  21.494  56.005  1.00  0.00    -0.083 Cl
HETATM   31  C   UNL     1       6.516  24.110  54.146  1.00  0.00     0.034 A 
HETATM   32 CL   UNL     1       7.765  22.020  53.024  1.00  0.00    -0.083 Cl
ENDBRANCH   1  25
TORSDOF 5
ENDMDL
MODEL 2
REMARK VINA RESULT:      -9.3      2.066      2.794
REMARK  5 active torsions:
REMARK  status: ('A' for Active; 'I' for Inactive)
REMARK    1  A    between atoms: C_2  and  C_3 
REMARK    2  A    between atoms: C_8  and  C_9 
REMARK       I    between atoms: C_9  and  N_10 
REMARK    3  A    between atoms: N_10  and  C_11 
REMARK    4  A    between atoms: C_11  and  C_12 
REMARK    5  A    between atoms: C_19  and  C_20 
ROOT
HETATM    1  C   UNL     1       6.303  24.913  56.096  1.00  0.00     0.118 C 
HETATM    2  N   UNL     1       7.298  25.560  56.940  1.00  0.00    -0.366 N 
HETATM    3  C   UNL     1       7.739  26.816  56.723  1.00  0.00     0.123 A 
HETATM    4  N   UNL     1       7.273  27.575  55.687  1.00  0.00    -0.240 N 
HETATM    5  N   UNL     1       7.763  28.826  55.661  1.00  0.00    -0.165 NA
HETATM    6  C   UNL     1       8.638  28.845  56.692  1.00  0.00     0.148 A 
HETATM    7  C   UNL     1       8.646  27.601  57.382  1.00  0.00     0.088 A 
HETATM    8  C   UNL     1       6.278  27.124  54.734  1.00  0.00     0.221 C 
HETATM    9  C   UNL     1       5.469  25.954  55.324  1.00  0.00     0.066 C 
HETATM   10  H   UNL     1       7.689  24.986  57.687  1.00  0.00     0.161 HD
ENDROOT
BRANCH   6  11
HETATM   11  C   UNL     1       9.437  30.033  57.031  1.00  0.00     0.272 C 
HETATM   12  N   UNL     1       9.086  30.615  58.228  1.00  0.00    -0.353 N 
HETATM   13  H   UNL     1       8.429  30.087  58.800  1.00  0.00     0.162 HD
HETATM   14  O   UNL     1      10.339  30.452  56.311  1.00  0.00    -0.266 OA
BRANCH  12  15
HETATM   15  C   UNL     1       9.895  31.638  58.855  1.00  0.00     0.155 C 
BRANCH  15  16
HETATM   16  C   UNL     1       9.181  32.268  60.049  1.00  0.00     0.139 C 
HETATM   17  O   UNL     1       7.770  31.969  60.011  1.00  0.00    -0.384 OA
HETATM   18  C   UNL     1       7.326  31.711  61.353  1.00  0.00     0.168 C 
HETATM   19  C   UNL     1       8.491  32.008  62.274  1.00  0.00     0.029 C 
HETATM   20  C   UNL     1       9.678  31.737  61.383  1.00  0.00     0.035 C 
ENDBRANCH  15  16
ENDBRANCH  12  15
ENDBRANCH   6  11
BRANCH   8  21
HETATM   21  C   UNL     1       6.931  26.811  53.407  1.00  0.00     0.409 C 
HETATM   22  F   UNL     1       6.205  25.994  52.622  1.00  0.00    -0.169 F 
HETATM   23  F   UNL     1       7.132  27.958  52.707  1.00  0.00    -0.169 F 
HETATM   24  F   UNL     1       8.150  26.246  53.561  1.00  0.00    -0.169 F 
ENDBRANCH   8  21
BRANCH   1  25
HETATM   25  C   UNL     1       6.897  23.802  55.244  1.00  0.00    -0.034 A 
HETATM   26  C   UNL     1       6.695  23.707  53.858  1.00  0.00     0.011 A 
HETATM   27  C   UNL     1       7.277  22.677  53.113  1.00  0.00     0.026 A 
HETATM   28  C   UNL     1       8.085  21.725  53.735  1.00  0.00     0.055 A 
HETATM   29  C   UNL     1       8.308  21.807  55.111  1.00  0.00     0.056 A 
HETATM   30 CL   UNL     1       8.777  20.487  52.751  1.00  0.00    -0.083 Cl
HETATM   31  C   UNL     1       7.718  22.835  55.856  1.00  0.00     0.034 A 
HETATM   32 CL   UNL     1       9.307  20.678  55.957  1.00  0.00    -0.083 Cl
ENDBRANCH   1  25
TORSDOF 5
ENDMDL
MODEL 3
REMARK VINA RESULT:      -8.7      1.764      2.270
REMARK  5 active torsions:
REMARK  status: ('A' for Active; 'I' for Inactive)
REMARK    1  A    between atoms: C_2  and  C_3 
REMARK    2  A    between atoms: C_8  and  C_9 
REMARK       I    between atoms: C_9  and  N_10 
REMARK    3  A    between atoms: N_10  and  C_11 
REMARK    4  A    between atoms: C_11  and  C_12 
REMARK    5  A    between atoms: C_19  and  C_20 
ROOT
HETATM    1  C   UNL     1       6.469  27.776  54.566  1.00  0.00     0.118 C 
HETATM    2  N   UNL     1       5.291  28.308  55.239  1.00  0.00    -0.366 N 
HETATM    3  C   UNL     1       5.363  29.207  56.242  1.00  0.00     0.123 A 
HETATM    4  N   UNL     1       6.559  29.687  56.696  1.00  0.00    -0.240 N 
HETATM    5  N   UNL     1       6.444  30.629  57.648  1.00  0.00    -0.165 NA
HETATM    6  C   UNL     1       5.111  30.705  57.860  1.00  0.00     0.148 A 
HETATM    7  C   UNL     1       4.402  29.828  56.993  1.00  0.00     0.088 A 
HETATM    8  C   UNL     1       7.846  29.292  56.163  1.00  0.00     0.221 C 
HETATM    9  C   UNL     1       7.680  28.712  54.746  1.00  0.00     0.066 C 
HETATM   10  H   UNL     1       4.396  27.921  54.941  1.00  0.00     0.161 HD
ENDROOT
BRANCH   6  11
HETATM   11  C   UNL     1       4.518  31.612  58.855  1.00  0.00     0.272 C 
HETATM   12  N   UNL     1       5.308  31.811  59.965  1.00  0.00    -0.353 N 
HETATM   13  H   UNL     1       6.252  31.433  59.908  1.00  0.00     0.162 HD
HETATM   14  O   UNL     1       3.424  32.147  58.696  1.00  0.00    -0.266 OA
BRANCH  12  15
HETATM   15  C   UNL     1       5.022  32.841  60.941  1.00  0.00     0.155 C 
BRANCH  15  16
HETATM   16  C   UNL     1       5.729  32.573  62.267  1.00  0.00     0.139 C 
HETATM   17  O   UNL     1       6.736  31.551  62.107  1.00  0.00    -0.384 OA
HETATM   18  C   UNL     1       7.881  31.917  62.894  1.00  0.00     0.168 C 
HETATM   19  C   UNL     1       7.501  33.148  63.691  1.00  0.00     0.029 C 
HETATM   20  C   UNL     1       6.461  33.790  62.806  1.00  0.00     0.035 C 
ENDBRANCH  15  16
ENDBRANCH  12  15
ENDBRANCH   6  11
BRANCH   8  21
HETATM   21  C   UNL     1       8.549  28.364  57.127  1.00  0.00     0.409 C 
HETATM   22  F   UNL     1       9.168  27.327  56.532  1.00  0.00    -0.169 F 
HETATM   23  F   UNL     1       9.497  29.046  57.820  1.00  0.00    -0.169 F 
HETATM   24  F   UNL     1       7.702  27.854  58.049  1.00  0.00    -0.169 F 
ENDBRANCH   8  21
BRANCH   1  25
HETATM   25  C   UNL     1       6.725  26.317  54.910  1.00  0.00    -0.034 A 
HETATM   26  C   UNL     1       6.327  25.735  56.124  1.00  0.00     0.011 A 
HETATM   27  C   UNL     1       6.567  24.383  56.389  1.00  0.00     0.026 A 
HETATM   28  C   UNL     1       7.199  23.579  55.441  1.00  0.00     0.055 A 
HETATM   29  C   UNL     1       7.593  24.135  54.222  1.00  0.00     0.056 A 
HETATM   30 CL   UNL     1       7.456  21.918  55.832  1.00  0.00    -0.083 Cl
HETATM   31  C   UNL     1       7.358  25.491  53.962  1.00  0.00     0.034 A 
HETATM   32 CL   UNL     1       8.367  23.207  52.986  1.00  0.00    -0.083 Cl
ENDBRANCH   1  25
TORSDOF 5
ENDMDL
MODEL 4
REMARK VINA RESULT:      -8.7      1.250      1.837
REMARK  5 active torsions:
REMARK  status: ('A' for Active; 'I' for Inactive)
REMARK    1  A    between atoms: C_2  and  C_3 
REMARK    2  A    between atoms: C_8  and  C_9 
REMARK       I    between atoms: C_9  and  N_10 
REMARK    3  A    between atoms: N_10  and  C_11 
REMARK    4  A    between atoms: C_11  and  C_12 
REMARK    5  A    between atoms: C_19  and  C_20 
ROOT
HETATM    1  C   UNL     1       5.215  26.046  55.080  1.00  0.00     0.118 C 
HETATM    2  N   UNL     1       4.952  26.792  56.304  1.00  0.00    -0.366 N 
HETATM    3  C   UNL     1       5.395  28.050  56.504  1.00  0.00     0.123 A 
HETATM    4  N   UNL     1       6.123  28.718  55.561  1.00  0.00    -0.240 N 
HETATM    5  N   UNL     1       6.418  29.986  55.894  1.00  0.00    -0.165 NA
HETATM    6  C   UNL     1       5.912  30.112  57.142  1.00  0.00     0.148 A 
HETATM    7  C   UNL     1       5.260  28.917  57.555  1.00  0.00     0.088 A 
HETATM    8  C   UNL     1       6.489  28.160  54.275  1.00  0.00     0.221 C 
HETATM    9  C   UNL     1       5.549  26.995  53.913  1.00  0.00     0.066 C 
HETATM   10  H   UNL     1       4.451  26.286  57.034  1.00  0.00     0.161 HD
ENDROOT
BRANCH   6  11
HETATM   11  C   UNL     1       6.026  31.355  57.921  1.00  0.00     0.272 C 
HETATM   12  N   UNL     1       6.303  31.151  59.254  1.00  0.00    -0.353 N 
HETATM   13  H   UNL     1       6.536  30.195  59.515  1.00  0.00     0.162 HD
HETATM   14  O   UNL     1       5.896  32.467  57.417  1.00  0.00    -0.266 OA
BRANCH  12  15
HETATM   15  C   UNL     1       6.687  32.232  60.136  1.00  0.00     0.155 C 
BRANCH  15  16
HETATM   16  C   UNL     1       5.475  33.030  60.611  1.00  0.00     0.139 C 
HETATM   17  O   UNL     1       4.355  32.153  60.852  1.00  0.00    -0.384 OA
HETATM   18  C   UNL     1       3.667  32.610  62.028  1.00  0.00     0.168 C 
HETATM   19  C   UNL     1       4.312  33.916  62.443  1.00  0.00     0.029 C 
HETATM   20  C   UNL     1       5.719  33.755  61.923  1.00  0.00     0.035 C 
ENDBRANCH  15  16
ENDBRANCH  12  15
ENDBRANCH   6  11
BRANCH   8  21
HETATM   21  C   UNL     1       7.955  27.793  54.263  1.00  0.00     0.409 C 
HETATM   22  F   UNL     1       8.776  28.835  54.035  1.00  0.00    -0.169 F 
HETATM   23  F   UNL     1       8.311  27.263  55.462  1.00  0.00    -0.169 F 
HETATM   24  F   UNL     1       8.234  26.848  53.337  1.00  0.00    -0.169 F 
ENDBRANCH   8  21
BRANCH   1  25
HETATM   25  C   UNL     1       6.204  24.910  55.293  1.00  0.00    -0.034 A 
HETATM   26  C   UNL     1       6.766  24.609  56.543  1.00  0.00     0.011 A 
HETATM   27  C   UNL     1       7.658  23.543  56.695  1.00  0.00     0.026 A 
HETATM   28  C   UNL     1       7.998  22.746  55.602  1.00  0.00     0.055 A 
HETATM   29  C   UNL     1       7.442  23.022  54.351  1.00  0.00     0.056 A 
HETATM   30 CL   UNL     1       9.099  21.442  55.864  1.00  0.00    -0.083 Cl
HETATM   31  C   UNL     1       6.554  24.094  54.201  1.00  0.00     0.034 A 
HETATM   32 CL   UNL     1       7.798  22.075  52.949  1.00  0.00    -0.083 Cl
ENDBRANCH   1  25
TORSDOF 5
ENDMDL
MODEL 5
REMARK VINA RESULT:      -8.5      4.444      7.532
REMARK  5 active torsions:
REMARK  status: ('A' for Active; 'I' for Inactive)
REMARK    1  A    between atoms: C_2  and  C_3 
REMARK    2  A    between atoms: C_8  and  C_9 
REMARK       I    between atoms: C_9  and  N_10 
REMARK    3  A    between atoms: N_10  and  C_11 
REMARK    4  A    between atoms: C_11  and  C_12 
REMARK    5  A    between atoms: C_19  and  C_20 
ROOT
HETATM    1  C   UNL     1       8.297  25.769  55.046  1.00  0.00     0.118 C 
HETATM    2  N   UNL     1       7.748  26.115  53.742  1.00  0.00    -0.366 N 
HETATM    3  C   UNL     1       6.567  26.748  53.589  1.00  0.00     0.123 A 
HETATM    4  N   UNL     1       5.801  27.115  54.659  1.00  0.00    -0.240 N 
HETATM    5  N   UNL     1       4.693  27.801  54.330  1.00  0.00    -0.165 NA
HETATM    6  C   UNL     1       4.717  27.813  52.978  1.00  0.00     0.148 A 
HETATM    7  C   UNL     1       5.881  27.164  52.480  1.00  0.00     0.088 A 
HETATM    8  C   UNL     1       6.166  26.869  56.040  1.00  0.00     0.221 C 
HETATM    9  C   UNL     1       7.685  26.644  56.156  1.00  0.00     0.066 C 
HETATM   10  H   UNL     1       8.287  25.804  52.934  1.00  0.00     0.161 HD
ENDROOT
BRANCH   6  11
HETATM   11  C   UNL     1       3.664  28.451  52.173  1.00  0.00     0.272 C 
HETATM   12  N   UNL     1       3.770  28.201  50.823  1.00  0.00    -0.353 N 
HETATM   13  H   UNL     1       4.461  27.502  50.557  1.00  0.00     0.162 HD
HETATM   14  O   UNL     1       2.771  29.132  52.669  1.00  0.00    -0.266 OA
BRANCH  12  15
HETATM   15  C   UNL     1       2.712  28.532  49.892  1.00  0.00     0.155 C 
BRANCH  15  16
HETATM   16  C   UNL     1       2.920  27.855  48.540  1.00  0.00     0.139 C 
HETATM   17  O   UNL     1       3.889  26.792  48.649  1.00  0.00    -0.384 OA
HETATM   18  C   UNL     1       3.450  25.694  47.832  1.00  0.00     0.168 C 
HETATM   19  C   UNL     1       2.227  26.164  47.072  1.00  0.00     0.029 C 
HETATM   20  C   UNL     1       1.656  27.206  48.001  1.00  0.00     0.035 C 
ENDBRANCH  15  16
ENDBRANCH  12  15
ENDBRANCH   6  11
BRANCH   8  21
HETATM   21  C   UNL     1       5.333  25.743  56.608  1.00  0.00     0.409 C 
HETATM   22  F   UNL     1       5.038  24.779  55.716  1.00  0.00    -0.169 F 
HETATM   23  F   UNL     1       5.997  25.145  57.631  1.00  0.00    -0.169 F 
HETATM   24  F   UNL     1       4.165  26.187  57.124  1.00  0.00    -0.169 F 
ENDBRANCH   8  21
BRANCH   1  25
HETATM   25  C   UNL     1       8.264  24.272  55.311  1.00  0.00    -0.034 A 
HETATM   26  C   UNL     1       8.416  23.717  56.592  1.00  0.00     0.011 A 
HETATM   27  C   UNL     1       8.360  22.334  56.791  1.00  0.00     0.026 A 
HETATM   28  C   UNL     1       8.138  21.475  55.715  1.00  0.00     0.055 A 
HETATM   29  C   UNL     1       7.973  22.006  54.434  1.00  0.00     0.056 A 
HETATM   30 CL   UNL     1       8.073  19.780  56.035  1.00  0.00    -0.083 Cl
HETATM   31  C   UNL     1       8.037  23.391  54.237  1.00  0.00     0.034 A 
HETATM   32 CL   UNL     1       7.679  21.013  53.049  1.00  0.00    -0.083 Cl
ENDBRANCH   1  25
TORSDOF 5
ENDMDL
MODEL 6
REMARK VINA RESULT:      -8.5      5.164      8.152
REMARK  5 active torsions:
REMARK  status: ('A' for Active; 'I' for Inactive)
REMARK    1  A    between atoms: C_2  and  C_3 
REMARK    2  A    between atoms: C_8  and  C_9 
REMARK       I    between atoms: C_9  and  N_10 
REMARK    3  A    between atoms: N_10  and  C_11 
REMARK    4  A    between atoms: C_11  and  C_12 
REMARK    5  A    between atoms: C_19  and  C_20 
ROOT
HETATM    1  C   UNL     1       7.988  25.597  52.713  1.00  0.00     0.118 C 
HETATM    2  N   UNL     1       7.114  25.641  51.548  1.00  0.00    -0.366 N 
HETATM    3  C   UNL     1       6.008  26.411  51.489  1.00  0.00     0.123 A 
HETATM    4  N   UNL     1       5.632  27.214  52.528  1.00  0.00    -0.240 N 
HETATM    5  N   UNL     1       4.549  27.968  52.273  1.00  0.00    -0.165 NA
HETATM    6  C   UNL     1       4.175  27.576  51.034  1.00  0.00     0.148 A 
HETATM    7  C   UNL     1       5.070  26.601  50.511  1.00  0.00     0.088 A 
HETATM    8  C   UNL     1       6.363  27.323  53.774  1.00  0.00     0.221 C 
HETATM    9  C   UNL     1       7.819  26.860  53.579  1.00  0.00     0.066 C 
HETATM   10  H   UNL     1       7.358  25.009  50.785  1.00  0.00     0.161 HD
ENDROOT
BRANCH   6  11
HETATM   11  C   UNL     1       2.998  28.134  50.349  1.00  0.00     0.272 C 
HETATM   12  N   UNL     1       2.678  27.483  49.178  1.00  0.00    -0.353 N 
HETATM   13  H   UNL     1       3.189  26.621  48.998  1.00  0.00     0.162 HD
HETATM   14  O   UNL     1       2.360  29.083  50.794  1.00  0.00    -0.266 OA
BRANCH  12  15
HETATM   15  C   UNL     1       1.431  27.718  48.482  1.00  0.00     0.155 C 
BRANCH  15  16
HETATM   16  C   UNL     1       1.587  28.769  47.386  1.00  0.00     0.139 C 
HETATM   17  O   UNL     1       1.052  30.037  47.820  1.00  0.00    -0.384 OA
HETATM   18  C   UNL     1       1.915  31.080  47.341  1.00  0.00     0.168 C 
HETATM   19  C   UNL     1       2.949  30.429  46.446  1.00  0.00     0.029 C 
HETATM   20  C   UNL     1       3.037  29.038  47.022  1.00  0.00     0.035 C 
ENDBRANCH  15  16
ENDBRANCH  12  15
ENDBRANCH   6  11
BRANCH   8  21
HETATM   21  C   UNL     1       5.629  26.592  54.876  1.00  0.00     0.409 C 
HETATM   22  F   UNL     1       5.114  25.408  54.495  1.00  0.00    -0.169 F 
HETATM   23  F   UNL     1       6.473  26.343  55.910  1.00  0.00    -0.169 F 
HETATM   24  F   UNL     1       4.616  27.329  55.386  1.00  0.00    -0.169 F 
ENDBRANCH   8  21
BRANCH   1  25
HETATM   25  C   UNL     1       7.888  24.280  53.466  1.00  0.00    -0.034 A 
HETATM   26  C   UNL     1       7.585  23.061  52.839  1.00  0.00     0.011 A 
HETATM   27  C   UNL     1       7.521  21.870  53.569  1.00  0.00     0.026 A 
HETATM   28  C   UNL     1       7.772  21.869  54.941  1.00  0.00     0.055 A 
HETATM   29  C   UNL     1       8.085  23.069  55.583  1.00  0.00     0.056 A 
HETATM   30 CL   UNL     1       7.684  20.361  55.777  1.00  0.00    -0.083 Cl
HETATM   31  C   UNL     1       8.141  24.261  54.850  1.00  0.00     0.034 A 
HETATM   32 CL   UNL     1       8.424  23.154  57.276  1.00  0.00    -0.083 Cl
ENDBRANCH   1  25
TORSDOF 5
ENDMDL
MODEL 7
REMARK VINA RESULT:      -8.4      7.219      9.885
REMARK  5 active torsions:
REMARK  status: ('A' for Active; 'I' for Inactive)
REMARK    1  A    between atoms: C_2  and  C_3 
REMARK    2  A    between atoms: C_8  and  C_9 
REMARK       I    between atoms: C_9  and  N_10 
REMARK    3  A    between atoms: N_10  and  C_11 
REMARK    4  A    between atoms: C_11  and  C_12 
REMARK    5  A    between atoms: C_19  and  C_20 
ROOT
HETATM    1  C   UNL     1       4.880  29.218  48.183  1.00  0.00     0.118 C 
HETATM    2  N   UNL     1       5.099  29.094  49.618  1.00  0.00    -0.366 N 
HETATM    3  C   UNL     1       5.082  27.909  50.262  1.00  0.00     0.123 A 
HETATM    4  N   UNL     1       4.860  26.733  49.604  1.00  0.00    -0.240 N 
HETATM    5  N   UNL     1       4.951  25.643  50.385  1.00  0.00    -0.165 NA
HETATM    6  C   UNL     1       5.173  26.154  51.617  1.00  0.00     0.148 A 
HETATM    7  C   UNL     1       5.264  27.573  51.577  1.00  0.00     0.088 A 
HETATM    8  C   UNL     1       4.626  26.634  48.178  1.00  0.00     0.221 C 
HETATM    9  C   UNL     1       5.164  27.887  47.462  1.00  0.00     0.066 C 
HETATM   10  H   UNL     1       5.217  29.970  50.128  1.00  0.00     0.161 HD
ENDROOT
BRANCH   6  11
HETATM   11  C   UNL     1       5.320  25.306  52.811  1.00  0.00     0.272 C 
HETATM   12  N   UNL     1       6.629  25.094  53.183  1.00  0.00    -0.353 N 
HETATM   13  H   UNL     1       7.324  25.652  52.691  1.00  0.00     0.162 HD
HETATM   14  O   UNL     1       4.358  24.845  53.419  1.00  0.00    -0.266 OA
BRANCH  12  15
HETATM   15  C   UNL     1       6.982  24.495  54.452  1.00  0.00     0.155 C 
BRANCH  15  16
HETATM   16  C   UNL     1       7.938  23.317  54.273  1.00  0.00     0.139 C 
HETATM   17  O   UNL     1       7.674  22.296  55.258  1.00  0.00    -0.384 OA
HETATM   18  C   UNL     1       7.812  21.013  54.627  1.00  0.00     0.168 C 
HETATM   19  C   UNL     1       8.329  21.258  53.224  1.00  0.00     0.029 C 
HETATM   20  C   UNL     1       7.791  22.634  52.923  1.00  0.00     0.035 C 
ENDBRANCH  15  16
ENDBRANCH  12  15
ENDBRANCH   6  11
BRANCH   8  21
HETATM   21  C   UNL     1       3.165  26.352  47.907  1.00  0.00     0.409 C 
HETATM   22  F   UNL     1       2.326  26.945  48.776  1.00  0.00    -0.169 F 
HETATM   23  F   UNL     1       2.830  26.794  46.667  1.00  0.00    -0.169 F 
HETATM   24  F   UNL     1       2.893  25.028  47.921  1.00  0.00    -0.169 F 
ENDBRANCH   8  21
BRANCH   1  25
HETATM   25  C   UNL     1       3.541  29.858  47.853  1.00  0.00    -0.034 A 
HETATM   26  C   UNL     1       3.120  30.120  46.539  1.00  0.00     0.011 A 
HETATM   27  C   UNL     1       1.871  30.695  46.282  1.00  0.00     0.026 A 
HETATM   28  C   UNL     1       1.009  31.008  47.333  1.00  0.00     0.055 A 
HETATM   29  C   UNL     1       1.403  30.746  48.647  1.00  0.00     0.056 A 
HETATM   30 CL   UNL     1      -0.520  31.707  46.942  1.00  0.00    -0.083 Cl
HETATM   31  C   UNL     1       2.657  30.177  48.901  1.00  0.00     0.034 A 
HETATM   32 CL   UNL     1       0.390  31.089  50.005  1.00  0.00    -0.083 Cl
ENDBRANCH   1  25
TORSDOF 5
ENDMDL
MODEL 8
REMARK VINA RESULT:      -8.4      7.226     11.217
REMARK  5 active torsions:
REMARK  status: ('A' for Active; 'I' for Inactive)
REMARK    1  A    between atoms: C_2  and  C_3 
REMARK    2  A    between atoms: C_8  and  C_9 
REMARK       I    between atoms: C_9  and  N_10 
REMARK    3  A    between atoms: N_10  and  C_11 
REMARK    4  A    between atoms: C_11  and  C_12 
REMARK    5  A    between atoms: C_19  and  C_20 
ROOT
HETATM    1  C   UNL     1       4.428  34.661  62.510  1.00  0.00     0.118 C 
HETATM    2  N   UNL     1       5.139  34.232  61.313  1.00  0.00    -0.366 N 
HETATM    3  C   UNL     1       6.024  33.214  61.311  1.00  0.00     0.123 A 
HETATM    4  N   UNL     1       6.312  32.507  62.444  1.00  0.00    -0.240 N 
HETATM    5  N   UNL     1       7.158  31.481  62.249  1.00  0.00    -0.165 NA
HETATM    6  C   UNL     1       7.479  31.580  60.939  1.00  0.00     0.148 A 
HETATM    7  C   UNL     1       6.783  32.655  60.319  1.00  0.00     0.088 A 
HETATM    8  C   UNL     1       5.712  32.767  63.737  1.00  0.00     0.221 C 
HETATM    9  C   UNL     1       4.391  33.538  63.565  1.00  0.00     0.066 C 
HETATM   10  H   UNL     1       4.968  34.783  60.472  1.00  0.00     0.161 HD
ENDROOT
BRANCH   6  11
HETATM   11  C   UNL     1       8.415  30.655  60.280  1.00  0.00     0.272 C 
HETATM   12  N   UNL     1       8.271  30.600  58.912  1.00  0.00    -0.353 N 
HETATM   13  H   UNL     1       7.649  31.296  58.506  1.00  0.00     0.162 HD
HETATM   14  O   UNL     1       9.251  30.005  60.901  1.00  0.00    -0.266 OA
BRANCH  12  15
HETATM   15  C   UNL     1       9.238  29.942  58.061  1.00  0.00     0.155 C 
BRANCH  15  16
HETATM   16  C   UNL     1       8.573  28.938  57.123  1.00  0.00     0.139 C 
HETATM   17  O   UNL     1       8.362  27.679  57.796  1.00  0.00    -0.384 OA
HETATM   18  C   UNL     1       7.088  27.156  57.387  1.00  0.00     0.168 C 
HETATM   19  C   UNL     1       6.557  28.068  56.300  1.00  0.00     0.029 C 
HETATM   20  C   UNL     1       7.200  29.386  56.650  1.00  0.00     0.035 C 
ENDBRANCH  15  16
ENDBRANCH  12  15
ENDBRANCH   6  11
BRANCH   8  21
HETATM   21  C   UNL     1       6.708  33.451  64.646  1.00  0.00     0.409 C 
HETATM   22  F   UNL     1       7.327  34.505  64.082  1.00  0.00    -0.169 F 
HETATM   23  F   UNL     1       6.081  33.909  65.760  1.00  0.00    -0.169 F 
HETATM   24  F   UNL     1       7.669  32.601  65.077  1.00  0.00    -0.169 F 
ENDBRANCH   8  21
BRANCH   1  25
HETATM   25  C   UNL     1       4.909  36.010  63.019  1.00  0.00    -0.034 A 
HETATM   26  C   UNL     1       4.642  36.480  64.315  1.00  0.00     0.011 A 
HETATM   27  C   UNL     1       5.121  37.721  64.746  1.00  0.00     0.026 A 
HETATM   28  C   UNL     1       5.889  38.515  63.895  1.00  0.00     0.055 A 
HETATM   29  C   UNL     1       6.177  38.063  62.606  1.00  0.00     0.056 A 
HETATM   30 CL   UNL     1       6.454  40.031  64.497  1.00  0.00    -0.083 Cl
HETATM   31  C   UNL     1       5.689  36.822  62.174  1.00  0.00     0.034 A 
HETATM   32 CL   UNL     1       7.134  38.977  61.494  1.00  0.00    -0.083 Cl
ENDBRANCH   1  25
TORSDOF 5
ENDMDL
MODEL 9
REMARK VINA RESULT:      -8.2      5.319      8.935
REMARK  5 active torsions:
REMARK  status: ('A' for Active; 'I' for Inactive)
REMARK    1  A    between atoms: C_2  and  C_3 
REMARK    2  A    between atoms: C_8  and  C_9 
REMARK       I    between atoms: C_9  and  N_10 
REMARK    3  A    between atoms: N_10  and  C_11 
REMARK    4  A    between atoms: C_11  and  C_12 
REMARK    5  A    between atoms: C_19  and  C_20 
ROOT
HETATM    1  C   UNL     1       5.781  28.715  55.483  1.00  0.00     0.118 C 
HETATM    2  N   UNL     1       5.500  29.285  54.171  1.00  0.00    -0.366 N 
HETATM    3  C   UNL     1       5.363  28.532  53.060  1.00  0.00     0.123 A 
HETATM    4  N   UNL     1       5.476  27.171  53.092  1.00  0.00    -0.240 N 
HETATM    5  N   UNL     1       5.238  26.575  51.911  1.00  0.00    -0.165 NA
HETATM    6  C   UNL     1       5.030  27.612  51.068  1.00  0.00     0.148 A 
HETATM    7  C   UNL     1       5.099  28.855  51.757  1.00  0.00     0.088 A 
HETATM    8  C   UNL     1       5.747  26.408  54.293  1.00  0.00     0.221 C 
HETATM    9  C   UNL     1       5.376  27.230  55.541  1.00  0.00     0.066 C 
HETATM   10  H   UNL     1       5.462  30.303  54.127  1.00  0.00     0.161 HD
ENDROOT
BRANCH   6  11
HETATM   11  C   UNL     1       4.749  27.424  49.636  1.00  0.00     0.272 C 
HETATM   12  N   UNL     1       3.670  26.607  49.386  1.00  0.00    -0.353 N 
HETATM   13  H   UNL     1       3.113  26.349  50.198  1.00  0.00     0.162 HD
HETATM   14  O   UNL     1       5.413  27.961  48.754  1.00  0.00    -0.266 OA
BRANCH  12  15
HETATM   15  C   UNL     1       3.084  26.485  48.068  1.00  0.00     0.155 C 
BRANCH  15  16
HETATM   16  C   UNL     1       1.730  27.185  47.986  1.00  0.00     0.139 C 
HETATM   17  O   UNL     1       1.892  28.616  48.084  1.00  0.00    -0.384 OA
HETATM   18  C   UNL     1       0.972  29.239  47.173  1.00  0.00     0.168 C 
HETATM   19  C   UNL     1       0.103  28.141  46.595  1.00  0.00     0.029 C 
HETATM   20  C   UNL     1       1.015  26.942  46.668  1.00  0.00     0.035 C 
ENDBRANCH  15  16
ENDBRANCH  12  15
ENDBRANCH   6  11
BRANCH   8  21
HETATM   21  C   UNL     1       7.176  25.913  54.286  1.00  0.00     0.409 C 
HETATM   22  F   UNL     1       8.000  26.640  53.509  1.00  0.00    -0.169 F 
HETATM   23  F   UNL     1       7.685  25.948  55.545  1.00  0.00    -0.169 F 
HETATM   24  F   UNL     1       7.265  24.627  53.879  1.00  0.00    -0.169 F 
ENDBRANCH   8  21
BRANCH   1  25
HETATM   25  C   UNL     1       7.194  29.019  55.957  1.00  0.00    -0.034 A 
HETATM   26  C   UNL     1       8.312  28.972  55.111  1.00  0.00     0.011 A 
HETATM   27  C   UNL     1       9.591  29.276  55.587  1.00  0.00     0.026 A 
HETATM   28  C   UNL     1       9.779  29.648  56.918  1.00  0.00     0.055 A 
HETATM   29  C   UNL     1       8.678  29.711  57.775  1.00  0.00     0.056 A 
HETATM   30 CL   UNL     1      11.384  30.018  57.435  1.00  0.00    -0.083 Cl
HETATM   31  C   UNL     1       7.399  29.399  57.297  1.00  0.00     0.034 A 
HETATM   32 CL   UNL     1       8.820  30.177  59.434  1.00  0.00    -0.083 Cl
ENDBRANCH   1  25
TORSDOF 5
ENDMDL
MODEL 10
REMARK VINA RESULT:      -8.2      4.764      8.229
REMARK  5 active torsions:
REMARK  status: ('A' for Active; 'I' for Inactive)
REMARK    1  A    between atoms: C_2  and  C_3 
REMARK    2  A    between atoms: C_8  and  C_9 
REMARK       I    between atoms: C_9  and  N_10 
REMARK    3  A    between atoms: N_10  and  C_11 
REMARK    4  A    between atoms: C_11  and  C_12 
REMARK    5  A    between atoms: C_19  and  C_20 
ROOT
HETATM    1  C   UNL     1       6.458  29.796  55.534  1.00  0.00     0.118 C 
HETATM    2  N   UNL     1       7.404  29.089  54.680  1.00  0.00    -0.366 N 
HETATM    3  C   UNL     1       7.242  27.800  54.318  1.00  0.00     0.123 A 
HETATM    4  N   UNL     1       6.166  27.065  54.728  1.00  0.00    -0.240 N 
HETATM    5  N   UNL     1       6.123  25.824  54.215  1.00  0.00    -0.165 NA
HETATM    6  C   UNL     1       7.265  25.738  53.496  1.00  0.00     0.148 A 
HETATM    7  C   UNL     1       7.990  26.962  53.536  1.00  0.00     0.088 A 
HETATM    8  C   UNL     1       5.109  27.579  55.575  1.00  0.00     0.221 C 
HETATM    9  C   UNL     1       5.076  29.117  55.512  1.00  0.00     0.066 C 
HETATM   10  H   UNL     1       8.235  29.613  54.407  1.00  0.00     0.161 HD
ENDROOT
BRANCH   6  11
HETATM   11  C   UNL     1       7.651  24.522  52.763  1.00  0.00     0.272 C 
HETATM   12  N   UNL     1       8.318  23.598  53.535  1.00  0.00    -0.353 N 
HETATM   13  H   UNL     1       8.341  23.791  54.535  1.00  0.00     0.162 HD
HETATM   14  O   UNL     1       7.387  24.351  51.576  1.00  0.00    -0.266 OA
BRANCH  12  15
HETATM   15  C   UNL     1       8.572  22.249  53.076  1.00  0.00     0.155 C 
BRANCH  15  16
HETATM   16  C   UNL     1       7.928  21.211  53.993  1.00  0.00     0.139 C 
HETATM   17  O   UNL     1       8.795  20.068  54.151  1.00  0.00    -0.384 OA
HETATM   18  C   UNL     1       8.720  19.629  55.517  1.00  0.00     0.168 C 
HETATM   19  C   UNL     1       7.644  20.453  56.193  1.00  0.00     0.029 C 
HETATM   20  C   UNL     1       7.678  21.734  55.398  1.00  0.00     0.035 C 
ENDBRANCH  15  16
ENDBRANCH  12  15
ENDBRANCH   6  11
BRANCH   8  21
HETATM   21  C   UNL     1       5.247  27.025  56.976  1.00  0.00     0.409 C 
HETATM   22  F   UNL     1       6.503  26.663  57.298  1.00  0.00    -0.169 F 
HETATM   23  F   UNL     1       4.858  27.957  57.884  1.00  0.00    -0.169 F 
HETATM   24  F   UNL     1       4.452  25.949  57.176  1.00  0.00    -0.169 F 
ENDBRANCH   8  21
BRANCH   1  25
HETATM   25  C   UNL     1       7.021  30.072  56.919  1.00  0.00    -0.034 A 
HETATM   26  C   UNL     1       8.204  29.486  57.396  1.00  0.00     0.011 A 
HETATM   27  C   UNL     1       8.693  29.783  58.672  1.00  0.00     0.026 A 
HETATM   28  C   UNL     1       8.017  30.684  59.495  1.00  0.00     0.055 A 
HETATM   29  C   UNL     1       6.844  31.287  59.036  1.00  0.00     0.056 A 
HETATM   30 CL   UNL     1       8.683  31.010  61.054  1.00  0.00    -0.083 Cl
HETATM   31  C   UNL     1       6.353  30.982  57.761  1.00  0.00     0.034 A 
HETATM   32 CL   UNL     1       5.954  32.425  59.985  1.00  0.00    -0.083 Cl
ENDBRANCH   1  25
TORSDOF 5
ENDMDL
