MODEL 1
REMARK VINA RESULT:     -10.0      0.000      0.000
REMARK  6 active torsions:
REMARK  status: ('A' for Active; 'I' for Inactive)
REMARK    1  A    between atoms: C_4  and  N_5 
REMARK       I    between atoms: N_5  and  C_6 
REMARK       I    between atoms: C_6  and  N_16 
REMARK    2  A    between atoms: N_16  and  CA_17 
REMARK    3  A    between atoms: CA_17  and  C_18 
REMARK    4  A    between atoms: CA_17  and  CB_20 
REMARK    5  A    between atoms: C_18  and  O_19 
REMARK    6  A    between atoms: CB_20  and  CG_21 
ROOT
HETATM    1  N   UNK A   0       7.723  24.974  56.870  1.00  0.00    -0.307 N 
HETATM    2  C   UNK A   0       8.007  26.193  57.389  1.00  0.00     0.321 C 
HETATM    3  O   UNK A   0       7.630  26.473  58.526  1.00  0.00    -0.247 OA
HETATM    4  H   UNK A   0       7.254  24.370  57.544  1.00  0.00     0.170 HD
ATOM      5  N   TRP A   1       8.705  27.066  56.623  1.00  0.00    -0.336 N 
ATOM      6  H   TRP A   1       9.472  26.649  56.119  1.00  0.00     0.164 HD
ENDROOT
BRANCH   5   7
ATOM      7  CA  TRP A   1       8.929  28.456  57.045  1.00  0.00     0.114 C 
BRANCH   7   8
ATOM      8  C   TRP A   1      10.334  28.920  56.623  1.00  0.00     0.189 C 
BRANCH   8   9
ATOM      9  O   TRP A   1      10.249  30.038  55.736  1.00  0.00    -0.399 OA
ATOM     10  H   TRP A   1      11.153  30.197  55.413  1.00  0.00     0.209 HD
ENDBRANCH   8   9
ENDBRANCH   7   8
BRANCH   7  11
ATOM     11  CB  TRP A   1       7.837  29.378  56.459  1.00  0.00     0.068 C 
BRANCH  11  12
ATOM     12  CG  TRP A   1       7.109  30.180  57.506  1.00  0.00    -0.028 A 
ATOM     13  CD2 TRP A   1       7.698  30.975  58.546  1.00  0.00    -0.002 A 
ATOM     14  CE2 TRP A   1       6.658  31.530  59.294  1.00  0.00     0.042 A 
ATOM     15  CE3 TRP A   1       9.023  31.271  58.928  1.00  0.00     0.014 A 
ATOM     16  CZ2 TRP A   1       6.873  32.361  60.399  1.00  0.00     0.030 A 
ATOM     17  NE1 TRP A   1       5.482  31.094  58.734  1.00  0.00    -0.365 N 
ATOM     18  CH2 TRP A   1       8.195  32.638  60.755  1.00  0.00     0.002 A 
ATOM     19  CZ3 TRP A   1       9.257  32.103  60.031  1.00  0.00     0.001 A 
ATOM     20  HE1 TRP A   1       4.561  31.328  59.080  1.00  0.00     0.165 HD
ATOM     21  CD1 TRP A   1       5.739  30.294  57.657  1.00  0.00     0.096 A 
ENDBRANCH  11  12
ENDBRANCH   7  11
ENDBRANCH   5   7
BRANCH   1  22
HETATM   22  C   UNK A   0       7.788  24.387  55.580  1.00  0.00     0.066 A 
HETATM   23  C   UNK A   0       7.568  25.070  54.377  1.00  0.00     0.038 A 
HETATM   24  C   UNK A   0       7.637  24.405  53.146  1.00  0.00    -0.059 A 
HETATM   25  C   UNK A   0       7.387  25.138  51.862  1.00  0.00     0.048 C 
HETATM   26  C   UNK A   0       7.895  23.033  53.131  1.00  0.00     0.020 A 
HETATM   27  C   UNK A   0       8.091  22.330  54.329  1.00  0.00    -0.005 A 
HETATM   28  C   UNK A   0       8.047  23.004  55.569  1.00  0.00     0.093 A 
HETATM   29  C   UNK A   0       8.323  20.948  54.329  1.00  0.00     0.015 A 
HETATM   30  N   UNK A   0       8.228  22.341  56.738  1.00  0.00    -0.258 NA
HETATM   31  C   UNK A   0       8.446  21.008  56.697  1.00  0.00     0.117 A 
HETATM   32  C   UNK A   0       8.500  20.274  55.529  1.00  0.00     0.020 A 
ENDBRANCH   1  22
TORSDOF 6
ENDMDL
MODEL 2
REMARK VINA RESULT:     -10.0      2.576      5.047
REMARK  6 active torsions:
REMARK  status: ('A' for Active; 'I' for Inactive)
REMARK    1  A    between atoms: C_4  and  N_5 
REMARK       I    between atoms: N_5  and  C_6 
REMARK       I    between atoms: C_6  and  N_16 
REMARK    2  A    between atoms: N_16  and  CA_17 
REMARK    3  A    between atoms: CA_17  and  C_18 
REMARK    4  A    between atoms: CA_17  and  CB_20 
REMARK    5  A    between atoms: C_18  and  O_19 
REMARK    6  A    between atoms: CB_20  and  CG_21 
ROOT
HETATM    1  N   UNK A   0       8.339  24.830  56.748  1.00  0.00    -0.307 N 
HETATM    2  C   UNK A   0       7.658  25.863  57.303  1.00  0.00     0.321 C 
HETATM    3  O   UNK A   0       7.799  26.113  58.498  1.00  0.00    -0.247 OA
HETATM    4  H   UNK A   0       8.973  24.390  57.414  1.00  0.00     0.170 HD
ATOM      5  N   TRP A   1       6.840  26.590  56.503  1.00  0.00    -0.336 N 
ATOM      6  H   TRP A   1       7.229  26.796  55.596  1.00  0.00     0.164 HD
ENDROOT
BRANCH   5   7
ATOM      7  CA  TRP A   1       5.954  27.630  57.045  1.00  0.00     0.114 C 
BRANCH   7   8
ATOM      8  C   TRP A   1       6.688  28.982  57.090  1.00  0.00     0.189 C 
BRANCH   8   9
ATOM      9  O   TRP A   1       7.272  29.195  58.377  1.00  0.00    -0.399 OA
ATOM     10  H   TRP A   1       7.976  29.855  58.249  1.00  0.00     0.209 HD
ENDBRANCH   8   9
ENDBRANCH   7   8
BRANCH   7  11
ATOM     11  CB  TRP A   1       4.660  27.723  56.208  1.00  0.00     0.068 C 
BRANCH  11  12
ATOM     12  CG  TRP A   1       4.913  27.995  54.748  1.00  0.00    -0.028 A 
ATOM     13  CD2 TRP A   1       4.881  27.039  53.676  1.00  0.00    -0.002 A 
ATOM     14  CE2 TRP A   1       5.188  27.719  52.496  1.00  0.00     0.042 A 
ATOM     15  CE3 TRP A   1       4.626  25.654  53.599  1.00  0.00     0.014 A 
ATOM     16  CZ2 TRP A   1       5.253  27.089  51.248  1.00  0.00     0.030 A 
ATOM     17  NE1 TRP A   1       5.397  29.035  52.830  1.00  0.00    -0.365 N 
ATOM     18  CH2 TRP A   1       4.995  25.717  51.201  1.00  0.00     0.002 A 
ATOM     19  CZ3 TRP A   1       4.685  25.008  52.358  1.00  0.00     0.001 A 
ATOM     20  HE1 TRP A   1       5.650  29.760  52.174  1.00  0.00     0.165 HD
ATOM     21  CD1 TRP A   1       5.225  29.214  54.174  1.00  0.00     0.096 A 
ENDBRANCH  11  12
ENDBRANCH   7  11
ENDBRANCH   5   7
BRANCH   1  22
HETATM   22  C   UNK A   0       8.276  24.124  55.520  1.00  0.00     0.066 A 
HETATM   23  C   UNK A   0       8.164  24.720  54.258  1.00  0.00     0.038 A 
HETATM   24  C   UNK A   0       8.092  23.942  53.095  1.00  0.00    -0.059 A 
HETATM   25  C   UNK A   0       7.957  24.586  51.747  1.00  0.00     0.048 C 
HETATM   26  C   UNK A   0       8.098  22.551  53.210  1.00  0.00     0.020 A 
HETATM   27  C   UNK A   0       8.185  21.939  54.469  1.00  0.00    -0.005 A 
HETATM   28  C   UNK A   0       8.283  22.722  55.640  1.00  0.00     0.093 A 
HETATM   29  C   UNK A   0       8.164  20.544  54.600  1.00  0.00     0.015 A 
HETATM   30  N   UNK A   0       8.360  22.149  56.866  1.00  0.00    -0.258 NA
HETATM   31  C   UNK A   0       8.334  20.801  56.951  1.00  0.00     0.117 A 
HETATM   32  C   UNK A   0       8.237  19.964  55.858  1.00  0.00     0.020 A 
ENDBRANCH   1  22
TORSDOF 6
ENDMDL
MODEL 3
REMARK VINA RESULT:     -10.0      2.260      3.989
REMARK  6 active torsions:
REMARK  status: ('A' for Active; 'I' for Inactive)
REMARK    1  A    between atoms: C_4  and  N_5 
REMARK       I    between atoms: N_5  and  C_6 
REMARK       I    between atoms: C_6  and  N_16 
REMARK    2  A    between atoms: N_16  and  CA_17 
REMARK    3  A    between atoms: CA_17  and  C_18 
REMARK    4  A    between atoms: CA_17  and  CB_20 
REMARK    5  A    between atoms: C_18  and  O_19 
REMARK    6  A    between atoms: CB_20  and  CG_21 
ROOT
HETATM    1  N   UNK A   0       7.855  24.842  56.843  1.00  0.00    -0.307 N 
HETATM    2  C   UNK A   0       7.974  26.093  57.350  1.00  0.00     0.321 C 
HETATM    3  O   UNK A   0       7.695  26.303  58.528  1.00  0.00    -0.247 OA
HETATM    4  H   UNK A   0       7.589  24.164  57.558  1.00  0.00     0.170 HD
ATOM      5  N   TRP A   1       8.404  27.077  56.523  1.00  0.00    -0.336 N 
ATOM      6  H   TRP A   1       9.167  26.806  55.921  1.00  0.00     0.164 HD
ENDROOT
BRANCH   5   7
ATOM      7  CA  TRP A   1       8.422  28.486  56.942  1.00  0.00     0.114 C 
BRANCH   7   8
ATOM      8  C   TRP A   1       9.872  28.972  57.109  1.00  0.00     0.189 C 
BRANCH   8   9
ATOM      9  O   TRP A   1      10.280  29.738  55.973  1.00  0.00    -0.399 OA
ATOM     10  H   TRP A   1      10.452  30.638  56.301  1.00  0.00     0.209 HD
ENDBRANCH   8   9
ENDBRANCH   7   8
BRANCH   7  11
ATOM     11  CB  TRP A   1       7.654  29.359  55.926  1.00  0.00     0.068 C 
BRANCH  11  12
ATOM     12  CG  TRP A   1       6.296  28.810  55.573  1.00  0.00    -0.028 A 
ATOM     13  CD2 TRP A   1       5.810  28.494  54.259  1.00  0.00    -0.002 A 
ATOM     14  CE2 TRP A   1       4.500  28.029  54.395  1.00  0.00     0.042 A 
ATOM     15  CE3 TRP A   1       6.358  28.566  52.962  1.00  0.00     0.014 A 
ATOM     16  CZ2 TRP A   1       3.715  27.634  53.306  1.00  0.00     0.030 A 
ATOM     17  NE1 TRP A   1       4.199  28.057  55.735  1.00  0.00    -0.365 N 
ATOM     18  CH2 TRP A   1       4.284  27.715  52.033  1.00  0.00     0.002 A 
ATOM     19  CZ3 TRP A   1       5.587  28.173  51.861  1.00  0.00     0.001 A 
ATOM     20  HE1 TRP A   1       3.308  27.787  56.128  1.00  0.00     0.165 HD
ATOM     21  CD1 TRP A   1       5.270  28.513  56.451  1.00  0.00     0.096 A 
ENDBRANCH  11  12
ENDBRANCH   7  11
ENDBRANCH   5   7
BRANCH   1  22
HETATM   22  C   UNK A   0       7.867  24.274  55.544  1.00  0.00     0.066 A 
HETATM   23  C   UNK A   0       7.626  24.980  54.359  1.00  0.00     0.038 A 
HETATM   24  C   UNK A   0       7.642  24.332  53.117  1.00  0.00    -0.059 A 
HETATM   25  C   UNK A   0       7.369  25.091  51.851  1.00  0.00     0.048 C 
HETATM   26  C   UNK A   0       7.867  22.955  53.073  1.00  0.00     0.020 A 
HETATM   27  C   UNK A   0       8.084  22.230  54.254  1.00  0.00    -0.005 A 
HETATM   28  C   UNK A   0       8.094  22.885  55.505  1.00  0.00     0.093 A 
HETATM   29  C   UNK A   0       8.284  20.843  54.227  1.00  0.00     0.015 A 
HETATM   30  N   UNK A   0       8.295  22.201  56.657  1.00  0.00    -0.258 NA
HETATM   31  C   UNK A   0       8.481  20.864  56.590  1.00  0.00     0.117 A 
HETATM   32  C   UNK A   0       8.482  20.147  55.411  1.00  0.00     0.020 A 
ENDBRANCH   1  22
TORSDOF 6
ENDMDL
MODEL 4
REMARK VINA RESULT:      -9.9      1.850      8.730
REMARK  6 active torsions:
REMARK  status: ('A' for Active; 'I' for Inactive)
REMARK    1  A    between atoms: C_4  and  N_5 
REMARK       I    between atoms: N_5  and  C_6 
REMARK       I    between atoms: C_6  and  N_16 
REMARK    2  A    between atoms: N_16  and  CA_17 
REMARK    3  A    between atoms: CA_17  and  C_18 
REMARK    4  A    between atoms: CA_17  and  CB_20 
REMARK    5  A    between atoms: C_18  and  O_19 
REMARK    6  A    between atoms: CB_20  and  CG_21 
ROOT
HETATM    1  N   UNK A   0       6.312  29.457  57.627  1.00  0.00    -0.307 N 
HETATM    2  C   UNK A   0       5.821  28.503  56.800  1.00  0.00     0.321 C 
HETATM    3  O   UNK A   0       4.660  28.121  56.932  1.00  0.00    -0.247 OA
HETATM    4  H   UNK A   0       5.601  29.815  58.263  1.00  0.00     0.170 HD
ATOM      5  N   TRP A   1       6.642  28.001  55.845  1.00  0.00    -0.336 N 
ATOM      6  H   TRP A   1       7.203  28.697  55.378  1.00  0.00     0.164 HD
ENDROOT
BRANCH   5   7
ATOM      7  CA  TRP A   1       6.244  26.864  55.004  1.00  0.00     0.114 C 
BRANCH   7   8
ATOM      8  C   TRP A   1       5.441  27.358  53.788  1.00  0.00     0.189 C 
BRANCH   8   9
ATOM      9  O   TRP A   1       4.043  27.128  53.982  1.00  0.00    -0.399 OA
ATOM     10  H   TRP A   1       3.798  26.414  53.367  1.00  0.00     0.209 HD
ENDBRANCH   8   9
ENDBRANCH   7   8
BRANCH   7  11
ATOM     11  CB  TRP A   1       7.488  26.061  54.563  1.00  0.00     0.068 C 
BRANCH  11  12
ATOM     12  CG  TRP A   1       7.659  24.766  55.314  1.00  0.00    -0.028 A 
ATOM     13  CD2 TRP A   1       7.739  23.448  54.750  1.00  0.00    -0.002 A 
ATOM     14  CE2 TRP A   1       7.881  22.546  55.807  1.00  0.00     0.042 A 
ATOM     15  CE3 TRP A   1       7.699  22.933  53.438  1.00  0.00     0.014 A 
ATOM     16  CZ2 TRP A   1       7.983  21.163  55.620  1.00  0.00     0.030 A 
ATOM     17  NE1 TRP A   1       7.889  23.281  56.967  1.00  0.00    -0.365 N 
ATOM     18  CH2 TRP A   1       7.940  20.681  54.309  1.00  0.00     0.002 A 
ATOM     19  CZ3 TRP A   1       7.801  21.552  53.232  1.00  0.00     0.001 A 
ATOM     20  HE1 TRP A   1       7.964  22.887  57.895  1.00  0.00     0.165 HD
ATOM     21  CD1 TRP A   1       7.767  24.612  56.684  1.00  0.00     0.096 A 
ENDBRANCH  11  12
ENDBRANCH   7  11
ENDBRANCH   5   7
BRANCH   1  22
HETATM   22  C   UNK A   0       7.601  29.973  57.919  1.00  0.00     0.066 A 
HETATM   23  C   UNK A   0       8.791  29.542  57.321  1.00  0.00     0.038 A 
HETATM   24  C   UNK A   0      10.025  30.098  57.683  1.00  0.00    -0.059 A 
HETATM   25  C   UNK A   0      11.298  29.622  57.049  1.00  0.00     0.048 C 
HETATM   26  C   UNK A   0      10.061  31.071  58.683  1.00  0.00     0.020 A 
HETATM   27  C   UNK A   0       8.880  31.495  59.309  1.00  0.00    -0.005 A 
HETATM   28  C   UNK A   0       7.633  30.954  58.928  1.00  0.00     0.093 A 
HETATM   29  C   UNK A   0       8.906  32.452  60.334  1.00  0.00     0.015 A 
HETATM   30  N   UNK A   0       6.482  31.345  59.526  1.00  0.00    -0.258 NA
HETATM   31  C   UNK A   0       6.548  32.268  60.511  1.00  0.00     0.117 A 
HETATM   32  C   UNK A   0       7.724  32.843  60.947  1.00  0.00     0.020 A 
ENDBRANCH   1  22
TORSDOF 6
ENDMDL
MODEL 5
REMARK VINA RESULT:      -9.6      4.957      9.837
REMARK  6 active torsions:
REMARK  status: ('A' for Active; 'I' for Inactive)
REMARK    1  A    between atoms: C_4  and  N_5 
REMARK       I    between atoms: N_5  and  C_6 
REMARK       I    between atoms: C_6  and  N_16 
REMARK    2  A    between atoms: N_16  and  CA_17 
REMARK    3  A    between atoms: CA_17  and  C_18 
REMARK    4  A    between atoms: CA_17  and  CB_20 
REMARK    5  A    between atoms: C_18  and  O_19 
REMARK    6  A    between atoms: CB_20  and  CG_21 
ROOT
HETATM    1  N   UNK A   0       4.485  31.792  61.757  1.00  0.00    -0.307 N 
HETATM    2  C   UNK A   0       3.810  32.027  60.606  1.00  0.00     0.321 C 
HETATM    3  O   UNK A   0       2.761  31.426  60.382  1.00  0.00    -0.247 OA
HETATM    4  H   UNK A   0       3.984  31.149  62.370  1.00  0.00     0.170 HD
ATOM      5  N   TRP A   1       4.326  32.929  59.736  1.00  0.00    -0.336 N 
ATOM      6  H   TRP A   1       4.688  33.762  60.175  1.00  0.00     0.164 HD
ENDROOT
BRANCH   5   7
ATOM      7  CA  TRP A   1       3.744  33.138  58.403  1.00  0.00     0.114 C 
BRANCH   7   8
ATOM      8  C   TRP A   1       3.360  34.616  58.217  1.00  0.00     0.189 C 
BRANCH   8   9
ATOM      9  O   TRP A   1       2.007  34.839  58.620  1.00  0.00    -0.399 OA
ATOM     10  H   TRP A   1       1.792  34.130  59.251  1.00  0.00     0.209 HD
ENDBRANCH   8   9
ENDBRANCH   7   8
BRANCH   7  11
ATOM     11  CB  TRP A   1       4.729  32.674  57.308  1.00  0.00     0.068 C 
BRANCH  11  12
ATOM     12  CG  TRP A   1       4.784  31.176  57.151  1.00  0.00    -0.028 A 
ATOM     13  CD2 TRP A   1       5.887  30.317  57.478  1.00  0.00    -0.002 A 
ATOM     14  CE2 TRP A   1       5.512  29.010  57.159  1.00  0.00     0.042 A 
ATOM     15  CE3 TRP A   1       7.176  30.528  58.010  1.00  0.00     0.014 A 
ATOM     16  CZ2 TRP A   1       6.355  27.908  57.345  1.00  0.00     0.030 A 
ATOM     17  NE1 TRP A   1       4.234  29.067  56.660  1.00  0.00    -0.365 N 
ATOM     18  CH2 TRP A   1       7.626  28.147  57.874  1.00  0.00     0.002 A 
ATOM     19  CZ3 TRP A   1       8.032  29.436  58.204  1.00  0.00     0.001 A 
ATOM     20  HE1 TRP A   1       3.710  28.267  56.333  1.00  0.00     0.165 HD
ATOM     21  CD1 TRP A   1       3.784  30.358  56.660  1.00  0.00     0.096 A 
ENDBRANCH  11  12
ENDBRANCH   7  11
ENDBRANCH   5   7
BRANCH   1  22
HETATM   22  C   UNK A   0       5.778  32.104  62.250  1.00  0.00     0.066 A 
HETATM   23  C   UNK A   0       6.980  31.769  61.616  1.00  0.00     0.038 A 
HETATM   24  C   UNK A   0       8.216  32.105  62.184  1.00  0.00    -0.059 A 
HETATM   25  C   UNK A   0       9.501  31.732  61.507  1.00  0.00     0.048 C 
HETATM   26  C   UNK A   0       8.238  32.753  63.421  1.00  0.00     0.020 A 
HETATM   27  C   UNK A   0       7.043  33.072  64.081  1.00  0.00    -0.005 A 
HETATM   28  C   UNK A   0       5.796  32.757  63.497  1.00  0.00     0.093 A 
HETATM   29  C   UNK A   0       7.052  33.698  65.335  1.00  0.00     0.015 A 
HETATM   30  N   UNK A   0       4.631  33.051  64.123  1.00  0.00    -0.258 NA
HETATM   31  C   UNK A   0       4.680  33.652  65.332  1.00  0.00     0.117 A 
HETATM   32  C   UNK A   0       5.855  33.990  65.974  1.00  0.00     0.020 A 
ENDBRANCH   1  22
TORSDOF 6
ENDMDL
MODEL 6
REMARK VINA RESULT:      -9.5      2.453      8.298
REMARK  6 active torsions:
REMARK  status: ('A' for Active; 'I' for Inactive)
REMARK    1  A    between atoms: C_4  and  N_5 
REMARK       I    between atoms: N_5  and  C_6 
REMARK       I    between atoms: C_6  and  N_16 
REMARK    2  A    between atoms: N_16  and  CA_17 
REMARK    3  A    between atoms: CA_17  and  C_18 
REMARK    4  A    between atoms: CA_17  and  CB_20 
REMARK    5  A    between atoms: C_18  and  O_19 
REMARK    6  A    between atoms: CB_20  and  CG_21 
ROOT
HETATM    1  N   UNK A   0       4.866  27.224  57.390  1.00  0.00    -0.307 N 
HETATM    2  C   UNK A   0       4.943  26.186  56.522  1.00  0.00     0.321 C 
HETATM    3  O   UNK A   0       4.652  25.053  56.900  1.00  0.00    -0.247 OA
HETATM    4  H   UNK A   0       4.495  26.937  58.296  1.00  0.00     0.170 HD
ATOM      5  N   TRP A   1       5.343  26.444  55.253  1.00  0.00    -0.336 N 
ATOM      6  H   TRP A   1       4.939  27.279  54.857  1.00  0.00     0.164 HD
ENDROOT
BRANCH   5   7
ATOM      7  CA  TRP A   1       5.596  25.365  54.288  1.00  0.00     0.114 C 
BRANCH   7   8
ATOM      8  C   TRP A   1       4.888  25.666  52.956  1.00  0.00     0.189 C 
BRANCH   8   9
ATOM      9  O   TRP A   1       3.753  26.509  53.169  1.00  0.00    -0.399 OA
ATOM     10  H   TRP A   1       2.973  25.929  53.123  1.00  0.00     0.209 HD
ENDBRANCH   8   9
ENDBRANCH   7   8
BRANCH   7  11
ATOM     11  CB  TRP A   1       7.115  25.174  54.083  1.00  0.00     0.068 C 
BRANCH  11  12
ATOM     12  CG  TRP A   1       7.685  24.027  54.877  1.00  0.00    -0.028 A 
ATOM     13  CD2 TRP A   1       7.973  22.705  54.395  1.00  0.00    -0.002 A 
ATOM     14  CE2 TRP A   1       8.472  21.965  55.469  1.00  0.00     0.042 A 
ATOM     15  CE3 TRP A   1       7.850  22.064  53.145  1.00  0.00     0.014 A 
ATOM     16  CZ2 TRP A   1       8.852  20.623  55.358  1.00  0.00     0.030 A 
ATOM     17  NE1 TRP A   1       8.490  22.798  56.560  1.00  0.00    -0.365 N 
ATOM     18  CH2 TRP A   1       8.721  20.013  54.108  1.00  0.00     0.002 A 
ATOM     19  CZ3 TRP A   1       8.228  20.721  53.015  1.00  0.00     0.001 A 
ATOM     20  HE1 TRP A   1       8.791  22.525  57.485  1.00  0.00     0.165 HD
ATOM     21  CD1 TRP A   1       8.030  24.038  56.215  1.00  0.00     0.096 A 
ENDBRANCH  11  12
ENDBRANCH   7  11
ENDBRANCH   5   7
BRANCH   1  22
HETATM   22  C   UNK A   0       5.310  28.571  57.394  1.00  0.00     0.066 A 
HETATM   23  C   UNK A   0       4.471  29.691  57.400  1.00  0.00     0.038 A 
HETATM   24  C   UNK A   0       4.998  30.989  57.388  1.00  0.00    -0.059 A 
HETATM   25  C   UNK A   0       4.093  32.185  57.380  1.00  0.00     0.048 C 
HETATM   26  C   UNK A   0       6.382  31.157  57.332  1.00  0.00     0.020 A 
HETATM   27  C   UNK A   0       7.235  30.044  57.300  1.00  0.00    -0.005 A 
HETATM   28  C   UNK A   0       6.707  28.736  57.338  1.00  0.00     0.093 A 
HETATM   29  C   UNK A   0       8.626  30.199  57.216  1.00  0.00     0.015 A 
HETATM   30  N   UNK A   0       7.515  27.648  57.300  1.00  0.00    -0.258 NA
HETATM   31  C   UNK A   0       8.850  27.838  57.217  1.00  0.00     0.117 A 
HETATM   32  C   UNK A   0       9.447  29.081  57.171  1.00  0.00     0.020 A 
ENDBRANCH   1  22
TORSDOF 6
ENDMDL
MODEL 7
REMARK VINA RESULT:      -9.3      4.499      8.707
REMARK  6 active torsions:
REMARK  status: ('A' for Active; 'I' for Inactive)
REMARK    1  A    between atoms: C_4  and  N_5 
REMARK       I    between atoms: N_5  and  C_6 
REMARK       I    between atoms: C_6  and  N_16 
REMARK    2  A    between atoms: N_16  and  CA_17 
REMARK    3  A    between atoms: CA_17  and  C_18 
REMARK    4  A    between atoms: CA_17  and  CB_20 
REMARK    5  A    between atoms: C_18  and  O_19 
REMARK    6  A    between atoms: CB_20  and  CG_21 
ROOT
HETATM    1  N   UNK A   0       5.815  26.428  50.641  1.00  0.00    -0.307 N 
HETATM    2  C   UNK A   0       6.567  25.979  51.676  1.00  0.00     0.321 C 
HETATM    3  O   UNK A   0       7.271  24.983  51.530  1.00  0.00    -0.247 OA
HETATM    4  H   UNK A   0       5.977  25.891  49.790  1.00  0.00     0.170 HD
ATOM      5  N   TRP A   1       6.511  26.659  52.847  1.00  0.00    -0.336 N 
ATOM      6  H   TRP A   1       6.519  27.662  52.742  1.00  0.00     0.164 HD
ENDROOT
BRANCH   5   7
ATOM      7  CA  TRP A   1       7.173  26.162  54.062  1.00  0.00     0.114 C 
BRANCH   7   8
ATOM      8  C   TRP A   1       7.387  27.314  55.059  1.00  0.00     0.189 C 
BRANCH   8   9
ATOM      9  O   TRP A   1       7.545  28.555  54.367  1.00  0.00    -0.399 OA
ATOM     10  H   TRP A   1       8.077  28.359  53.577  1.00  0.00     0.209 HD
ENDBRANCH   8   9
ENDBRANCH   7   8
BRANCH   7  11
ATOM     11  CB  TRP A   1       6.349  25.021  54.695  1.00  0.00     0.068 C 
BRANCH  11  12
ATOM     12  CG  TRP A   1       7.200  23.948  55.324  1.00  0.00    -0.028 A 
ATOM     13  CD2 TRP A   1       7.658  22.738  54.702  1.00  0.00    -0.002 A 
ATOM     14  CE2 TRP A   1       8.401  22.031  55.650  1.00  0.00     0.042 A 
ATOM     15  CE3 TRP A   1       7.506  22.170  53.419  1.00  0.00     0.014 A 
ATOM     16  CZ2 TRP A   1       8.996  20.793  55.384  1.00  0.00     0.030 A 
ATOM     17  NE1 TRP A   1       8.398  22.778  56.803  1.00  0.00    -0.365 N 
ATOM     18  CH2 TRP A   1       8.830  20.256  54.105  1.00  0.00     0.002 A 
ATOM     19  CZ3 TRP A   1       8.097  20.933  53.135  1.00  0.00     0.001 A 
ATOM     20  HE1 TRP A   1       8.848  22.503  57.665  1.00  0.00     0.165 HD
ATOM     21  CD1 TRP A   1       7.691  23.933  56.616  1.00  0.00     0.096 A 
ENDBRANCH  11  12
ENDBRANCH   7  11
ENDBRANCH   5   7
BRANCH   1  22
HETATM   22  C   UNK A   0       4.759  27.363  50.493  1.00  0.00     0.066 A 
HETATM   23  C   UNK A   0       4.538  28.463  51.331  1.00  0.00     0.038 A 
HETATM   24  C   UNK A   0       3.457  29.327  51.118  1.00  0.00    -0.059 A 
HETATM   25  C   UNK A   0       3.217  30.496  52.027  1.00  0.00     0.048 C 
HETATM   26  C   UNK A   0       2.571  29.059  50.073  1.00  0.00     0.020 A 
HETATM   27  C   UNK A   0       2.764  27.947  49.241  1.00  0.00    -0.005 A 
HETATM   28  C   UNK A   0       3.868  27.089  49.438  1.00  0.00     0.093 A 
HETATM   29  C   UNK A   0       1.867  27.652  48.205  1.00  0.00     0.015 A 
HETATM   30  N   UNK A   0       4.068  26.005  48.649  1.00  0.00    -0.258 NA
HETATM   31  C   UNK A   0       3.179  25.752  47.663  1.00  0.00     0.117 A 
HETATM   32  C   UNK A   0       2.074  26.536  47.406  1.00  0.00     0.020 A 
ENDBRANCH   1  22
TORSDOF 6
ENDMDL
MODEL 8
REMARK VINA RESULT:      -9.2      3.758      6.649
REMARK  6 active torsions:
REMARK  status: ('A' for Active; 'I' for Inactive)
REMARK    1  A    between atoms: C_4  and  N_5 
REMARK       I    between atoms: N_5  and  C_6 
REMARK       I    between atoms: C_6  and  N_16 
REMARK    2  A    between atoms: N_16  and  CA_17 
REMARK    3  A    between atoms: CA_17  and  C_18 
REMARK    4  A    between atoms: CA_17  and  CB_20 
REMARK    5  A    between atoms: C_18  and  O_19 
REMARK    6  A    between atoms: CB_20  and  CG_21 
ROOT
HETATM    1  N   UNK A   0       8.123  30.700  58.074  1.00  0.00    -0.307 N 
HETATM    2  C   UNK A   0       8.241  31.301  59.283  1.00  0.00     0.321 C 
HETATM    3  O   UNK A   0       8.987  32.270  59.411  1.00  0.00    -0.247 OA
HETATM    4  H   UNK A   0       8.652  31.187  57.352  1.00  0.00     0.170 HD
ATOM      5  N   TRP A   1       7.520  30.803  60.316  1.00  0.00    -0.336 N 
ATOM      6  H   TRP A   1       6.573  30.553  60.075  1.00  0.00     0.164 HD
ENDROOT
BRANCH   5   7
ATOM      7  CA  TRP A   1       7.696  31.295  61.690  1.00  0.00     0.114 C 
BRANCH   7   8
ATOM      8  C   TRP A   1       9.140  31.049  62.162  1.00  0.00     0.189 C 
BRANCH   8   9
ATOM      9  O   TRP A   1       9.398  29.648  62.280  1.00  0.00    -0.399 OA
ATOM     10  H   TRP A   1       9.033  29.236  61.477  1.00  0.00     0.209 HD
ENDBRANCH   8   9
ENDBRANCH   7   8
BRANCH   7  11
ATOM     11  CB  TRP A   1       7.328  32.792  61.776  1.00  0.00     0.068 C 
BRANCH  11  12
ATOM     12  CG  TRP A   1       6.143  33.065  62.666  1.00  0.00    -0.028 A 
ATOM     13  CD2 TRP A   1       6.175  33.431  64.054  1.00  0.00    -0.002 A 
ATOM     14  CE2 TRP A   1       4.853  33.570  64.483  1.00  0.00     0.042 A 
ATOM     15  CE3 TRP A   1       7.205  33.652  64.991  1.00  0.00     0.014 A 
ATOM     16  CZ2 TRP A   1       4.511  33.917  65.795  1.00  0.00     0.030 A 
ATOM     17  NE1 TRP A   1       4.047  33.302  63.403  1.00  0.00    -0.365 N 
ATOM     18  CH2 TRP A   1       5.552  34.131  66.702  1.00  0.00     0.002 A 
ATOM     19  CZ3 TRP A   1       6.880  34.002  66.308  1.00  0.00     0.001 A 
ATOM     20  HE1 TRP A   1       3.037  33.313  63.426  1.00  0.00     0.165 HD
ATOM     21  CD1 TRP A   1       4.809  33.008  62.307  1.00  0.00     0.096 A 
ENDBRANCH  11  12
ENDBRANCH   7  11
ENDBRANCH   5   7
BRANCH   1  22
HETATM   22  C   UNK A   0       7.566  29.484  57.602  1.00  0.00     0.066 A 
HETATM   23  C   UNK A   0       8.199  28.237  57.661  1.00  0.00     0.038 A 
HETATM   24  C   UNK A   0       7.579  27.087  57.155  1.00  0.00    -0.059 A 
HETATM   25  C   UNK A   0       8.268  25.756  57.208  1.00  0.00     0.048 C 
HETATM   26  C   UNK A   0       6.325  27.204  56.553  1.00  0.00     0.020 A 
HETATM   27  C   UNK A   0       5.689  28.450  56.464  1.00  0.00    -0.005 A 
HETATM   28  C   UNK A   0       6.301  29.606  56.996  1.00  0.00     0.093 A 
HETATM   29  C   UNK A   0       4.442  28.585  55.838  1.00  0.00     0.015 A 
HETATM   30  N   UNK A   0       5.706  30.820  56.913  1.00  0.00    -0.258 NA
HETATM   31  C   UNK A   0       4.506  30.911  56.300  1.00  0.00     0.117 A 
HETATM   32  C   UNK A   0       3.841  29.833  55.751  1.00  0.00     0.020 A 
ENDBRANCH   1  22
TORSDOF 6
ENDMDL
MODEL 9
REMARK VINA RESULT:      -9.2      2.102      8.816
REMARK  6 active torsions:
REMARK  status: ('A' for Active; 'I' for Inactive)
REMARK    1  A    between atoms: C_4  and  N_5 
REMARK       I    between atoms: N_5  and  C_6 
REMARK       I    between atoms: C_6  and  N_16 
REMARK    2  A    between atoms: N_16  and  CA_17 
REMARK    3  A    between atoms: CA_17  and  C_18 
REMARK    4  A    between atoms: CA_17  and  CB_20 
REMARK    5  A    between atoms: C_18  and  O_19 
REMARK    6  A    between atoms: CB_20  and  CG_21 
ROOT
HETATM    1  N   UNK A   0       8.329  29.639  58.201  1.00  0.00    -0.307 N 
HETATM    2  C   UNK A   0       8.155  28.458  57.560  1.00  0.00     0.321 C 
HETATM    3  O   UNK A   0       9.120  27.893  57.049  1.00  0.00    -0.247 OA
HETATM    4  H   UNK A   0       9.311  29.910  58.242  1.00  0.00     0.170 HD
ATOM      5  N   TRP A   1       6.903  27.940  57.507  1.00  0.00    -0.336 N 
ATOM      6  H   TRP A   1       6.391  28.014  58.373  1.00  0.00     0.164 HD
ENDROOT
BRANCH   5   7
ATOM      7  CA  TRP A   1       6.595  26.744  56.710  1.00  0.00     0.114 C 
BRANCH   7   8
ATOM      8  C   TRP A   1       5.140  26.306  56.950  1.00  0.00     0.189 C 
BRANCH   8   9
ATOM      9  O   TRP A   1       4.232  27.341  56.563  1.00  0.00    -0.399 OA
ATOM     10  H   TRP A   1       4.744  28.169  56.577  1.00  0.00     0.209 HD
ENDBRANCH   8   9
ENDBRANCH   7   8
BRANCH   7  11
ATOM     11  CB  TRP A   1       6.856  27.016  55.212  1.00  0.00     0.068 C 
BRANCH  11  12
ATOM     12  CG  TRP A   1       6.722  25.786  54.351  1.00  0.00    -0.028 A 
ATOM     13  CD2 TRP A   1       7.461  24.562  54.478  1.00  0.00    -0.002 A 
ATOM     14  CE2 TRP A   1       7.029  23.701  53.467  1.00  0.00     0.042 A 
ATOM     15  CE3 TRP A   1       8.465  24.103  55.357  1.00  0.00     0.014 A 
ATOM     16  CZ2 TRP A   1       7.545  22.413  53.289  1.00  0.00     0.030 A 
ATOM     17  NE1 TRP A   1       6.065  24.371  52.752  1.00  0.00    -0.365 N 
ATOM     18  CH2 TRP A   1       8.538  21.985  54.174  1.00  0.00     0.002 A 
ATOM     19  CZ3 TRP A   1       8.992  22.816  55.195  1.00  0.00     0.001 A 
ATOM     20  HE1 TRP A   1       5.584  23.994  51.947  1.00  0.00     0.165 HD
ATOM     21  CD1 TRP A   1       5.866  25.616  53.278  1.00  0.00     0.096 A 
ENDBRANCH  11  12
ENDBRANCH   7  11
ENDBRANCH   5   7
BRANCH   1  22
HETATM   22  C   UNK A   0       7.472  30.654  58.698  1.00  0.00     0.066 A 
HETATM   23  C   UNK A   0       6.420  31.236  57.980  1.00  0.00     0.038 A 
HETATM   24  C   UNK A   0       5.632  32.246  58.546  1.00  0.00    -0.059 A 
HETATM   25  C   UNK A   0       4.515  32.876  57.767  1.00  0.00     0.048 C 
HETATM   26  C   UNK A   0       5.931  32.698  59.832  1.00  0.00     0.020 A 
HETATM   27  C   UNK A   0       6.997  32.143  60.554  1.00  0.00    -0.005 A 
HETATM   28  C   UNK A   0       7.777  31.106  59.995  1.00  0.00     0.093 A 
HETATM   29  C   UNK A   0       7.325  32.606  61.835  1.00  0.00     0.015 A 
HETATM   30  N   UNK A   0       8.816  30.562  60.674  1.00  0.00    -0.258 NA
HETATM   31  C   UNK A   0       9.103  31.038  61.906  1.00  0.00     0.117 A 
HETATM   32  C   UNK A   0       8.395  32.050  62.522  1.00  0.00     0.020 A 
ENDBRANCH   1  22
TORSDOF 6
ENDMDL
MODEL 10
REMARK VINA RESULT:      -9.2      1.792      9.238
REMARK  6 active torsions:
REMARK  status: ('A' for Active; 'I' for Inactive)
REMARK    1  A    between atoms: C_4  and  N_5 
REMARK       I    between atoms: N_5  and  C_6 
REMARK       I    between atoms: C_6  and  N_16 
REMARK    2  A    between atoms: N_16  and  CA_17 
REMARK    3  A    between atoms: CA_17  and  C_18 
REMARK    4  A    between atoms: CA_17  and  CB_20 
REMARK    5  A    between atoms: C_18  and  O_19 
REMARK    6  A    between atoms: CB_20  and  CG_21 
ROOT
HETATM    1  N   UNK A   0       7.654  29.647  56.904  1.00  0.00    -0.307 N 
HETATM    2  C   UNK A   0       7.380  28.384  56.495  1.00  0.00     0.321 C 
HETATM    3  O   UNK A   0       7.259  28.145  55.295  1.00  0.00    -0.247 OA
HETATM    4  H   UNK A   0       7.798  30.280  56.118  1.00  0.00     0.170 HD
ATOM      5  N   TRP A   1       7.249  27.422  57.440  1.00  0.00    -0.336 N 
ATOM      6  H   TRP A   1       7.936  27.473  58.177  1.00  0.00     0.164 HD
ENDROOT
BRANCH   5   7
ATOM      7  CA  TRP A   1       6.808  26.061  57.102  1.00  0.00     0.114 C 
BRANCH   7   8
ATOM      8  C   TRP A   1       5.309  26.060  56.754  1.00  0.00     0.189 C 
BRANCH   8   9
ATOM      9  O   TRP A   1       5.120  25.914  55.344  1.00  0.00    -0.399 OA
ATOM     10  H   TRP A   1       4.231  25.536  55.228  1.00  0.00     0.209 HD
ENDBRANCH   8   9
ENDBRANCH   7   8
BRANCH   7  11
ATOM     11  CB  TRP A   1       7.652  25.496  55.940  1.00  0.00     0.068 C 
BRANCH  11  12
ATOM     12  CG  TRP A   1       7.952  24.026  56.080  1.00  0.00    -0.028 A 
ATOM     13  CD2 TRP A   1       7.945  23.042  55.034  1.00  0.00    -0.002 A 
ATOM     14  CE2 TRP A   1       8.264  21.811  55.611  1.00  0.00     0.042 A 
ATOM     15  CE3 TRP A   1       7.691  23.080  53.647  1.00  0.00     0.014 A 
ATOM     16  CZ2 TRP A   1       8.341  20.622  54.877  1.00  0.00     0.030 A 
ATOM     17  NE1 TRP A   1       8.459  22.033  56.953  1.00  0.00    -0.365 N 
ATOM     18  CH2 TRP A   1       8.086  20.690  53.506  1.00  0.00     0.002 A 
ATOM     19  CZ3 TRP A   1       7.766  21.900  52.897  1.00  0.00     0.001 A 
ATOM     20  HE1 TRP A   1       8.688  21.314  57.625  1.00  0.00     0.165 HD
ATOM     21  CD1 TRP A   1       8.284  23.357  57.243  1.00  0.00     0.096 A 
ENDBRANCH  11  12
ENDBRANCH   7  11
ENDBRANCH   5   7
BRANCH   1  22
HETATM   22  C   UNK A   0       7.646  30.329  58.147  1.00  0.00     0.066 A 
HETATM   23  C   UNK A   0       8.529  30.079  59.205  1.00  0.00     0.038 A 
HETATM   24  C   UNK A   0       8.437  30.792  60.407  1.00  0.00    -0.059 A 
HETATM   25  C   UNK A   0       9.377  30.511  61.541  1.00  0.00     0.048 C 
HETATM   26  C   UNK A   0       7.423  31.741  60.555  1.00  0.00     0.020 A 
HETATM   27  C   UNK A   0       6.516  31.984  59.515  1.00  0.00    -0.005 A 
HETATM   28  C   UNK A   0       6.622  31.284  58.293  1.00  0.00     0.093 A 
HETATM   29  C   UNK A   0       5.477  32.914  59.662  1.00  0.00     0.015 A 
HETATM   30  N   UNK A   0       5.750  31.500  57.279  1.00  0.00    -0.258 NA
HETATM   31  C   UNK A   0       4.760  32.402  57.459  1.00  0.00     0.117 A 
HETATM   32  C   UNK A   0       4.583  33.125  58.621  1.00  0.00     0.020 A 
ENDBRANCH   1  22
TORSDOF 6
ENDMDL
