MODEL 1
REMARK VINA RESULT:      -8.8      0.000      0.000
REMARK  3 active torsions:
REMARK  status: ('A' for Active; 'I' for Inactive)
REMARK    1  A    between atoms: C_3  and  N_4 
REMARK       I    between atoms: N_4  and  C_5 
REMARK    2  A    between atoms: C_5  and  C_6 
REMARK    3  A    between atoms: C_6  and  C_7 
ROOT
HETATM    1  C   UNL     1       6.195  25.870  56.371  1.00  0.00     0.286 C 
HETATM    2  N   UNL     1       6.376  25.509  54.891  1.00  0.00    -0.056 N 
HETATM    3  H   UNL     1       5.472  25.607  54.396  1.00  0.00     0.278 HD
HETATM    4  H   UNL     1       6.991  26.204  54.442  1.00  0.00     0.278 HD
HETATM    5  C   UNL     1       6.940  24.127  54.749  1.00  0.00     0.209 C 
HETATM    6  C   UNL     1       8.342  24.127  55.397  1.00  0.00     0.115 C 
HETATM    7  N   UNL     1       8.295  24.593  56.783  1.00  0.00    -0.353 N 
HETATM    8  C   UNL     1       7.479  25.626  57.195  1.00  0.00     0.249 C 
HETATM    9  O   UNL     1       7.736  26.242  58.223  1.00  0.00    -0.271 OA
HETATM   10  C   UNL     1       6.996  23.723  53.283  1.00  0.00     0.035 C 
HETATM   11  C   UNL     1       7.625  22.335  53.157  1.00  0.00     0.002 C 
HETATM   12  C   UNL     1       9.005  22.273  53.816  1.00  0.00     0.002 C 
HETATM   13  C   UNL     1       8.982  22.745  55.273  1.00  0.00     0.027 C 
HETATM   14  H   UNL     1       9.141  24.510  57.346  1.00  0.00     0.163 HD
ENDROOT
BRANCH   1  15
HETATM   15  C   UNL     1       5.714  27.311  56.492  1.00  0.00     0.146 C 
BRANCH  15  16
HETATM   16  C   UNL     1       6.170  28.041  55.264  1.00  0.00     0.224 C 
HETATM   17  N   UNL     1       7.212  28.904  55.234  1.00  0.00    -0.325 N 
HETATM   18  H   UNL     1       7.231  29.441  54.366  1.00  0.00     0.169 HD
HETATM   19  O   UNL     1       5.398  28.034  54.295  1.00  0.00    -0.273 OA
BRANCH  17  20
HETATM   20  C   UNL     1       8.190  29.310  56.161  1.00  0.00     0.073 A 
HETATM   21  C   UNL     1       7.980  29.605  57.505  1.00  0.00     0.033 A 
HETATM   22  C   UNL     1       9.051  30.024  58.309  1.00  0.00     0.002 A 
HETATM   23  C   UNL     1      10.338  30.141  57.781  1.00  0.00     0.003 A 
HETATM   24  C   UNL     1      10.567  29.820  56.448  1.00  0.00     0.044 A 
HETATM   25  C   UNL     1       9.502  29.398  55.661  1.00  0.00     0.143 A 
HETATM   26  F   UNL     1       9.724  29.110  54.369  1.00  0.00    -0.204 F 
ENDBRANCH  17  20
ENDBRANCH  15  16
ENDBRANCH   1  15
TORSDOF 3
ENDMDL
MODEL 2
REMARK VINA RESULT:      -8.8      2.965      4.523
REMARK  3 active torsions:
REMARK  status: ('A' for Active; 'I' for Inactive)
REMARK    1  A    between atoms: C_3  and  N_4 
REMARK       I    between atoms: N_4  and  C_5 
REMARK    2  A    between atoms: C_5  and  C_6 
REMARK    3  A    between atoms: C_6  and  C_7 
ROOT
HETATM    1  C   UNL     1       6.962  25.119  55.972  1.00  0.00     0.286 C 
HETATM    2  N   UNL     1       7.415  24.296  54.759  1.00  0.00    -0.056 N 
HETATM    3  H   UNL     1       6.781  24.478  53.960  1.00  0.00     0.278 HD
HETATM    4  H   UNL     1       8.334  24.636  54.440  1.00  0.00     0.278 HD
HETATM    5  C   UNL     1       7.474  22.838  55.101  1.00  0.00     0.209 C 
HETATM    6  C   UNL     1       8.544  22.661  56.202  1.00  0.00     0.115 C 
HETATM    7  N   UNL     1       8.273  23.515  57.357  1.00  0.00    -0.353 N 
HETATM    8  C   UNL     1       7.790  24.802  57.238  1.00  0.00     0.249 C 
HETATM    9  O   UNL     1       7.945  25.606  58.149  1.00  0.00    -0.271 OA
HETATM   10  C   UNL     1       7.797  22.014  53.863  1.00  0.00     0.035 C 
HETATM   11  C   UNL     1       7.908  20.537  54.245  1.00  0.00     0.002 C 
HETATM   12  C   UNL     1       8.932  20.312  55.359  1.00  0.00     0.002 C 
HETATM   13  C   UNL     1       8.666  21.187  56.587  1.00  0.00     0.027 C 
HETATM   14  H   UNL     1       8.841  23.383  58.194  1.00  0.00     0.163 HD
ENDROOT
BRANCH   1  15
HETATM   15  C   UNL     1       7.003  26.603  55.630  1.00  0.00     0.146 C 
BRANCH  15  16
HETATM   16  C   UNL     1       5.592  27.110  55.661  1.00  0.00     0.224 C 
HETATM   17  N   UNL     1       4.825  27.295  54.562  1.00  0.00    -0.325 N 
HETATM   18  H   UNL     1       3.982  27.830  54.777  1.00  0.00     0.169 HD
HETATM   19  O   UNL     1       5.205  27.612  56.727  1.00  0.00    -0.273 OA
BRANCH  17  20
HETATM   20  C   UNL     1       4.978  27.027  53.189  1.00  0.00     0.073 A 
HETATM   21  C   UNL     1       5.307  27.950  52.201  1.00  0.00     0.033 A 
HETATM   22  C   UNL     1       5.401  27.542  50.861  1.00  0.00     0.002 A 
HETATM   23  C   UNL     1       5.181  26.212  50.502  1.00  0.00     0.003 A 
HETATM   24  C   UNL     1       4.883  25.274  51.484  1.00  0.00     0.044 A 
HETATM   25  C   UNL     1       4.799  25.685  52.809  1.00  0.00     0.143 A 
HETATM   26  F   UNL     1       4.489  24.779  53.750  1.00  0.00    -0.204 F 
ENDBRANCH  17  20
ENDBRANCH  15  16
ENDBRANCH   1  15
TORSDOF 3
ENDMDL
MODEL 3
REMARK VINA RESULT:      -8.7      3.854      6.335
REMARK  3 active torsions:
REMARK  status: ('A' for Active; 'I' for Inactive)
REMARK    1  A    between atoms: C_3  and  N_4 
REMARK       I    between atoms: N_4  and  C_5 
REMARK    2  A    between atoms: C_5  and  C_6 
REMARK    3  A    between atoms: C_6  and  C_7 
ROOT
HETATM    1  C   UNL     1       4.790  26.986  52.931  1.00  0.00     0.286 C 
HETATM    2  N   UNL     1       5.520  27.921  51.957  1.00  0.00    -0.056 N 
HETATM    3  H   UNL     1       5.541  28.880  52.347  1.00  0.00     0.278 HD
HETATM    4  H   UNL     1       6.512  27.646  51.899  1.00  0.00     0.278 HD
HETATM    5  C   UNL     1       4.875  27.885  50.605  1.00  0.00     0.209 C 
HETATM    6  C   UNL     1       5.020  26.447  50.058  1.00  0.00     0.115 C 
HETATM    7  N   UNL     1       4.472  25.459  50.987  1.00  0.00    -0.353 N 
HETATM    8  C   UNL     1       4.613  25.563  52.355  1.00  0.00     0.249 C 
HETATM    9  O   UNL     1       4.506  24.568  53.063  1.00  0.00    -0.271 OA
HETATM   10  C   UNL     1       5.519  28.907  49.681  1.00  0.00     0.035 C 
HETATM   11  C   UNL     1       4.885  28.815  48.292  1.00  0.00     0.002 C 
HETATM   12  C   UNL     1       4.971  27.399  47.719  1.00  0.00     0.002 C 
HETATM   13  C   UNL     1       4.393  26.345  48.668  1.00  0.00     0.027 C 
HETATM   14  H   UNL     1       4.396  24.493  50.670  1.00  0.00     0.163 HD
ENDROOT
BRANCH   1  15
HETATM   15  C   UNL     1       5.521  26.965  54.268  1.00  0.00     0.146 C 
BRANCH  15  16
HETATM   16  C   UNL     1       6.982  27.147  53.984  1.00  0.00     0.224 C 
HETATM   17  N   UNL     1       7.885  26.140  53.967  1.00  0.00    -0.325 N 
HETATM   18  H   UNL     1       8.844  26.494  53.956  1.00  0.00     0.169 HD
HETATM   19  O   UNL     1       7.412  28.309  54.009  1.00  0.00    -0.273 OA
BRANCH  17  20
HETATM   20  C   UNL     1       7.811  24.739  54.081  1.00  0.00     0.073 A 
HETATM   21  C   UNL     1       7.643  24.016  55.258  1.00  0.00     0.033 A 
HETATM   22  C   UNL     1       7.613  22.613  55.223  1.00  0.00     0.002 A 
HETATM   23  C   UNL     1       7.738  21.926  54.015  1.00  0.00     0.003 A 
HETATM   24  C   UNL     1       7.874  22.637  52.829  1.00  0.00     0.044 A 
HETATM   25  C   UNL     1       7.896  24.026  52.872  1.00  0.00     0.143 A 
HETATM   26  F   UNL     1       8.051  24.707  51.725  1.00  0.00    -0.204 F 
ENDBRANCH  17  20
ENDBRANCH  15  16
ENDBRANCH   1  15
TORSDOF 3
ENDMDL
MODEL 4
REMARK VINA RESULT:      -8.7      3.066      6.181
REMARK  3 active torsions:
REMARK  status: ('A' for Active; 'I' for Inactive)
REMARK    1  A    between atoms: C_3  and  N_4 
REMARK       I    between atoms: N_4  and  C_5 
REMARK    2  A    between atoms: C_5  and  C_6 
REMARK    3  A    between atoms: C_6  and  C_7 
ROOT
HETATM    1  C   UNL     1       6.792  25.847  55.315  1.00  0.00     0.286 C 
HETATM    2  N   UNL     1       5.859  25.229  54.265  1.00  0.00    -0.056 N 
HETATM    3  H   UNL     1       6.097  24.230  54.135  1.00  0.00     0.278 HD
HETATM    4  H   UNL     1       4.895  25.217  54.630  1.00  0.00     0.278 HD
HETATM    5  C   UNL     1       5.933  25.991  52.977  1.00  0.00     0.209 C 
HETATM    6  C   UNL     1       5.428  27.424  53.254  1.00  0.00     0.115 C 
HETATM    7  N   UNL     1       6.172  28.056  54.343  1.00  0.00    -0.353 N 
HETATM    8  C   UNL     1       6.573  27.369  55.470  1.00  0.00     0.249 C 
HETATM    9  O   UNL     1       6.827  27.975  56.504  1.00  0.00    -0.271 OA
HETATM   10  C   UNL     1       5.108  25.300  51.902  1.00  0.00     0.035 C 
HETATM   11  C   UNL     1       5.153  26.123  50.613  1.00  0.00     0.002 C 
HETATM   12  C   UNL     1       4.694  27.565  50.841  1.00  0.00     0.002 C 
HETATM   13  C   UNL     1       5.464  28.255  51.971  1.00  0.00     0.027 C 
HETATM   14  H   UNL     1       6.010  29.047  54.522  1.00  0.00     0.163 HD
ENDROOT
BRANCH   1  15
HETATM   15  C   UNL     1       6.626  25.117  56.643  1.00  0.00     0.146 C 
BRANCH  15  16
HETATM   16  C   UNL     1       7.999  24.819  57.165  1.00  0.00     0.224 C 
HETATM   17  N   UNL     1       8.726  23.732  56.818  1.00  0.00    -0.325 N 
HETATM   18  H   UNL     1       9.536  23.610  57.429  1.00  0.00     0.169 HD
HETATM   19  O   UNL     1       8.375  25.476  58.146  1.00  0.00    -0.273 OA
BRANCH  17  20
HETATM   20  C   UNL     1       8.560  22.679  55.898  1.00  0.00     0.073 A 
HETATM   21  C   UNL     1       8.600  22.783  54.511  1.00  0.00     0.033 A 
HETATM   22  C   UNL     1       8.390  21.647  53.715  1.00  0.00     0.002 A 
HETATM   23  C   UNL     1       8.153  20.401  54.296  1.00  0.00     0.003 A 
HETATM   24  C   UNL     1       8.142  20.278  55.681  1.00  0.00     0.044 A 
HETATM   25  C   UNL     1       8.358  21.407  56.462  1.00  0.00     0.143 A 
HETATM   26  F   UNL     1       8.324  21.286  57.799  1.00  0.00    -0.204 F 
ENDBRANCH  17  20
ENDBRANCH  15  16
ENDBRANCH   1  15
TORSDOF 3
ENDMDL
MODEL 5
REMARK VINA RESULT:      -8.3      2.677      6.519
REMARK  3 active torsions:
REMARK  status: ('A' for Active; 'I' for Inactive)
REMARK    1  A    between atoms: C_3  and  N_4 
REMARK       I    between atoms: N_4  and  C_5 
REMARK    2  A    between atoms: C_5  and  C_6 
REMARK    3  A    between atoms: C_6  and  C_7 
ROOT
HETATM    1  C   UNL     1       5.719  25.806  54.695  1.00  0.00     0.286 C 
HETATM    2  N   UNL     1       7.020  26.136  55.440  1.00  0.00    -0.056 N 
HETATM    3  H   UNL     1       7.352  25.295  55.946  1.00  0.00     0.278 HD
HETATM    4  H   UNL     1       7.765  26.333  54.755  1.00  0.00     0.278 HD
HETATM    5  C   UNL     1       6.821  27.298  56.364  1.00  0.00     0.209 C 
HETATM    6  C   UNL     1       6.464  28.527  55.497  1.00  0.00     0.115 C 
HETATM    7  N   UNL     1       5.308  28.263  54.640  1.00  0.00    -0.353 N 
HETATM    8  C   UNL     1       5.101  27.050  54.018  1.00  0.00     0.249 C 
HETATM    9  O   UNL     1       4.380  26.979  53.030  1.00  0.00    -0.271 OA
HETATM   10  C   UNL     1       8.073  27.539  57.194  1.00  0.00     0.035 C 
HETATM   11  C   UNL     1       7.868  28.763  58.088  1.00  0.00     0.002 C 
HETATM   12  C   UNL     1       7.478  30.002  57.279  1.00  0.00     0.002 C 
HETATM   13  C   UNL     1       6.262  29.757  56.380  1.00  0.00     0.027 C 
HETATM   14  H   UNL     1       4.906  29.045  54.124  1.00  0.00     0.163 HD
ENDROOT
BRANCH   1  15
HETATM   15  C   UNL     1       5.971  24.686  53.693  1.00  0.00     0.146 C 
BRANCH  15  16
HETATM   16  C   UNL     1       7.424  24.731  53.326  1.00  0.00     0.224 C 
HETATM   17  N   UNL     1       8.356  23.872  53.799  1.00  0.00    -0.325 N 
HETATM   18  H   UNL     1       9.304  24.192  53.592  1.00  0.00     0.169 HD
HETATM   19  O   UNL     1       7.822  25.757  52.755  1.00  0.00    -0.273 OA
BRANCH  17  20
HETATM   20  C   UNL     1       8.323  22.717  54.604  1.00  0.00     0.073 A 
HETATM   21  C   UNL     1       8.418  22.677  55.992  1.00  0.00     0.033 A 
HETATM   22  C   UNL     1       8.395  21.445  56.663  1.00  0.00     0.002 A 
HETATM   23  C   UNL     1       8.266  20.249  55.956  1.00  0.00     0.003 A 
HETATM   24  C   UNL     1       8.138  20.277  54.572  1.00  0.00     0.044 A 
HETATM   25  C   UNL     1       8.154  21.503  53.916  1.00  0.00     0.143 A 
HETATM   26  F   UNL     1       8.053  21.522  52.578  1.00  0.00    -0.204 F 
ENDBRANCH  17  20
ENDBRANCH  15  16
ENDBRANCH   1  15
TORSDOF 3
ENDMDL
MODEL 6
REMARK VINA RESULT:      -8.2      3.419      5.271
REMARK  3 active torsions:
REMARK  status: ('A' for Active; 'I' for Inactive)
REMARK    1  A    between atoms: C_3  and  N_4 
REMARK       I    between atoms: N_4  and  C_5 
REMARK    2  A    between atoms: C_5  and  C_6 
REMARK    3  A    between atoms: C_6  and  C_7 
ROOT
HETATM    1  C   UNL     1       8.036  25.130  54.555  1.00  0.00     0.286 C 
HETATM    2  N   UNL     1       7.619  24.041  55.552  1.00  0.00    -0.056 N 
HETATM    3  H   UNL     1       7.742  24.390  56.519  1.00  0.00     0.278 HD
HETATM    4  H   UNL     1       6.606  23.871  55.468  1.00  0.00     0.278 HD
HETATM    5  C   UNL     1       8.394  22.781  55.314  1.00  0.00     0.209 C 
HETATM    6  C   UNL     1       8.034  22.272  53.900  1.00  0.00     0.115 C 
HETATM    7  N   UNL     1       8.269  23.297  52.883  1.00  0.00    -0.353 N 
HETATM    8  C   UNL     1       7.996  24.633  53.093  1.00  0.00     0.249 C 
HETATM    9  O   UNL     1       7.825  25.384  52.140  1.00  0.00    -0.271 OA
HETATM   10  C   UNL     1       8.072  21.748  56.384  1.00  0.00     0.035 C 
HETATM   11  C   UNL     1       8.830  20.452  56.090  1.00  0.00     0.002 C 
HETATM   12  C   UNL     1       8.534  19.924  54.685  1.00  0.00     0.002 C 
HETATM   13  C   UNL     1       8.783  20.974  53.598  1.00  0.00     0.027 C 
HETATM   14  H   UNL     1       8.190  23.027  51.904  1.00  0.00     0.163 HD
ENDROOT
BRANCH   1  15
HETATM   15  C   UNL     1       7.168  26.367  54.753  1.00  0.00     0.146 C 
BRANCH  15  16
HETATM   16  C   UNL     1       5.744  25.906  54.839  1.00  0.00     0.224 C 
HETATM   17  N   UNL     1       4.820  26.101  53.869  1.00  0.00    -0.325 N 
HETATM   18  H   UNL     1       3.876  25.896  54.202  1.00  0.00     0.169 HD
HETATM   19  O   UNL     1       5.342  25.549  55.956  1.00  0.00    -0.273 OA
BRANCH  17  20
HETATM   20  C   UNL     1       4.849  26.627  52.564  1.00  0.00     0.073 A 
HETATM   21  C   UNL     1       4.956  27.971  52.220  1.00  0.00     0.033 A 
HETATM   22  C   UNL     1       4.945  28.354  50.870  1.00  0.00     0.002 A 
HETATM   23  C   UNL     1       4.841  27.399  49.857  1.00  0.00     0.003 A 
HETATM   24  C   UNL     1       4.765  26.051  50.187  1.00  0.00     0.044 A 
HETATM   25  C   UNL     1       4.783  25.680  51.526  1.00  0.00     0.143 A 
HETATM   26  F   UNL     1       4.687  24.378  51.839  1.00  0.00    -0.204 F 
ENDBRANCH  17  20
ENDBRANCH  15  16
ENDBRANCH   1  15
TORSDOF 3
ENDMDL
MODEL 7
REMARK VINA RESULT:      -8.2      2.596      7.253
REMARK  3 active torsions:
REMARK  status: ('A' for Active; 'I' for Inactive)
REMARK    1  A    between atoms: C_3  and  N_4 
REMARK       I    between atoms: N_4  and  C_5 
REMARK    2  A    between atoms: C_5  and  C_6 
REMARK    3  A    between atoms: C_6  and  C_7 
ROOT
HETATM    1  C   UNL     1       7.347  28.568  57.684  1.00  0.00     0.286 C 
HETATM    2  N   UNL     1       8.578  29.373  58.123  1.00  0.00    -0.056 N 
HETATM    3  H   UNL     1       9.375  28.730  58.279  1.00  0.00     0.278 HD
HETATM    4  H   UNL     1       8.885  29.978  57.347  1.00  0.00     0.278 HD
HETATM    5  C   UNL     1       8.272  30.184  59.345  1.00  0.00     0.209 C 
HETATM    6  C   UNL     1       7.170  31.199  58.966  1.00  0.00     0.115 C 
HETATM    7  N   UNL     1       5.995  30.534  58.404  1.00  0.00    -0.353 N 
HETATM    8  C   UNL     1       6.086  29.451  57.554  1.00  0.00     0.249 C 
HETATM    9  O   UNL     1       5.155  29.173  56.808  1.00  0.00    -0.271 OA
HETATM   10  C   UNL     1       9.527  30.878  59.852  1.00  0.00     0.035 C 
HETATM   11  C   UNL     1       9.181  31.744  61.064  1.00  0.00     0.002 C 
HETATM   12  C   UNL     1       8.067  32.745  60.750  1.00  0.00     0.002 C 
HETATM   13  C   UNL     1       6.819  32.073  60.170  1.00  0.00     0.027 C 
HETATM   14  H   UNL     1       5.159  31.094  58.241  1.00  0.00     0.163 HD
ENDROOT
BRANCH   1  15
HETATM   15  C   UNL     1       7.653  27.829  56.388  1.00  0.00     0.146 C 
BRANCH  15  16
HETATM   16  C   UNL     1       7.948  26.402  56.743  1.00  0.00     0.224 C 
HETATM   17  N   UNL     1       7.657  25.344  55.952  1.00  0.00    -0.325 N 
HETATM   18  H   UNL     1       7.749  24.460  56.455  1.00  0.00     0.169 HD
HETATM   19  O   UNL     1       8.248  26.175  57.924  1.00  0.00    -0.273 OA
BRANCH  17  20
HETATM   20  C   UNL     1       7.147  25.191  54.648  1.00  0.00     0.073 A 
HETATM   21  C   UNL     1       7.894  25.084  53.479  1.00  0.00     0.033 A 
HETATM   22  C   UNL     1       7.246  24.961  52.240  1.00  0.00     0.002 A 
HETATM   23  C   UNL     1       5.853  24.931  52.162  1.00  0.00     0.003 A 
HETATM   24  C   UNL     1       5.097  25.005  53.325  1.00  0.00     0.044 A 
HETATM   25  C   UNL     1       5.746  25.120  54.549  1.00  0.00     0.143 A 
HETATM   26  F   UNL     1       5.010  25.214  55.667  1.00  0.00    -0.204 F 
ENDBRANCH  17  20
ENDBRANCH  15  16
ENDBRANCH   1  15
TORSDOF 3
ENDMDL
MODEL 8
REMARK VINA RESULT:      -8.2      3.491      6.621
REMARK  3 active torsions:
REMARK  status: ('A' for Active; 'I' for Inactive)
REMARK    1  A    between atoms: C_3  and  N_4 
REMARK       I    between atoms: N_4  and  C_5 
REMARK    2  A    between atoms: C_5  and  C_6 
REMARK    3  A    between atoms: C_6  and  C_7 
ROOT
HETATM    1  C   UNL     1       5.628  26.088  54.238  1.00  0.00     0.286 C 
HETATM    2  N   UNL     1       4.642  27.079  53.605  1.00  0.00    -0.056 N 
HETATM    3  H   UNL     1       4.861  27.190  52.599  1.00  0.00     0.278 HD
HETATM    4  H   UNL     1       3.694  26.673  53.618  1.00  0.00     0.278 HD
HETATM    5  C   UNL     1       4.672  28.391  54.329  1.00  0.00     0.209 C 
HETATM    6  C   UNL     1       4.199  28.135  55.777  1.00  0.00     0.115 C 
HETATM    7  N   UNL     1       4.997  27.097  56.428  1.00  0.00    -0.353 N 
HETATM    8  C   UNL     1       5.437  25.968  55.767  1.00  0.00     0.249 C 
HETATM    9  O   UNL     1       5.743  24.964  56.398  1.00  0.00    -0.271 OA
HETATM   10  C   UNL     1       3.792  29.410  53.620  1.00  0.00     0.035 C 
HETATM   11  C   UNL     1       3.792  30.722  54.405  1.00  0.00     0.002 C 
HETATM   12  C   UNL     1       3.364  30.517  55.860  1.00  0.00     0.002 C 
HETATM   13  C   UNL     1       4.192  29.442  56.570  1.00  0.00     0.027 C 
HETATM   14  H   UNL     1       4.858  26.940  57.426  1.00  0.00     0.163 HD
ENDROOT
BRANCH   1  15
HETATM   15  C   UNL     1       5.509  24.734  53.549  1.00  0.00     0.146 C 
BRANCH  15  16
HETATM   16  C   UNL     1       6.638  24.630  52.568  1.00  0.00     0.224 C 
HETATM   17  N   UNL     1       7.654  23.742  52.667  1.00  0.00    -0.325 N 
HETATM   18  H   UNL     1       8.414  23.966  52.023  1.00  0.00     0.169 HD
HETATM   19  O   UNL     1       6.766  25.567  51.767  1.00  0.00    -0.273 OA
BRANCH  17  20
HETATM   20  C   UNL     1       7.951  22.667  53.527  1.00  0.00     0.073 A 
HETATM   21  C   UNL     1       7.844  21.314  53.221  1.00  0.00     0.033 A 
HETATM   22  C   UNL     1       8.152  20.347  54.190  1.00  0.00     0.002 A 
HETATM   23  C   UNL     1       8.580  20.724  55.464  1.00  0.00     0.003 A 
HETATM   24  C   UNL     1       8.722  22.072  55.772  1.00  0.00     0.044 A 
HETATM   25  C   UNL     1       8.421  23.023  54.803  1.00  0.00     0.143 A 
HETATM   26  F   UNL     1       8.538  24.324  55.114  1.00  0.00    -0.204 F 
ENDBRANCH  17  20
ENDBRANCH  15  16
ENDBRANCH   1  15
TORSDOF 3
ENDMDL
MODEL 9
REMARK VINA RESULT:      -8.2      4.135      6.993
REMARK  3 active torsions:
REMARK  status: ('A' for Active; 'I' for Inactive)
REMARK    1  A    between atoms: C_3  and  N_4 
REMARK       I    between atoms: N_4  and  C_5 
REMARK    2  A    between atoms: C_5  and  C_6 
REMARK    3  A    between atoms: C_6  and  C_7 
ROOT
HETATM    1  C   UNL     1       5.835  25.947  53.146  1.00  0.00     0.286 C 
HETATM    2  N   UNL     1       5.018  26.243  51.881  1.00  0.00    -0.056 N 
HETATM    3  H   UNL     1       5.532  25.903  51.049  1.00  0.00     0.278 HD
HETATM    4  H   UNL     1       4.152  25.684  51.895  1.00  0.00     0.278 HD
HETATM    5  C   UNL     1       4.707  27.706  51.783  1.00  0.00     0.209 C 
HETATM    6  C   UNL     1       3.826  28.078  52.997  1.00  0.00     0.115 C 
HETATM    7  N   UNL     1       4.464  27.706  54.259  1.00  0.00    -0.353 N 
HETATM    8  C   UNL     1       5.184  26.539  54.416  1.00  0.00     0.249 C 
HETATM    9  O   UNL     1       5.360  26.069  55.534  1.00  0.00    -0.271 OA
HETATM   10  C   UNL     1       4.012  28.015  50.466  1.00  0.00     0.035 C 
HETATM   11  C   UNL     1       3.654  29.501  50.411  1.00  0.00     0.002 C 
HETATM   12  C   UNL     1       2.809  29.929  51.612  1.00  0.00     0.002 C 
HETATM   13  C   UNL     1       3.459  29.561  52.949  1.00  0.00     0.027 C 
HETATM   14  H   UNL     1       4.032  28.022  55.126  1.00  0.00     0.163 HD
ENDROOT
BRANCH   1  15
HETATM   15  C   UNL     1       6.054  24.444  53.275  1.00  0.00     0.146 C 
BRANCH  15  16
HETATM   16  C   UNL     1       7.353  24.121  52.599  1.00  0.00     0.224 C 
HETATM   17  N   UNL     1       8.272  23.257  53.088  1.00  0.00    -0.325 N 
HETATM   18  H   UNL     1       9.160  23.330  52.590  1.00  0.00     0.169 HD
HETATM   19  O   UNL     1       7.699  24.870  51.674  1.00  0.00    -0.273 OA
BRANCH  17  20
HETATM   20  C   UNL     1       8.321  22.379  54.187  1.00  0.00     0.073 A 
HETATM   21  C   UNL     1       8.353  22.740  55.530  1.00  0.00     0.033 A 
HETATM   22  C   UNL     1       8.427  21.752  56.523  1.00  0.00     0.002 A 
HETATM   23  C   UNL     1       8.458  20.399  56.183  1.00  0.00     0.003 A 
HETATM   24  C   UNL     1       8.395  20.023  54.846  1.00  0.00     0.044 A 
HETATM   25  C   UNL     1       8.314  21.009  53.870  1.00  0.00     0.143 A 
HETATM   26  F   UNL     1       8.276  20.641  52.579  1.00  0.00    -0.204 F 
ENDBRANCH  17  20
ENDBRANCH  15  16
ENDBRANCH   1  15
TORSDOF 3
ENDMDL
MODEL 10
REMARK VINA RESULT:      -8.0      1.793      2.425
REMARK  3 active torsions:
REMARK  status: ('A' for Active; 'I' for Inactive)
REMARK    1  A    between atoms: C_3  and  N_4 
REMARK       I    between atoms: N_4  and  C_5 
REMARK    2  A    between atoms: C_5  and  C_6 
REMARK    3  A    between atoms: C_6  and  C_7 
ROOT
HETATM    1  C   UNL     1       6.253  26.365  54.363  1.00  0.00     0.286 C 
HETATM    2  N   UNL     1       6.906  25.409  55.371  1.00  0.00    -0.056 N 
HETATM    3  H   UNL     1       7.422  25.955  56.083  1.00  0.00     0.278 HD
HETATM    4  H   UNL     1       6.171  24.921  55.904  1.00  0.00     0.278 HD
HETATM    5  C   UNL     1       7.797  24.429  54.669  1.00  0.00     0.209 C 
HETATM    6  C   UNL     1       6.909  23.577  53.736  1.00  0.00     0.115 C 
HETATM    7  N   UNL     1       6.134  24.412  52.819  1.00  0.00    -0.353 N 
HETATM    8  C   UNL     1       5.570  25.612  53.199  1.00  0.00     0.249 C 
HETATM    9  O   UNL     1       4.630  26.079  52.567  1.00  0.00    -0.271 OA
HETATM   10  C   UNL     1       8.542  23.569  55.679  1.00  0.00     0.035 C 
HETATM   11  C   UNL     1       9.401  22.541  54.943  1.00  0.00     0.002 C 
HETATM   12  C   UNL     1       8.572  21.691  53.977  1.00  0.00     0.002 C 
HETATM   13  C   UNL     1       7.758  22.542  52.998  1.00  0.00     0.027 C 
HETATM   14  H   UNL     1       5.615  23.951  52.073  1.00  0.00     0.163 HD
ENDROOT
BRANCH   1  15
HETATM   15  C   UNL     1       5.279  27.286  55.087  1.00  0.00     0.146 C 
BRANCH  15  16
HETATM   16  C   UNL     1       5.481  28.668  54.543  1.00  0.00     0.224 C 
HETATM   17  N   UNL     1       6.301  29.592  55.095  1.00  0.00    -0.325 N 
HETATM   18  H   UNL     1       6.144  30.520  54.699  1.00  0.00     0.169 HD
HETATM   19  O   UNL     1       4.667  29.054  53.691  1.00  0.00    -0.273 OA
BRANCH  17  20
HETATM   20  C   UNL     1       7.224  29.589  56.158  1.00  0.00     0.073 A 
HETATM   21  C   UNL     1       6.954  29.915  57.484  1.00  0.00     0.033 A 
HETATM   22  C   UNL     1       7.984  29.893  58.437  1.00  0.00     0.002 A 
HETATM   23  C   UNL     1       9.283  29.536  58.076  1.00  0.00     0.003 A 
HETATM   24  C   UNL     1       9.559  29.178  56.762  1.00  0.00     0.044 A 
HETATM   25  C   UNL     1       8.532  29.195  55.826  1.00  0.00     0.143 A 
HETATM   26  F   UNL     1       8.809  28.870  54.553  1.00  0.00    -0.204 F 
ENDBRANCH  17  20
ENDBRANCH  15  16
ENDBRANCH   1  15
TORSDOF 3
ENDMDL
