MODEL 1
REMARK VINA RESULT:     -10.2      0.000      0.000
REMARK  5 active torsions:
REMARK  status: ('A' for Active; 'I' for Inactive)
REMARK    1  A    between atoms: O_2  and  C_3 
REMARK    2  A    between atoms: C_4  and  C_5 
REMARK    3  A    between atoms: C_9  and  S_10 
REMARK    4  A    between atoms: S_10  and  C_11 
REMARK    5  A    between atoms: C_11  and  C_12 
REMARK       I    between atoms: C_12  and  N_13 
ROOT
HETATM    1  C   UNL     1       8.556  31.694  59.551  1.00  0.00     0.185 A 
HETATM    2  N   UNL     1       9.677  32.269  59.087  1.00  0.00    -0.152 NA
HETATM    3  N   UNL     1      10.088  31.377  58.173  1.00  0.00    -0.253 N 
HETATM    4  H   UNL     1      10.913  31.584  57.626  1.00  0.00     0.191 HD
HETATM    5  C   UNL     1       9.250  30.310  58.109  1.00  0.00     0.185 A 
HETATM    6  N   UNL     1       8.259  30.487  58.947  1.00  0.00    -0.201 NA
ENDROOT
BRANCH   5   7
HETATM    7  S   UNL     1       9.419  28.997  57.002  1.00  0.00    -0.081 SA
BRANCH   7   8
HETATM    8  C   UNL     1       7.716  28.456  56.719  1.00  0.00     0.185 C 
BRANCH   8   9
HETATM    9  C   UNL     1       7.655  27.444  55.580  1.00  0.00     0.234 C 
HETATM   10  N   UNL     1       7.669  26.074  55.887  1.00  0.00    -0.317 N 
HETATM   11  C   UNL     1       7.673  25.047  54.864  1.00  0.00     0.043 A 
HETATM   12  C   UNL     1       7.663  25.559  57.266  1.00  0.00     0.132 C 
HETATM   13  C   UNL     1       8.069  23.729  55.191  1.00  0.00    -0.031 A 
HETATM   14  C   UNL     1       7.289  25.295  53.537  1.00  0.00     0.030 A 
HETATM   15  C   UNL     1       8.078  22.721  54.206  1.00  0.00     0.009 A 
HETATM   16  C   UNL     1       8.476  23.330  56.587  1.00  0.00     0.042 C 
HETATM   17  C   UNL     1       7.707  23.003  52.897  1.00  0.00     0.001 A 
HETATM   18  C   UNL     1       7.309  24.289  52.564  1.00  0.00     0.002 A 
HETATM   19  C   UNL     1       8.762  24.532  57.465  1.00  0.00     0.025 C 
HETATM   20  O   UNL     1       7.665  27.912  54.436  1.00  0.00    -0.272 OA
ENDBRANCH   8   9
ENDBRANCH   7   8
ENDBRANCH   5   7
BRANCH   1  21
HETATM   21  C   UNL     1       7.640  32.330  60.491  1.00  0.00     0.048 A 
HETATM   22  C   UNL     1       6.368  32.797  60.118  1.00  0.00     0.082 A 
HETATM   23  C   UNL     1       5.518  33.366  61.077  1.00  0.00     0.039 A 
HETATM   24  C   UNL     1       5.917  33.444  62.413  1.00  0.00     0.026 A 
HETATM   25  C   UNL     1       7.176  32.980  62.785  1.00  0.00     0.035 A 
HETATM   26  C   UNL     1       8.038  32.435  61.836  1.00  0.00     0.042 A 
HETATM   27 CL   UNL     1       7.667  33.081  64.431  1.00  0.00    -0.084 Cl
BRANCH  22  28
HETATM   28  O   UNL     1       6.011  32.791  58.793  1.00  0.00    -0.355 OA
HETATM   29  C   UNL     1       4.887  31.957  58.520  1.00  0.00     0.210 C 
ENDBRANCH  22  28
ENDBRANCH   1  21
TORSDOF 5
ENDMDL
MODEL 2
REMARK VINA RESULT:      -9.9      2.364      3.700
REMARK  5 active torsions:
REMARK  status: ('A' for Active; 'I' for Inactive)
REMARK    1  A    between atoms: O_2  and  C_3 
REMARK    2  A    between atoms: C_4  and  C_5 
REMARK    3  A    between atoms: C_9  and  S_10 
REMARK    4  A    between atoms: S_10  and  C_11 
REMARK    5  A    between atoms: C_11  and  C_12 
REMARK       I    between atoms: C_12  and  N_13 
ROOT
HETATM    1  C   UNL     1       7.125  30.280  58.272  1.00  0.00     0.185 A 
HETATM    2  N   UNL     1       6.033  30.915  57.816  1.00  0.00    -0.152 NA
HETATM    3  N   UNL     1       5.416  29.943  57.128  1.00  0.00    -0.253 N 
HETATM    4  H   UNL     1       4.522  30.142  56.700  1.00  0.00     0.191 HD
HETATM    5  C   UNL     1       6.122  28.783  57.164  1.00  0.00     0.185 A 
HETATM    6  N   UNL     1       7.194  28.951  57.898  1.00  0.00    -0.201 NA
ENDROOT
BRANCH   5   7
HETATM    7  S   UNL     1       5.605  27.300  56.451  1.00  0.00    -0.081 SA
BRANCH   7   8
HETATM    8  C   UNL     1       7.098  26.669  55.647  1.00  0.00     0.185 C 
BRANCH   8   9
HETATM    9  C   UNL     1       7.370  25.230  56.070  1.00  0.00     0.234 C 
HETATM   10  N   UNL     1       7.735  24.292  55.091  1.00  0.00    -0.317 N 
HETATM   11  C   UNL     1       7.955  22.892  55.398  1.00  0.00     0.043 A 
HETATM   12  C   UNL     1       7.943  24.644  53.677  1.00  0.00     0.132 C 
HETATM   13  C   UNL     1       7.939  21.932  54.359  1.00  0.00    -0.031 A 
HETATM   14  C   UNL     1       8.195  22.429  56.702  1.00  0.00     0.030 A 
HETATM   15  C   UNL     1       8.149  20.568  54.644  1.00  0.00     0.009 A 
HETATM   16  C   UNL     1       7.719  22.308  52.915  1.00  0.00     0.042 C 
HETATM   17  C   UNL     1       8.369  20.140  55.948  1.00  0.00     0.001 A 
HETATM   18  C   UNL     1       8.395  21.071  56.975  1.00  0.00     0.002 A 
HETATM   19  C   UNL     1       7.167  23.712  52.767  1.00  0.00     0.025 C 
HETATM   20  O   UNL     1       7.182  24.969  57.263  1.00  0.00    -0.272 OA
ENDBRANCH   8   9
ENDBRANCH   7   8
ENDBRANCH   5   7
BRANCH   1  21
HETATM   21  C   UNL     1       8.085  30.867  59.201  1.00  0.00     0.048 A 
HETATM   22  C   UNL     1       9.368  31.286  58.807  1.00  0.00     0.082 A 
HETATM   23  C   UNL     1      10.231  31.878  59.740  1.00  0.00     0.039 A 
HETATM   24  C   UNL     1       9.812  32.083  61.055  1.00  0.00     0.026 A 
HETATM   25  C   UNL     1       8.541  31.671  61.446  1.00  0.00     0.035 A 
HETATM   26  C   UNL     1       7.684  31.060  60.534  1.00  0.00     0.042 A 
HETATM   27 CL   UNL     1       8.028  31.922  63.070  1.00  0.00    -0.084 Cl
BRANCH  22  28
HETATM   28  O   UNL     1       9.804  31.011  57.535  1.00  0.00    -0.355 OA
HETATM   29  C   UNL     1      10.866  30.059  57.501  1.00  0.00     0.210 C 
ENDBRANCH  22  28
ENDBRANCH   1  21
TORSDOF 5
ENDMDL
MODEL 3
REMARK VINA RESULT:      -9.7      2.169      2.973
REMARK  5 active torsions:
REMARK  status: ('A' for Active; 'I' for Inactive)
REMARK    1  A    between atoms: O_2  and  C_3 
REMARK    2  A    between atoms: C_4  and  C_5 
REMARK    3  A    between atoms: C_9  and  S_10 
REMARK    4  A    between atoms: S_10  and  C_11 
REMARK    5  A    between atoms: C_11  and  C_12 
REMARK       I    between atoms: C_12  and  N_13 
ROOT
HETATM    1  C   UNL     1       7.592  29.200  57.681  1.00  0.00     0.185 A 
HETATM    2  N   UNL     1       8.026  27.989  58.068  1.00  0.00    -0.152 NA
HETATM    3  N   UNL     1       8.040  27.317  56.907  1.00  0.00    -0.253 N 
HETATM    4  H   UNL     1       8.375  26.363  56.901  1.00  0.00     0.191 HD
HETATM    5  C   UNL     1       7.619  28.096  55.877  1.00  0.00     0.185 A 
HETATM    6  N   UNL     1       7.351  29.297  56.324  1.00  0.00    -0.201 NA
ENDROOT
BRANCH   5   7
HETATM    7  S   UNL     1       7.569  27.595  54.227  1.00  0.00    -0.081 SA
BRANCH   7   8
HETATM    8  C   UNL     1       6.254  26.353  54.197  1.00  0.00     0.185 C 
BRANCH   8   9
HETATM    9  C   UNL     1       6.799  25.002  53.749  1.00  0.00     0.234 C 
HETATM   10  N   UNL     1       7.075  24.025  54.718  1.00  0.00    -0.317 N 
HETATM   11  C   UNL     1       7.648  22.736  54.384  1.00  0.00     0.043 A 
HETATM   12  C   UNL     1       6.792  24.211  56.151  1.00  0.00     0.132 C 
HETATM   13  C   UNL     1       8.256  21.952  55.393  1.00  0.00    -0.031 A 
HETATM   14  C   UNL     1       7.627  22.210  53.082  1.00  0.00     0.030 A 
HETATM   15  C   UNL     1       8.819  20.699  55.080  1.00  0.00     0.009 A 
HETATM   16  C   UNL     1       8.319  22.396  56.832  1.00  0.00     0.042 C 
HETATM   17  C   UNL     1       8.795  20.213  53.779  1.00  0.00     0.001 A 
HETATM   18  C   UNL     1       8.195  20.967  52.782  1.00  0.00     0.002 A 
HETATM   19  C   UNL     1       8.009  23.871  56.991  1.00  0.00     0.025 C 
HETATM   20  O   UNL     1       7.027  24.882  52.540  1.00  0.00    -0.272 OA
ENDBRANCH   8   9
ENDBRANCH   7   8
ENDBRANCH   5   7
BRANCH   1  21
HETATM   21  C   UNL     1       7.519  30.361  58.561  1.00  0.00     0.048 A 
HETATM   22  C   UNL     1       6.418  31.235  58.579  1.00  0.00     0.082 A 
HETATM   23  C   UNL     1       6.391  32.314  59.474  1.00  0.00     0.039 A 
HETATM   24  C   UNL     1       7.441  32.509  60.373  1.00  0.00     0.026 A 
HETATM   25  C   UNL     1       8.532  31.643  60.358  1.00  0.00     0.035 A 
HETATM   26  C   UNL     1       8.580  30.582  59.457  1.00  0.00     0.042 A 
HETATM   27 CL   UNL     1       9.827  31.888  61.464  1.00  0.00    -0.084 Cl
BRANCH  22  28
HETATM   28  O   UNL     1       5.426  31.087  57.642  1.00  0.00    -0.355 OA
HETATM   29  C   UNL     1       4.115  31.153  58.199  1.00  0.00     0.210 C 
ENDBRANCH  22  28
ENDBRANCH   1  21
TORSDOF 5
ENDMDL
MODEL 4
REMARK VINA RESULT:      -9.7      2.540      3.718
REMARK  5 active torsions:
REMARK  status: ('A' for Active; 'I' for Inactive)
REMARK    1  A    between atoms: O_2  and  C_3 
REMARK    2  A    between atoms: C_4  and  C_5 
REMARK    3  A    between atoms: C_9  and  S_10 
REMARK    4  A    between atoms: S_10  and  C_11 
REMARK    5  A    between atoms: C_11  and  C_12 
REMARK       I    between atoms: C_12  and  N_13 
ROOT
HETATM    1  C   UNL     1       7.062  29.470  57.185  1.00  0.00     0.185 A 
HETATM    2  N   UNL     1       5.994  28.685  57.402  1.00  0.00    -0.152 NA
HETATM    3  N   UNL     1       5.950  27.961  56.273  1.00  0.00    -0.253 N 
HETATM    4  H   UNL     1       5.245  27.241  56.184  1.00  0.00     0.191 HD
HETATM    5  C   UNL     1       6.944  28.313  55.417  1.00  0.00     0.185 A 
HETATM    6  N   UNL     1       7.680  29.245  55.969  1.00  0.00    -0.201 NA
ENDROOT
BRANCH   5   7
HETATM    7  S   UNL     1       7.243  27.551  53.898  1.00  0.00    -0.081 SA
BRANCH   7   8
HETATM    8  C   UNL     1       5.967  26.274  53.802  1.00  0.00     0.185 C 
BRANCH   8   9
HETATM    9  C   UNL     1       6.587  24.915  53.498  1.00  0.00     0.234 C 
HETATM   10  N   UNL     1       6.947  24.077  54.566  1.00  0.00    -0.317 N 
HETATM   11  C   UNL     1       7.594  22.796  54.367  1.00  0.00     0.043 A 
HETATM   12  C   UNL     1       6.686  24.414  55.975  1.00  0.00     0.132 C 
HETATM   13  C   UNL     1       8.274  22.176  55.441  1.00  0.00    -0.031 A 
HETATM   14  C   UNL     1       7.577  22.119  53.136  1.00  0.00     0.030 A 
HETATM   15  C   UNL     1       8.909  20.930  55.260  1.00  0.00     0.009 A 
HETATM   16  C   UNL     1       8.341  22.789  56.817  1.00  0.00     0.042 C 
HETATM   17  C   UNL     1       8.887  20.293  54.025  1.00  0.00     0.001 A 
HETATM   18  C   UNL     1       8.217  20.886  52.966  1.00  0.00     0.002 A 
HETATM   19  C   UNL     1       7.941  24.251  56.812  1.00  0.00     0.025 C 
HETATM   20  O   UNL     1       6.795  24.667  52.305  1.00  0.00    -0.272 OA
ENDBRANCH   8   9
ENDBRANCH   7   8
ENDBRANCH   5   7
BRANCH   1  21
HETATM   21  C   UNL     1       7.628  30.373  58.180  1.00  0.00     0.048 A 
HETATM   22  C   UNL     1       9.010  30.472  58.421  1.00  0.00     0.082 A 
HETATM   23  C   UNL     1       9.495  31.387  59.365  1.00  0.00     0.039 A 
HETATM   24  C   UNL     1       8.615  32.226  60.050  1.00  0.00     0.026 A 
HETATM   25  C   UNL     1       7.246  32.131  59.811  1.00  0.00     0.035 A 
HETATM   26  C   UNL     1       6.751  31.208  58.892  1.00  0.00     0.042 A 
HETATM   27 CL   UNL     1       6.162  33.163  60.660  1.00  0.00    -0.084 Cl
BRANCH  22  28
HETATM   28  O   UNL     1       9.865  29.592  57.804  1.00  0.00    -0.355 OA
HETATM   29  C   UNL     1      10.985  30.233  57.197  1.00  0.00     0.210 C 
ENDBRANCH  22  28
ENDBRANCH   1  21
TORSDOF 5
ENDMDL
MODEL 5
REMARK VINA RESULT:      -9.5      3.218      9.773
REMARK  5 active torsions:
REMARK  status: ('A' for Active; 'I' for Inactive)
REMARK    1  A    between atoms: O_2  and  C_3 
REMARK    2  A    between atoms: C_4  and  C_5 
REMARK    3  A    between atoms: C_9  and  S_10 
REMARK    4  A    between atoms: S_10  and  C_11 
REMARK    5  A    between atoms: C_11  and  C_12 
REMARK       I    between atoms: C_12  and  N_13 
ROOT
HETATM    1  C   UNL     1       6.788  25.278  55.655  1.00  0.00     0.185 A 
HETATM    2  N   UNL     1       5.620  25.536  56.267  1.00  0.00    -0.152 NA
HETATM    3  N   UNL     1       5.702  26.860  56.468  1.00  0.00    -0.253 N 
HETATM    4  H   UNL     1       4.916  27.338  56.888  1.00  0.00     0.191 HD
HETATM    5  C   UNL     1       6.877  27.362  56.006  1.00  0.00     0.185 A 
HETATM    6  N   UNL     1       7.576  26.396  55.465  1.00  0.00    -0.201 NA
ENDROOT
BRANCH   5   7
HETATM    7  S   UNL     1       7.305  29.033  56.030  1.00  0.00    -0.081 SA
BRANCH   7   8
HETATM    8  C   UNL     1       7.958  29.283  57.698  1.00  0.00     0.185 C 
BRANCH   8   9
HETATM    9  C   UNL     1       7.157  30.349  58.437  1.00  0.00     0.234 C 
HETATM   10  N   UNL     1       7.757  31.030  59.508  1.00  0.00    -0.317 N 
HETATM   11  C   UNL     1       7.047  32.016  60.299  1.00  0.00     0.043 A 
HETATM   12  C   UNL     1       9.157  30.820  59.911  1.00  0.00     0.132 C 
HETATM   13  C   UNL     1       7.542  32.385  61.572  1.00  0.00    -0.031 A 
HETATM   14  C   UNL     1       5.871  32.642  59.856  1.00  0.00     0.030 A 
HETATM   15  C   UNL     1       6.860  33.341  62.353  1.00  0.00     0.009 A 
HETATM   16  C   UNL     1       8.808  31.804  62.147  1.00  0.00     0.042 C 
HETATM   17  C   UNL     1       5.690  33.931  61.892  1.00  0.00     0.001 A 
HETATM   18  C   UNL     1       5.199  33.585  60.642  1.00  0.00     0.002 A 
HETATM   19  C   UNL     1       9.258  30.562  61.402  1.00  0.00     0.025 C 
HETATM   20  O   UNL     1       5.984  30.496  58.074  1.00  0.00    -0.272 OA
ENDBRANCH   8   9
ENDBRANCH   7   8
ENDBRANCH   5   7
BRANCH   1  21
HETATM   21  C   UNL     1       7.149  23.979  55.099  1.00  0.00     0.048 A 
HETATM   22  C   UNL     1       7.080  23.693  53.724  1.00  0.00     0.082 A 
HETATM   23  C   UNL     1       7.477  22.436  53.246  1.00  0.00     0.039 A 
HETATM   24  C   UNL     1       7.969  21.472  54.127  1.00  0.00     0.026 A 
HETATM   25  C   UNL     1       8.040  21.753  55.489  1.00  0.00     0.035 A 
HETATM   26  C   UNL     1       7.626  22.990  55.977  1.00  0.00     0.042 A 
HETATM   27 CL   UNL     1       8.643  20.561  56.573  1.00  0.00    -0.084 Cl
BRANCH  22  28
HETATM   28  O   UNL     1       6.522  24.613  52.872  1.00  0.00    -0.355 OA
HETATM   29  C   UNL     1       7.442  25.106  51.900  1.00  0.00     0.210 C 
ENDBRANCH  22  28
ENDBRANCH   1  21
TORSDOF 5
ENDMDL
MODEL 6
REMARK VINA RESULT:      -9.3      6.672     10.183
REMARK  5 active torsions:
REMARK  status: ('A' for Active; 'I' for Inactive)
REMARK    1  A    between atoms: O_2  and  C_3 
REMARK    2  A    between atoms: C_4  and  C_5 
REMARK    3  A    between atoms: C_9  and  S_10 
REMARK    4  A    between atoms: S_10  and  C_11 
REMARK    5  A    between atoms: C_11  and  C_12 
REMARK       I    between atoms: C_12  and  N_13 
ROOT
HETATM    1  C   UNL     1       6.060  25.131  53.632  1.00  0.00     0.185 A 
HETATM    2  N   UNL     1       4.776  24.841  53.363  1.00  0.00    -0.152 NA
HETATM    3  N   UNL     1       4.313  26.019  52.920  1.00  0.00    -0.253 N 
HETATM    4  H   UNL     1       3.355  26.077  52.601  1.00  0.00     0.191 HD
HETATM    5  C   UNL     1       5.281  26.972  52.939  1.00  0.00     0.185 A 
HETATM    6  N   UNL     1       6.402  26.442  53.359  1.00  0.00    -0.201 NA
ENDROOT
BRANCH   5   7
HETATM    7  S   UNL     1       5.072  28.590  52.377  1.00  0.00    -0.081 SA
BRANCH   7   8
HETATM    8  C   UNL     1       5.459  28.482  50.613  1.00  0.00     0.185 C 
BRANCH   8   9
HETATM    9  C   UNL     1       4.232  28.813  49.771  1.00  0.00     0.234 C 
HETATM   10  N   UNL     1       3.559  27.771  49.113  1.00  0.00    -0.317 N 
HETATM   11  C   UNL     1       2.420  28.006  48.247  1.00  0.00     0.043 A 
HETATM   12  C   UNL     1       3.934  26.355  49.255  1.00  0.00     0.132 C 
HETATM   13  C   UNL     1       2.022  27.011  47.322  1.00  0.00    -0.031 A 
HETATM   14  C   UNL     1       1.670  29.192  48.282  1.00  0.00     0.030 A 
HETATM   15  C   UNL     1       0.918  27.227  46.473  1.00  0.00     0.009 A 
HETATM   16  C   UNL     1       2.730  25.685  47.208  1.00  0.00     0.042 C 
HETATM   17  C   UNL     1       0.206  28.419  46.522  1.00  0.00     0.001 A 
HETATM   18  C   UNL     1       0.580  29.399  47.429  1.00  0.00     0.002 A 
HETATM   19  C   UNL     1       4.080  25.695  47.897  1.00  0.00     0.025 C 
HETATM   20  O   UNL     1       3.949  30.012  49.671  1.00  0.00    -0.272 OA
ENDBRANCH   8   9
ENDBRANCH   7   8
ENDBRANCH   5   7
BRANCH   1  21
HETATM   21  C   UNL     1       7.056  24.143  54.029  1.00  0.00     0.048 A 
HETATM   22  C   UNL     1       7.803  24.248  55.216  1.00  0.00     0.082 A 
HETATM   23  C   UNL     1       8.720  23.246  55.561  1.00  0.00     0.039 A 
HETATM   24  C   UNL     1       8.875  22.123  54.746  1.00  0.00     0.026 A 
HETATM   25  C   UNL     1       8.135  22.016  53.571  1.00  0.00     0.035 A 
HETATM   26  C   UNL     1       7.239  23.018  53.207  1.00  0.00     0.042 A 
HETATM   27 CL   UNL     1       8.331  20.633  52.566  1.00  0.00    -0.084 Cl
BRANCH  22  28
HETATM   28  O   UNL     1       7.706  25.389  55.973  1.00  0.00    -0.355 OA
HETATM   29  C   UNL     1       8.339  25.272  57.245  1.00  0.00     0.210 C 
ENDBRANCH  22  28
ENDBRANCH   1  21
TORSDOF 5
ENDMDL
MODEL 7
REMARK VINA RESULT:      -9.2      3.982      9.464
REMARK  5 active torsions:
REMARK  status: ('A' for Active; 'I' for Inactive)
REMARK    1  A    between atoms: O_2  and  C_3 
REMARK    2  A    between atoms: C_4  and  C_5 
REMARK    3  A    between atoms: C_9  and  S_10 
REMARK    4  A    between atoms: S_10  and  C_11 
REMARK    5  A    between atoms: C_11  and  C_12 
REMARK       I    between atoms: C_12  and  N_13 
ROOT
HETATM    1  C   UNL     1       6.211  24.876  54.315  1.00  0.00     0.185 A 
HETATM    2  N   UNL     1       5.017  24.788  53.707  1.00  0.00    -0.152 NA
HETATM    3  N   UNL     1       4.726  26.078  53.482  1.00  0.00    -0.253 N 
HETATM    4  H   UNL     1       3.875  26.305  52.985  1.00  0.00     0.191 HD
HETATM    5  C   UNL     1       5.702  26.897  53.951  1.00  0.00     0.185 A 
HETATM    6  N   UNL     1       6.667  26.172  54.461  1.00  0.00    -0.201 NA
ENDROOT
BRANCH   5   7
HETATM    7  S   UNL     1       5.706  28.614  53.780  1.00  0.00    -0.081 SA
BRANCH   7   8
HETATM    8  C   UNL     1       5.192  29.206  55.410  1.00  0.00     0.185 C 
BRANCH   8   9
HETATM    9  C   UNL     1       6.403  29.602  56.246  1.00  0.00     0.234 C 
HETATM   10  N   UNL     1       6.204  30.330  57.430  1.00  0.00    -0.317 N 
HETATM   11  C   UNL     1       7.303  30.796  58.253  1.00  0.00     0.043 A 
HETATM   12  C   UNL     1       4.869  30.669  57.950  1.00  0.00     0.132 C 
HETATM   13  C   UNL     1       7.088  31.826  59.197  1.00  0.00    -0.031 A 
HETATM   14  C   UNL     1       8.598  30.261  58.163  1.00  0.00     0.030 A 
HETATM   15  C   UNL     1       8.148  32.290  60.002  1.00  0.00     0.009 A 
HETATM   16  C   UNL     1       5.737  32.462  59.407  1.00  0.00     0.042 C 
HETATM   17  C   UNL     1       9.423  31.750  59.878  1.00  0.00     0.001 A 
HETATM   18  C   UNL     1       9.646  30.734  58.962  1.00  0.00     0.002 A 
HETATM   19  C   UNL     1       4.775  32.147  58.278  1.00  0.00     0.025 C 
HETATM   20  O   UNL     1       7.508  29.305  55.778  1.00  0.00    -0.272 OA
ENDBRANCH   8   9
ENDBRANCH   7   8
ENDBRANCH   5   7
BRANCH   1  21
HETATM   21  C   UNL     1       7.039  23.726  54.661  1.00  0.00     0.048 A 
HETATM   22  C   UNL     1       7.492  23.479  55.969  1.00  0.00     0.082 A 
HETATM   23  C   UNL     1       8.254  22.335  56.245  1.00  0.00     0.039 A 
HETATM   24  C   UNL     1       8.543  21.421  55.231  1.00  0.00     0.026 A 
HETATM   25  C   UNL     1       8.095  21.663  53.935  1.00  0.00     0.035 A 
HETATM   26  C   UNL     1       7.357  22.808  53.645  1.00  0.00     0.042 A 
HETATM   27 CL   UNL     1       8.456  20.536  52.686  1.00  0.00    -0.084 Cl
BRANCH  22  28
HETATM   28  O   UNL     1       7.273  24.418  56.945  1.00  0.00    -0.355 OA
HETATM   29  C   UNL     1       8.475  25.021  57.422  1.00  0.00     0.210 C 
ENDBRANCH  22  28
ENDBRANCH   1  21
TORSDOF 5
ENDMDL
MODEL 8
REMARK VINA RESULT:      -9.2      6.852      9.800
REMARK  5 active torsions:
REMARK  status: ('A' for Active; 'I' for Inactive)
REMARK    1  A    between atoms: O_2  and  C_3 
REMARK    2  A    between atoms: C_4  and  C_5 
REMARK    3  A    between atoms: C_9  and  S_10 
REMARK    4  A    between atoms: S_10  and  C_11 
REMARK    5  A    between atoms: C_11  and  C_12 
REMARK       I    between atoms: C_12  and  N_13 
ROOT
HETATM    1  C   UNL     1       6.682  24.724  54.594  1.00  0.00     0.185 A 
HETATM    2  N   UNL     1       5.365  24.906  54.784  1.00  0.00    -0.152 NA
HETATM    3  N   UNL     1       5.185  26.145  54.304  1.00  0.00    -0.253 N 
HETATM    4  H   UNL     1       4.250  26.529  54.287  1.00  0.00     0.191 HD
HETATM    5  C   UNL     1       6.352  26.681  53.860  1.00  0.00     0.185 A 
HETATM    6  N   UNL     1       7.313  25.803  54.005  1.00  0.00    -0.201 NA
ENDROOT
BRANCH   5   7
HETATM    7  S   UNL     1       6.496  28.230  53.114  1.00  0.00    -0.081 SA
BRANCH   7   8
HETATM    8  C   UNL     1       4.824  28.574  52.517  1.00  0.00     0.185 C 
BRANCH   8   9
HETATM    9  C   UNL     1       4.511  27.738  51.281  1.00  0.00     0.234 C 
HETATM   10  N   UNL     1       3.645  28.262  50.308  1.00  0.00    -0.317 N 
HETATM   11  C   UNL     1       3.249  27.511  49.133  1.00  0.00     0.043 A 
HETATM   12  C   UNL     1       3.078  29.619  50.382  1.00  0.00     0.132 C 
HETATM   13  C   UNL     1       2.107  27.906  48.397  1.00  0.00    -0.031 A 
HETATM   14  C   UNL     1       3.958  26.390  48.672  1.00  0.00     0.030 A 
HETATM   15  C   UNL     1       1.710  27.183  47.253  1.00  0.00     0.009 A 
HETATM   16  C   UNL     1       1.278  29.107  48.774  1.00  0.00     0.042 C 
HETATM   17  C   UNL     1       2.425  26.069  46.833  1.00  0.00     0.001 A 
HETATM   18  C   UNL     1       3.551  25.676  47.540  1.00  0.00     0.002 A 
HETATM   19  C   UNL     1       1.575  29.589  50.180  1.00  0.00     0.025 C 
HETATM   20  O   UNL     1       5.000  26.603  51.254  1.00  0.00    -0.272 OA
ENDBRANCH   8   9
ENDBRANCH   7   8
ENDBRANCH   5   7
BRANCH   1  21
HETATM   21  C   UNL     1       7.378  23.465  54.835  1.00  0.00     0.048 A 
HETATM   22  C   UNL     1       7.822  23.072  56.110  1.00  0.00     0.082 A 
HETATM   23  C   UNL     1       8.451  21.831  56.283  1.00  0.00     0.039 A 
HETATM   24  C   UNL     1       8.614  20.967  55.200  1.00  0.00     0.026 A 
HETATM   25  C   UNL     1       8.173  21.354  53.937  1.00  0.00     0.035 A 
HETATM   26  C   UNL     1       7.568  22.594  53.748  1.00  0.00     0.042 A 
HETATM   27 CL   UNL     1       8.379  20.288  52.601  1.00  0.00    -0.084 Cl
BRANCH  22  28
HETATM   28  O   UNL     1       7.731  23.956  57.156  1.00  0.00    -0.355 OA
HETATM   29  C   UNL     1       8.952  24.647  57.412  1.00  0.00     0.210 C 
ENDBRANCH  22  28
ENDBRANCH   1  21
TORSDOF 5
ENDMDL
MODEL 9
REMARK VINA RESULT:      -9.2      3.368      9.707
REMARK  5 active torsions:
REMARK  status: ('A' for Active; 'I' for Inactive)
REMARK    1  A    between atoms: O_2  and  C_3 
REMARK    2  A    between atoms: C_4  and  C_5 
REMARK    3  A    between atoms: C_9  and  S_10 
REMARK    4  A    between atoms: S_10  and  C_11 
REMARK    5  A    between atoms: C_11  and  C_12 
REMARK       I    between atoms: C_12  and  N_13 
ROOT
HETATM    1  C   UNL     1       7.391  26.174  55.754  1.00  0.00     0.185 A 
HETATM    2  N   UNL     1       8.374  26.682  56.517  1.00  0.00    -0.152 NA
HETATM    3  N   UNL     1       7.760  27.719  57.105  1.00  0.00    -0.253 N 
HETATM    4  H   UNL     1       8.273  28.269  57.781  1.00  0.00     0.191 HD
HETATM    5  C   UNL     1       6.469  27.830  56.696  1.00  0.00     0.185 A 
HETATM    6  N   UNL     1       6.195  26.857  55.863  1.00  0.00    -0.201 NA
ENDROOT
BRANCH   5   7
HETATM    7  S   UNL     1       5.351  29.002  57.290  1.00  0.00    -0.081 SA
BRANCH   7   8
HETATM    8  C   UNL     1       6.282  30.551  57.225  1.00  0.00     0.185 C 
BRANCH   8   9
HETATM    9  C   UNL     1       6.959  30.829  58.563  1.00  0.00     0.234 C 
HETATM   10  N   UNL     1       6.294  31.627  59.508  1.00  0.00    -0.317 N 
HETATM   11  C   UNL     1       6.890  31.987  60.779  1.00  0.00     0.043 A 
HETATM   12  C   UNL     1       4.934  32.151  59.303  1.00  0.00     0.132 C 
HETATM   13  C   UNL     1       6.370  33.077  61.517  1.00  0.00    -0.031 A 
HETATM   14  C   UNL     1       7.978  31.293  61.333  1.00  0.00     0.030 A 
HETATM   15  C   UNL     1       6.941  33.439  62.753  1.00  0.00     0.009 A 
HETATM   16  C   UNL     1       5.188  33.884  61.042  1.00  0.00     0.042 C 
HETATM   17  C   UNL     1       8.027  32.741  63.266  1.00  0.00     0.001 A 
HETATM   18  C   UNL     1       8.542  31.666  62.557  1.00  0.00     0.002 A 
HETATM   19  C   UNL     1       4.881  33.642  59.577  1.00  0.00     0.025 C 
HETATM   20  O   UNL     1       8.101  30.377  58.698  1.00  0.00    -0.272 OA
ENDBRANCH   8   9
ENDBRANCH   7   8
ENDBRANCH   5   7
BRANCH   1  21
HETATM   21  C   UNL     1       7.503  24.935  54.994  1.00  0.00     0.048 A 
HETATM   22  C   UNL     1       7.714  24.910  53.604  1.00  0.00     0.082 A 
HETATM   23  C   UNL     1       7.850  23.686  52.935  1.00  0.00     0.039 A 
HETATM   24  C   UNL     1       7.809  22.486  53.647  1.00  0.00     0.026 A 
HETATM   25  C   UNL     1       7.602  22.509  55.024  1.00  0.00     0.035 A 
HETATM   26  C   UNL     1       7.442  23.719  55.695  1.00  0.00     0.042 A 
HETATM   27 CL   UNL     1       7.547  21.028  55.900  1.00  0.00    -0.084 Cl
BRANCH  22  28
HETATM   28  O   UNL     1       7.675  26.086  52.897  1.00  0.00    -0.355 OA
HETATM   29  C   UNL     1       6.452  26.273  52.188  1.00  0.00     0.210 C 
ENDBRANCH  22  28
ENDBRANCH   1  21
TORSDOF 5
ENDMDL
MODEL 10
REMARK VINA RESULT:      -9.1      3.658      9.591
REMARK  5 active torsions:
REMARK  status: ('A' for Active; 'I' for Inactive)
REMARK    1  A    between atoms: O_2  and  C_3 
REMARK    2  A    between atoms: C_4  and  C_5 
REMARK    3  A    between atoms: C_9  and  S_10 
REMARK    4  A    between atoms: S_10  and  C_11 
REMARK    5  A    between atoms: C_11  and  C_12 
REMARK       I    between atoms: C_12  and  N_13 
ROOT
HETATM    1  C   UNL     1       7.027  24.843  55.667  1.00  0.00     0.185 A 
HETATM    2  N   UNL     1       7.613  25.216  56.816  1.00  0.00    -0.152 NA
HETATM    3  N   UNL     1       6.940  26.336  57.118  1.00  0.00    -0.253 N 
HETATM    4  H   UNL     1       7.155  26.816  57.981  1.00  0.00     0.191 HD
HETATM    5  C   UNL     1       6.002  26.622  56.178  1.00  0.00     0.185 A 
HETATM    6  N   UNL     1       6.012  25.687  55.260  1.00  0.00    -0.201 NA
ENDROOT
BRANCH   5   7
HETATM    7  S   UNL     1       4.899  27.945  56.264  1.00  0.00    -0.081 SA
BRANCH   7   8
HETATM    8  C   UNL     1       5.921  29.380  55.851  1.00  0.00     0.185 C 
BRANCH   8   9
HETATM    9  C   UNL     1       6.867  29.715  56.998  1.00  0.00     0.234 C 
HETATM   10  N   UNL     1       6.432  30.594  58.004  1.00  0.00    -0.317 N 
HETATM   11  C   UNL     1       7.288  31.010  59.097  1.00  0.00     0.043 A 
HETATM   12  C   UNL     1       5.071  31.153  58.049  1.00  0.00     0.132 C 
HETATM   13  C   UNL     1       6.957  32.162  59.850  1.00  0.00    -0.031 A 
HETATM   14  C   UNL     1       8.451  30.313  59.460  1.00  0.00     0.030 A 
HETATM   15  C   UNL     1       7.782  32.579  60.914  1.00  0.00     0.009 A 
HETATM   16  C   UNL     1       5.721  32.980  59.575  1.00  0.00     0.042 C 
HETATM   17  C   UNL     1       8.935  31.875  61.239  1.00  0.00     0.001 A 
HETATM   18  C   UNL     1       9.266  30.740  60.514  1.00  0.00     0.002 A 
HETATM   19  C   UNL     1       5.111  32.659  58.225  1.00  0.00     0.025 C 
HETATM   20  O   UNL     1       8.002  29.231  56.926  1.00  0.00    -0.272 OA
ENDBRANCH   8   9
ENDBRANCH   7   8
ENDBRANCH   5   7
BRANCH   1  21
HETATM   21  C   UNL     1       7.311  23.591  54.974  1.00  0.00     0.048 A 
HETATM   22  C   UNL     1       7.339  23.485  53.572  1.00  0.00     0.082 A 
HETATM   23  C   UNL     1       7.655  22.262  52.965  1.00  0.00     0.039 A 
HETATM   24  C   UNL     1       7.972  21.150  53.747  1.00  0.00     0.026 A 
HETATM   25  C   UNL     1       7.946  21.253  55.135  1.00  0.00     0.035 A 
HETATM   26  C   UNL     1       7.611  22.457  55.749  1.00  0.00     0.042 A 
HETATM   27 CL   UNL     1       8.334  19.879  56.097  1.00  0.00    -0.084 Cl
BRANCH  22  28
HETATM   28  O   UNL     1       6.951  24.558  52.809  1.00  0.00    -0.355 OA
HETATM   29  C   UNL     1       8.045  25.230  52.188  1.00  0.00     0.210 C 
ENDBRANCH  22  28
ENDBRANCH   1  21
TORSDOF 5
ENDMDL
