MODEL 1
REMARK VINA RESULT:      -9.3      0.000      0.000
REMARK  6 active torsions:
REMARK  status: ('A' for Active; 'I' for Inactive)
REMARK    1  A    between atoms: C_3  and  C_4 
REMARK    2  A    between atoms: C_4  and  N_5 
REMARK       I    between atoms: N_5  and  C_6 
REMARK    3  A    between atoms: C_6  and  C_7 
REMARK    4  A    between atoms: C_7  and  N_8 
REMARK    5  A    between atoms: C_12  and  N_13 
REMARK       I    between atoms: N_13  and  C_14 
REMARK       I    between atoms: C_14  and  N_15 
REMARK    6  A    between atoms: N_15  and  C_16 
ROOT
HETATM    1  N   UNL     1       6.942  28.205  56.694  1.00  0.00    -0.063 N 
HETATM    2  H   UNL     1       6.343  29.028  56.555  1.00  0.00     0.280 HD
HETATM    3  C   UNL     1       7.945  28.231  55.562  1.00  0.00     0.237 C 
HETATM    4  C   UNL     1       7.286  27.945  54.226  1.00  0.00     0.053 C 
HETATM    5  C   UNL     1       6.388  26.707  54.212  1.00  0.00     0.089 C 
HETATM    6  C   UNL     1       5.401  26.725  55.378  1.00  0.00     0.053 C 
HETATM    7  C   UNL     1       6.015  27.020  56.736  1.00  0.00     0.237 C 
ENDROOT
BRANCH   1   8
HETATM    8  C   UNL     1       7.615  28.434  58.066  1.00  0.00     0.337 C 
BRANCH   8   9
HETATM    9  C   UNL     1       8.020  29.875  58.400  1.00  0.00     0.243 C 
HETATM   10  N   UNL     1       7.053  30.661  58.981  1.00  0.00    -0.355 N 
HETATM   11  H   UNL     1       6.378  30.210  59.592  1.00  0.00     0.162 HD
HETATM   12  O   UNL     1       9.165  30.267  58.184  1.00  0.00    -0.272 OA
BRANCH  10  13
HETATM   13  C   UNL     1       7.384  32.007  59.409  1.00  0.00     0.169 C 
BRANCH  13  14
HETATM   14  C   UNL     1       7.319  32.161  60.906  1.00  0.00     0.006 A 
HETATM   15  C   UNL     1       8.380  32.065  61.803  1.00  0.00    -0.047 A 
HETATM   16  C   UNL     1       9.806  31.815  61.427  1.00  0.00     0.049 C 
HETATM   17  C   UNL     1       7.939  32.222  63.158  1.00  0.00     0.015 A 
HETATM   18  C   UNL     1       6.585  32.427  63.256  1.00  0.00     0.051 A 
HETATM   19  S   UNL     1       5.833  32.430  61.731  1.00  0.00    -0.104 SA
ENDBRANCH  13  14
ENDBRANCH  10  13
ENDBRANCH   8   9
ENDBRANCH   1   8
BRANCH   5  20
HETATM   20  N   UNL     1       7.095  25.437  54.029  1.00  0.00    -0.338 N 
HETATM   21  C   UNL     1       7.501  24.893  52.856  1.00  0.00     0.321 C 
HETATM   22  N   UNL     1       8.162  23.712  52.884  1.00  0.00    -0.309 N 
HETATM   23  O   UNL     1       7.342  25.464  51.780  1.00  0.00    -0.247 OA
HETATM   24  H   UNL     1       8.608  23.511  51.994  1.00  0.00     0.170 HD
HETATM   25  H   UNL     1       7.636  25.113  54.823  1.00  0.00     0.164 HD
BRANCH  22  26
HETATM   26  C   UNL     1       8.278  22.700  53.855  1.00  0.00     0.036 A 
HETATM   27  C   UNL     1       8.652  22.915  55.182  1.00  0.00     0.029 A 
HETATM   28  C   UNL     1       8.721  21.842  56.079  1.00  0.00     0.002 A 
HETATM   29  C   UNL     1       8.399  20.553  55.660  1.00  0.00     0.000 A 
HETATM   30  C   UNL     1       7.995  20.334  54.347  1.00  0.00     0.002 A 
HETATM   31  C   UNL     1       7.927  21.403  53.452  1.00  0.00     0.029 A 
ENDBRANCH  22  26
ENDBRANCH   5  20
TORSDOF 6
ENDMDL
MODEL 2
REMARK VINA RESULT:      -8.8      4.900      8.767
REMARK  6 active torsions:
REMARK  status: ('A' for Active; 'I' for Inactive)
REMARK    1  A    between atoms: C_3  and  C_4 
REMARK    2  A    between atoms: C_4  and  N_5 
REMARK       I    between atoms: N_5  and  C_6 
REMARK    3  A    between atoms: C_6  and  C_7 
REMARK    4  A    between atoms: C_7  and  N_8 
REMARK    5  A    between atoms: C_12  and  N_13 
REMARK       I    between atoms: N_13  and  C_14 
REMARK       I    between atoms: C_14  and  N_15 
REMARK    6  A    between atoms: N_15  and  C_16 
ROOT
HETATM    1  N   UNL     1       5.269  28.432  54.096  1.00  0.00    -0.063 N 
HETATM    2  H   UNL     1       5.397  29.432  54.293  1.00  0.00     0.280 HD
HETATM    3  C   UNL     1       4.906  27.794  55.419  1.00  0.00     0.237 C 
HETATM    4  C   UNL     1       6.080  27.799  56.380  1.00  0.00     0.053 C 
HETATM    5  C   UNL     1       7.387  27.269  55.790  1.00  0.00     0.089 C 
HETATM    6  C   UNL     1       7.703  27.937  54.453  1.00  0.00     0.053 C 
HETATM    7  C   UNL     1       6.553  27.966  53.462  1.00  0.00     0.237 C 
ENDROOT
BRANCH   1   8
HETATM    8  C   UNL     1       4.099  28.374  53.088  1.00  0.00     0.337 C 
BRANCH   8   9
HETATM    9  C   UNL     1       4.471  28.410  51.600  1.00  0.00     0.243 C 
HETATM   10  N   UNL     1       4.216  27.267  50.881  1.00  0.00    -0.355 N 
HETATM   11  H   UNL     1       3.412  26.706  51.149  1.00  0.00     0.162 HD
HETATM   12  O   UNL     1       4.937  29.431  51.099  1.00  0.00    -0.272 OA
BRANCH  10  13
HETATM   13  C   UNL     1       4.456  27.251  49.450  1.00  0.00     0.169 C 
BRANCH  13  14
HETATM   14  C   UNL     1       3.181  27.375  48.657  1.00  0.00     0.006 A 
HETATM   15  C   UNL     1       2.550  26.372  47.926  1.00  0.00    -0.047 A 
HETATM   16  C   UNL     1       3.022  24.956  47.820  1.00  0.00     0.049 C 
HETATM   17  C   UNL     1       1.380  26.863  47.260  1.00  0.00     0.015 A 
HETATM   18  C   UNL     1       1.155  28.198  47.494  1.00  0.00     0.051 A 
HETATM   19  S   UNL     1       2.344  28.871  48.507  1.00  0.00    -0.104 SA
ENDBRANCH  13  14
ENDBRANCH  10  13
ENDBRANCH   8   9
ENDBRANCH   1   8
BRANCH   5  20
HETATM   20  N   UNL     1       7.515  25.810  55.790  1.00  0.00    -0.338 N 
HETATM   21  C   UNL     1       7.972  25.032  56.801  1.00  0.00     0.321 C 
HETATM   22  N   UNL     1       8.001  23.691  56.624  1.00  0.00    -0.309 N 
HETATM   23  O   UNL     1       8.305  25.500  57.887  1.00  0.00    -0.247 OA
HETATM   24  H   UNL     1       8.145  23.200  57.502  1.00  0.00     0.170 HD
HETATM   25  H   UNL     1       6.899  25.312  55.156  1.00  0.00     0.164 HD
BRANCH  22  26
HETATM   26  C   UNL     1       7.953  22.871  55.481  1.00  0.00     0.036 A 
HETATM   27  C   UNL     1       8.038  23.337  54.168  1.00  0.00     0.029 A 
HETATM   28  C   UNL     1       7.999  22.439  53.096  1.00  0.00     0.002 A 
HETATM   29  C   UNL     1       7.895  21.069  53.329  1.00  0.00     0.000 A 
HETATM   30  C   UNL     1       7.842  20.593  54.635  1.00  0.00     0.002 A 
HETATM   31  C   UNL     1       7.879  21.489  55.705  1.00  0.00     0.029 A 
ENDBRANCH  22  26
ENDBRANCH   5  20
TORSDOF 6
ENDMDL
MODEL 3
REMARK VINA RESULT:      -8.6      3.422      9.974
REMARK  6 active torsions:
REMARK  status: ('A' for Active; 'I' for Inactive)
REMARK    1  A    between atoms: C_3  and  C_4 
REMARK    2  A    between atoms: C_4  and  N_5 
REMARK       I    between atoms: N_5  and  C_6 
REMARK    3  A    between atoms: C_6  and  C_7 
REMARK    4  A    between atoms: C_7  and  N_8 
REMARK    5  A    between atoms: C_12  and  N_13 
REMARK       I    between atoms: N_13  and  C_14 
REMARK       I    between atoms: C_14  and  N_15 
REMARK    6  A    between atoms: N_15  and  C_16 
ROOT
HETATM    1  N   UNL     1       6.952  27.247  56.913  1.00  0.00    -0.063 N 
HETATM    2  H   UNL     1       7.005  26.998  55.918  1.00  0.00     0.280 HD
HETATM    3  C   UNL     1       5.628  27.958  57.091  1.00  0.00     0.237 C 
HETATM    4  C   UNL     1       5.627  29.311  56.405  1.00  0.00     0.053 C 
HETATM    5  C   UNL     1       6.835  30.190  56.731  1.00  0.00     0.089 C 
HETATM    6  C   UNL     1       8.144  29.424  56.546  1.00  0.00     0.053 C 
HETATM    7  C   UNL     1       8.187  28.056  57.205  1.00  0.00     0.237 C 
ENDROOT
BRANCH   1   8
HETATM    8  C   UNL     1       6.984  25.895  57.661  1.00  0.00     0.337 C 
BRANCH   8   9
HETATM    9  C   UNL     1       8.150  24.954  57.328  1.00  0.00     0.243 C 
HETATM   10  N   UNL     1       8.094  24.322  56.109  1.00  0.00    -0.355 N 
HETATM   11  H   UNL     1       7.656  24.817  55.337  1.00  0.00     0.162 HD
HETATM   12  O   UNL     1       9.087  24.821  58.113  1.00  0.00    -0.272 OA
BRANCH  10  13
HETATM   13  C   UNL     1       9.200  23.487  55.682  1.00  0.00     0.169 C 
BRANCH  13  14
HETATM   14  C   UNL     1       8.760  22.397  54.739  1.00  0.00     0.006 A 
HETATM   15  C   UNL     1       8.225  22.560  53.464  1.00  0.00    -0.047 A 
HETATM   16  C   UNL     1       8.013  23.874  52.780  1.00  0.00     0.049 C 
HETATM   17  C   UNL     1       7.878  21.301  52.873  1.00  0.00     0.015 A 
HETATM   18  C   UNL     1       8.151  20.235  53.695  1.00  0.00     0.051 A 
HETATM   19  S   UNL     1       8.819  20.734  55.178  1.00  0.00    -0.104 SA
ENDBRANCH  13  14
ENDBRANCH  10  13
ENDBRANCH   8   9
ENDBRANCH   1   8
BRANCH   5  20
HETATM   20  N   UNL     1       6.734  30.932  57.989  1.00  0.00    -0.338 N 
HETATM   21  C   UNL     1       6.105  32.115  58.189  1.00  0.00     0.321 C 
HETATM   22  N   UNL     1       6.100  32.645  59.435  1.00  0.00    -0.309 N 
HETATM   23  O   UNL     1       5.492  32.690  57.292  1.00  0.00    -0.247 OA
HETATM   24  H   UNL     1       5.427  33.400  59.519  1.00  0.00     0.170 HD
HETATM   25  H   UNL     1       6.816  30.380  58.836  1.00  0.00     0.164 HD
BRANCH  22  26
HETATM   26  C   UNL     1       6.884  32.412  60.580  1.00  0.00     0.036 A 
HETATM   27  C   UNL     1       8.261  32.182  60.564  1.00  0.00     0.029 A 
HETATM   28  C   UNL     1       8.957  31.979  61.761  1.00  0.00     0.002 A 
HETATM   29  C   UNL     1       8.286  32.024  62.981  1.00  0.00     0.000 A 
HETATM   30  C   UNL     1       6.920  32.284  63.009  1.00  0.00     0.002 A 
HETATM   31  C   UNL     1       6.225  32.485  61.815  1.00  0.00     0.029 A 
ENDBRANCH  22  26
ENDBRANCH   5  20
TORSDOF 6
ENDMDL
MODEL 4
REMARK VINA RESULT:      -8.4      5.520      9.140
REMARK  6 active torsions:
REMARK  status: ('A' for Active; 'I' for Inactive)
REMARK    1  A    between atoms: C_3  and  C_4 
REMARK    2  A    between atoms: C_4  and  N_5 
REMARK       I    between atoms: N_5  and  C_6 
REMARK    3  A    between atoms: C_6  and  C_7 
REMARK    4  A    between atoms: C_7  and  N_8 
REMARK    5  A    between atoms: C_12  and  N_13 
REMARK       I    between atoms: N_13  and  C_14 
REMARK       I    between atoms: C_14  and  N_15 
REMARK    6  A    between atoms: N_15  and  C_16 
ROOT
HETATM    1  N   UNL     1       5.913  26.877  52.840  1.00  0.00    -0.063 N 
HETATM    2  H   UNL     1       5.584  27.850  52.864  1.00  0.00     0.280 HD
HETATM    3  C   UNL     1       5.016  26.114  53.789  1.00  0.00     0.237 C 
HETATM    4  C   UNL     1       5.261  26.515  55.231  1.00  0.00     0.053 C 
HETATM    5  C   UNL     1       6.731  26.511  55.652  1.00  0.00     0.089 C 
HETATM    6  C   UNL     1       7.594  27.285  54.657  1.00  0.00     0.053 C 
HETATM    7  C   UNL     1       7.375  26.926  53.198  1.00  0.00     0.237 C 
ENDROOT
BRANCH   1   8
HETATM    8  C   UNL     1       5.715  26.430  51.374  1.00  0.00     0.337 C 
BRANCH   8   9
HETATM    9  C   UNL     1       5.358  27.527  50.363  1.00  0.00     0.243 C 
HETATM   10  N   UNL     1       5.377  27.165  49.037  1.00  0.00    -0.355 N 
HETATM   11  H   UNL     1       5.121  26.210  48.803  1.00  0.00     0.162 HD
HETATM   12  O   UNL     1       5.041  28.651  50.749  1.00  0.00    -0.272 OA
BRANCH  10  13
HETATM   13  C   UNL     1       4.965  28.120  48.026  1.00  0.00     0.169 C 
BRANCH  13  14
HETATM   14  C   UNL     1       3.542  27.901  47.583  1.00  0.00     0.006 A 
HETATM   15  C   UNL     1       2.651  28.868  47.127  1.00  0.00    -0.047 A 
HETATM   16  C   UNL     1       2.964  30.323  46.968  1.00  0.00     0.049 C 
HETATM   17  C   UNL     1       1.365  28.304  46.835  1.00  0.00     0.015 A 
HETATM   18  C   UNL     1       1.312  26.953  47.071  1.00  0.00     0.051 A 
HETATM   19  S   UNL     1       2.795  26.352  47.647  1.00  0.00    -0.104 SA
ENDBRANCH  13  14
ENDBRANCH  10  13
ENDBRANCH   8   9
ENDBRANCH   1   8
BRANCH   5  20
HETATM   20  N   UNL     1       7.260  25.197  56.026  1.00  0.00    -0.338 N 
HETATM   21  C   UNL     1       7.956  24.889  57.147  1.00  0.00     0.321 C 
HETATM   22  N   UNL     1       8.350  23.607  57.333  1.00  0.00    -0.309 N 
HETATM   23  O   UNL     1       8.189  25.719  58.022  1.00  0.00    -0.247 OA
HETATM   24  H   UNL     1       8.660  23.445  58.286  1.00  0.00     0.170 HD
HETATM   25  H   UNL     1       6.782  24.397  55.625  1.00  0.00     0.164 HD
BRANCH  22  26
HETATM   26  C   UNL     1       8.486  22.509  56.464  1.00  0.00     0.036 A 
HETATM   27  C   UNL     1       8.284  21.177  56.833  1.00  0.00     0.029 A 
HETATM   28  C   UNL     1       8.425  20.154  55.888  1.00  0.00     0.002 A 
HETATM   29  C   UNL     1       8.749  20.456  54.567  1.00  0.00     0.000 A 
HETATM   30  C   UNL     1       8.921  21.781  54.183  1.00  0.00     0.002 A 
HETATM   31  C   UNL     1       8.782  22.802  55.125  1.00  0.00     0.029 A 
ENDBRANCH  22  26
ENDBRANCH   5  20
TORSDOF 6
ENDMDL
MODEL 5
REMARK VINA RESULT:      -8.3      4.820      7.958
REMARK  6 active torsions:
REMARK  status: ('A' for Active; 'I' for Inactive)
REMARK    1  A    between atoms: C_3  and  C_4 
REMARK    2  A    between atoms: C_4  and  N_5 
REMARK       I    between atoms: N_5  and  C_6 
REMARK    3  A    between atoms: C_6  and  C_7 
REMARK    4  A    between atoms: C_7  and  N_8 
REMARK    5  A    between atoms: C_12  and  N_13 
REMARK       I    between atoms: N_13  and  C_14 
REMARK       I    between atoms: C_14  and  N_15 
REMARK    6  A    between atoms: N_15  and  C_16 
ROOT
HETATM    1  N   UNL     1       5.141  28.466  54.888  1.00  0.00    -0.063 N 
HETATM    2  H   UNL     1       5.343  29.459  55.060  1.00  0.00     0.280 HD
HETATM    3  C   UNL     1       5.112  27.810  56.251  1.00  0.00     0.237 C 
HETATM    4  C   UNL     1       6.494  27.768  56.878  1.00  0.00     0.053 C 
HETATM    5  C   UNL     1       7.590  27.220  55.963  1.00  0.00     0.089 C 
HETATM    6  C   UNL     1       7.569  27.908  54.599  1.00  0.00     0.053 C 
HETATM    7  C   UNL     1       6.204  27.985  53.938  1.00  0.00     0.237 C 
ENDROOT
BRANCH   1   8
HETATM    8  C   UNL     1       3.749  28.457  54.216  1.00  0.00     0.337 C 
BRANCH   8   9
HETATM    9  C   UNL     1       3.625  29.210  52.884  1.00  0.00     0.243 C 
HETATM   10  N   UNL     1       3.121  28.494  51.824  1.00  0.00    -0.355 N 
HETATM   11  H   UNL     1       2.431  27.775  52.022  1.00  0.00     0.162 HD
HETATM   12  O   UNL     1       3.933  30.397  52.808  1.00  0.00    -0.272 OA
BRANCH  10  13
HETATM   13  C   UNL     1       2.890  29.157  50.556  1.00  0.00     0.169 C 
BRANCH  13  14
HETATM   14  C   UNL     1       3.671  28.526  49.432  1.00  0.00     0.006 A 
HETATM   15  C   UNL     1       4.948  28.877  49.003  1.00  0.00    -0.047 A 
HETATM   16  C   UNL     1       5.799  29.946  49.611  1.00  0.00     0.049 C 
HETATM   17  C   UNL     1       5.358  28.090  47.876  1.00  0.00     0.015 A 
HETATM   18  C   UNL     1       4.404  27.183  47.485  1.00  0.00     0.051 A 
HETATM   19  S   UNL     1       3.013  27.269  48.459  1.00  0.00    -0.104 SA
ENDBRANCH  13  14
ENDBRANCH  10  13
ENDBRANCH   8   9
ENDBRANCH   1   8
BRANCH   5  20
HETATM   20  N   UNL     1       7.673  25.759  55.910  1.00  0.00    -0.338 N 
HETATM   21  C   UNL     1       8.118  24.932  56.887  1.00  0.00     0.321 C 
HETATM   22  N   UNL     1       8.103  23.597  56.663  1.00  0.00    -0.309 N 
HETATM   23  O   UNL     1       8.477  25.351  57.985  1.00  0.00    -0.247 OA
HETATM   24  H   UNL     1       8.242  23.071  57.520  1.00  0.00     0.170 HD
HETATM   25  H   UNL     1       7.035  25.303  55.267  1.00  0.00     0.164 HD
BRANCH  22  26
HETATM   26  C   UNL     1       8.017  22.821  55.492  1.00  0.00     0.036 A 
HETATM   27  C   UNL     1       8.055  23.336  54.195  1.00  0.00     0.029 A 
HETATM   28  C   UNL     1       7.981  22.478  53.092  1.00  0.00     0.002 A 
HETATM   29  C   UNL     1       7.887  21.101  53.278  1.00  0.00     0.000 A 
HETATM   30  C   UNL     1       7.879  20.576  54.565  1.00  0.00     0.002 A 
HETATM   31  C   UNL     1       7.952  21.431  55.666  1.00  0.00     0.029 A 
ENDBRANCH  22  26
ENDBRANCH   5  20
TORSDOF 6
ENDMDL
MODEL 6
REMARK VINA RESULT:      -8.3      1.946      2.545
REMARK  6 active torsions:
REMARK  status: ('A' for Active; 'I' for Inactive)
REMARK    1  A    between atoms: C_3  and  C_4 
REMARK    2  A    between atoms: C_4  and  N_5 
REMARK       I    between atoms: N_5  and  C_6 
REMARK    3  A    between atoms: C_6  and  C_7 
REMARK    4  A    between atoms: C_7  and  N_8 
REMARK    5  A    between atoms: C_12  and  N_13 
REMARK       I    between atoms: N_13  and  C_14 
REMARK       I    between atoms: C_14  and  N_15 
REMARK    6  A    between atoms: N_15  and  C_16 
ROOT
HETATM    1  N   UNL     1       8.358  29.603  56.718  1.00  0.00    -0.063 N 
HETATM    2  H   UNL     1       8.032  30.559  56.528  1.00  0.00     0.280 HD
HETATM    3  C   UNL     1       8.699  29.009  55.369  1.00  0.00     0.237 C 
HETATM    4  C   UNL     1       7.454  28.780  54.531  1.00  0.00     0.053 C 
HETATM    5  C   UNL     1       6.329  28.038  55.254  1.00  0.00     0.089 C 
HETATM    6  C   UNL     1       6.031  28.671  56.611  1.00  0.00     0.053 C 
HETATM    7  C   UNL     1       7.248  28.931  57.481  1.00  0.00     0.237 C 
ENDROOT
BRANCH   1   8
HETATM    8  C   UNL     1       9.612  29.782  57.602  1.00  0.00     0.337 C 
BRANCH   8   9
HETATM    9  C   UNL     1       9.630  31.003  58.530  1.00  0.00     0.243 C 
HETATM   10  N   UNL     1       8.935  30.883  59.710  1.00  0.00    -0.355 N 
HETATM   11  H   UNL     1       8.892  29.965  60.144  1.00  0.00     0.162 HD
HETATM   12  O   UNL     1      10.270  32.008  58.226  1.00  0.00    -0.272 OA
BRANCH  10  13
HETATM   13  C   UNL     1       8.977  31.960  60.681  1.00  0.00     0.169 C 
BRANCH  13  14
HETATM   14  C   UNL     1       7.599  32.402  61.101  1.00  0.00     0.006 A 
HETATM   15  C   UNL     1       7.183  32.732  62.388  1.00  0.00    -0.047 A 
HETATM   16  C   UNL     1       8.057  32.730  63.603  1.00  0.00     0.049 C 
HETATM   17  C   UNL     1       5.789  33.065  62.421  1.00  0.00     0.015 A 
HETATM   18  C   UNL     1       5.193  32.981  61.187  1.00  0.00     0.051 A 
HETATM   19  S   UNL     1       6.294  32.501  59.984  1.00  0.00    -0.104 SA
ENDBRANCH  13  14
ENDBRANCH  10  13
ENDBRANCH   8   9
ENDBRANCH   1   8
BRANCH   5  20
HETATM   20  N   UNL     1       6.468  26.581  55.276  1.00  0.00    -0.338 N 
HETATM   21  C   UNL     1       5.894  25.721  56.152  1.00  0.00     0.321 C 
HETATM   22  N   UNL     1       6.125  24.395  56.004  1.00  0.00    -0.309 N 
HETATM   23  O   UNL     1       5.130  26.101  57.035  1.00  0.00    -0.247 OA
HETATM   24  H   UNL     1       5.483  23.839  56.561  1.00  0.00     0.170 HD
HETATM   25  H   UNL     1       6.702  26.145  54.390  1.00  0.00     0.164 HD
BRANCH  22  26
HETATM   26  C   UNL     1       7.106  23.662  55.311  1.00  0.00     0.036 A 
HETATM   27  C   UNL     1       7.079  23.402  53.940  1.00  0.00     0.029 A 
HETATM   28  C   UNL     1       8.115  22.678  53.338  1.00  0.00     0.002 A 
HETATM   29  C   UNL     1       9.191  22.227  54.099  1.00  0.00     0.000 A 
HETATM   30  C   UNL     1       9.242  22.508  55.460  1.00  0.00     0.002 A 
HETATM   31  C   UNL     1       8.209  23.229  56.061  1.00  0.00     0.029 A 
ENDBRANCH  22  26
ENDBRANCH   5  20
TORSDOF 6
ENDMDL
MODEL 7
REMARK VINA RESULT:      -8.2      4.304     11.811
REMARK  6 active torsions:
REMARK  status: ('A' for Active; 'I' for Inactive)
REMARK    1  A    between atoms: C_3  and  C_4 
REMARK    2  A    between atoms: C_4  and  N_5 
REMARK       I    between atoms: N_5  and  C_6 
REMARK    3  A    between atoms: C_6  and  C_7 
REMARK    4  A    between atoms: C_7  and  N_8 
REMARK    5  A    between atoms: C_12  and  N_13 
REMARK       I    between atoms: N_13  and  C_14 
REMARK       I    between atoms: C_14  and  N_15 
REMARK    6  A    between atoms: N_15  and  C_16 
ROOT
HETATM    1  N   UNL     1       6.634  31.766  60.866  1.00  0.00    -0.063 N 
HETATM    2  H   UNL     1       6.460  30.777  60.650  1.00  0.00     0.280 HD
HETATM    3  C   UNL     1       6.611  31.870  62.375  1.00  0.00     0.237 C 
HETATM    4  C   UNL     1       5.216  31.645  62.928  1.00  0.00     0.053 C 
HETATM    5  C   UNL     1       4.122  32.469  62.247  1.00  0.00     0.089 C 
HETATM    6  C   UNL     1       4.195  32.338  60.727  1.00  0.00     0.053 C 
HETATM    7  C   UNL     1       5.575  32.543  60.129  1.00  0.00     0.237 C 
ENDROOT
BRANCH   1   8
HETATM    8  C   UNL     1       8.038  32.056  60.289  1.00  0.00     0.337 C 
BRANCH   8   9
HETATM    9  C   UNL     1       8.570  31.063  59.248  1.00  0.00     0.243 C 
HETATM   10  N   UNL     1       7.863  29.893  59.104  1.00  0.00    -0.355 N 
HETATM   11  H   UNL     1       6.859  29.924  59.251  1.00  0.00     0.162 HD
HETATM   12  O   UNL     1       9.556  31.341  58.568  1.00  0.00    -0.272 OA
BRANCH  10  13
HETATM   13  C   UNL     1       8.250  28.942  58.079  1.00  0.00     0.169 C 
BRANCH  13  14
HETATM   14  C   UNL     1       7.069  28.180  57.533  1.00  0.00     0.006 A 
HETATM   15  C   UNL     1       7.019  26.823  57.231  1.00  0.00    -0.047 A 
HETATM   16  C   UNL     1       8.143  25.854  57.423  1.00  0.00     0.049 C 
HETATM   17  C   UNL     1       5.745  26.452  56.688  1.00  0.00     0.015 A 
HETATM   18  C   UNL     1       4.878  27.513  56.592  1.00  0.00     0.051 A 
HETATM   19  S   UNL     1       5.584  28.958  57.147  1.00  0.00    -0.104 SA
ENDBRANCH  13  14
ENDBRANCH  10  13
ENDBRANCH   8   9
ENDBRANCH   1   8
BRANCH   5  20
HETATM   20  N   UNL     1       3.993  33.843  62.737  1.00  0.00    -0.338 N 
HETATM   21  C   UNL     1       2.959  34.363  63.442  1.00  0.00     0.321 C 
HETATM   22  N   UNL     1       3.024  35.659  63.828  1.00  0.00    -0.309 N 
HETATM   23  O   UNL     1       1.998  33.682  63.790  1.00  0.00    -0.247 OA
HETATM   24  H   UNL     1       2.320  35.878  64.525  1.00  0.00     0.170 HD
HETATM   25  H   UNL     1       4.863  34.344  62.883  1.00  0.00     0.164 HD
BRANCH  22  26
HETATM   26  C   UNL     1       3.804  36.749  63.401  1.00  0.00     0.036 A 
HETATM   27  C   UNL     1       3.523  37.534  62.281  1.00  0.00     0.029 A 
HETATM   28  C   UNL     1       4.351  38.613  61.949  1.00  0.00     0.002 A 
HETATM   29  C   UNL     1       5.453  38.924  62.743  1.00  0.00     0.000 A 
HETATM   30  C   UNL     1       5.723  38.167  63.878  1.00  0.00     0.002 A 
HETATM   31  C   UNL     1       4.898  37.091  64.209  1.00  0.00     0.029 A 
ENDBRANCH  22  26
ENDBRANCH   5  20
TORSDOF 6
ENDMDL
MODEL 8
REMARK VINA RESULT:      -7.9      4.101      7.126
REMARK  6 active torsions:
REMARK  status: ('A' for Active; 'I' for Inactive)
REMARK    1  A    between atoms: C_3  and  C_4 
REMARK    2  A    between atoms: C_4  and  N_5 
REMARK       I    between atoms: N_5  and  C_6 
REMARK    3  A    between atoms: C_6  and  C_7 
REMARK    4  A    between atoms: C_7  and  N_8 
REMARK    5  A    between atoms: C_12  and  N_13 
REMARK       I    between atoms: N_13  and  C_14 
REMARK       I    between atoms: C_14  and  N_15 
REMARK    6  A    between atoms: N_15  and  C_16 
ROOT
HETATM    1  N   UNL     1       7.124  31.879  62.405  1.00  0.00    -0.063 N 
HETATM    2  H   UNL     1       7.527  32.561  63.058  1.00  0.00     0.280 HD
HETATM    3  C   UNL     1       8.024  30.665  62.470  1.00  0.00     0.237 C 
HETATM    4  C   UNL     1       9.386  30.948  61.863  1.00  0.00     0.053 C 
HETATM    5  C   UNL     1       9.343  31.597  60.479  1.00  0.00     0.089 C 
HETATM    6  C   UNL     1       8.414  32.810  60.465  1.00  0.00     0.053 C 
HETATM    7  C   UNL     1       7.043  32.578  61.074  1.00  0.00     0.237 C 
ENDROOT
BRANCH   1   8
HETATM    8  C   UNL     1       5.714  31.581  62.963  1.00  0.00     0.337 C 
BRANCH   8   9
HETATM    9  C   UNL     1       4.986  32.747  63.644  1.00  0.00     0.243 C 
HETATM   10  N   UNL     1       4.293  33.600  62.817  1.00  0.00    -0.355 N 
HETATM   11  H   UNL     1       3.873  33.210  61.979  1.00  0.00     0.162 HD
HETATM   12  O   UNL     1       5.007  32.865  64.868  1.00  0.00    -0.272 OA
BRANCH  10  13
HETATM   13  C   UNL     1       3.505  34.673  63.392  1.00  0.00     0.169 C 
BRANCH  13  14
HETATM   14  C   UNL     1       4.260  35.978  63.428  1.00  0.00     0.006 A 
HETATM   15  C   UNL     1       4.726  36.642  64.558  1.00  0.00    -0.047 A 
HETATM   16  C   UNL     1       4.581  36.155  65.966  1.00  0.00     0.049 C 
HETATM   17  C   UNL     1       5.362  37.881  64.216  1.00  0.00     0.015 A 
HETATM   18  C   UNL     1       5.362  38.122  62.864  1.00  0.00     0.051 A 
HETATM   19  S   UNL     1       4.600  36.873  61.998  1.00  0.00    -0.104 SA
ENDBRANCH  13  14
ENDBRANCH  10  13
ENDBRANCH   8   9
ENDBRANCH   1   8
BRANCH   5  20
HETATM   20  N   UNL     1       9.146  30.664  59.368  1.00  0.00    -0.338 N 
HETATM   21  C   UNL     1       9.758  30.696  58.159  1.00  0.00     0.321 C 
HETATM   22  N   UNL     1       9.461  29.731  57.257  1.00  0.00    -0.309 N 
HETATM   23  O   UNL     1      10.611  31.534  57.880  1.00  0.00    -0.247 OA
HETATM   24  H   UNL     1      10.125  29.719  56.489  1.00  0.00     0.170 HD
HETATM   25  H   UNL     1       8.819  29.737  59.621  1.00  0.00     0.164 HD
BRANCH  22  26
HETATM   26  C   UNL     1       8.394  28.821  57.140  1.00  0.00     0.036 A 
HETATM   27  C   UNL     1       7.048  29.184  57.068  1.00  0.00     0.029 A 
HETATM   28  C   UNL     1       6.059  28.203  56.933  1.00  0.00     0.002 A 
HETATM   29  C   UNL     1       6.409  26.858  56.850  1.00  0.00     0.000 A 
HETATM   30  C   UNL     1       7.750  26.489  56.888  1.00  0.00     0.002 A 
HETATM   31  C   UNL     1       8.737  27.466  57.025  1.00  0.00     0.029 A 
ENDBRANCH  22  26
ENDBRANCH   5  20
TORSDOF 6
ENDMDL
MODEL 9
REMARK VINA RESULT:      -7.9      5.288      8.018
REMARK  6 active torsions:
REMARK  status: ('A' for Active; 'I' for Inactive)
REMARK    1  A    between atoms: C_3  and  C_4 
REMARK    2  A    between atoms: C_4  and  N_5 
REMARK       I    between atoms: N_5  and  C_6 
REMARK    3  A    between atoms: C_6  and  C_7 
REMARK    4  A    between atoms: C_7  and  N_8 
REMARK    5  A    between atoms: C_12  and  N_13 
REMARK       I    between atoms: N_13  and  C_14 
REMARK       I    between atoms: C_14  and  N_15 
REMARK    6  A    between atoms: N_15  and  C_16 
ROOT
HETATM    1  N   UNL     1       5.658  26.459  52.371  1.00  0.00    -0.063 N 
HETATM    2  H   UNL     1       5.389  27.449  52.318  1.00  0.00     0.280 HD
HETATM    3  C   UNL     1       4.884  25.883  53.535  1.00  0.00     0.237 C 
HETATM    4  C   UNL     1       5.377  26.436  54.860  1.00  0.00     0.053 C 
HETATM    5  C   UNL     1       6.893  26.374  55.050  1.00  0.00     0.089 C 
HETATM    6  C   UNL     1       7.626  26.959  53.844  1.00  0.00     0.053 C 
HETATM    7  C   UNL     1       7.159  26.443  52.495  1.00  0.00     0.237 C 
ENDROOT
BRANCH   1   8
HETATM    8  C   UNL     1       5.206  25.854  51.022  1.00  0.00     0.337 C 
BRANCH   8   9
HETATM    9  C   UNL     1       4.594  26.826  50.005  1.00  0.00     0.243 C 
HETATM   10  N   UNL     1       3.797  27.822  50.517  1.00  0.00    -0.355 N 
HETATM   11  H   UNL     1       4.028  28.190  51.436  1.00  0.00     0.162 HD
HETATM   12  O   UNL     1       4.850  26.717  48.807  1.00  0.00    -0.272 OA
BRANCH  10  13
HETATM   13  C   UNL     1       3.254  28.834  49.630  1.00  0.00     0.169 C 
BRANCH  13  14
HETATM   14  C   UNL     1       4.131  30.057  49.557  1.00  0.00     0.006 A 
HETATM   15  C   UNL     1       4.706  30.606  48.414  1.00  0.00    -0.047 A 
HETATM   16  C   UNL     1       4.530  30.082  47.023  1.00  0.00     0.049 C 
HETATM   17  C   UNL     1       5.518  31.746  48.728  1.00  0.00     0.015 A 
HETATM   18  C   UNL     1       5.539  32.028  50.072  1.00  0.00     0.051 A 
HETATM   19  S   UNL     1       4.594  30.932  50.965  1.00  0.00    -0.104 SA
ENDBRANCH  13  14
ENDBRANCH  10  13
ENDBRANCH   8   9
ENDBRANCH   1   8
BRANCH   5  20
HETATM   20  N   UNL     1       7.403  25.081  55.508  1.00  0.00    -0.338 N 
HETATM   21  C   UNL     1       8.173  24.848  56.598  1.00  0.00     0.321 C 
HETATM   22  N   UNL     1       8.536  23.574  56.876  1.00  0.00    -0.309 N 
HETATM   23  O   UNL     1       8.501  25.746  57.370  1.00  0.00    -0.247 OA
HETATM   24  H   UNL     1       8.913  23.488  57.815  1.00  0.00     0.170 HD
HETATM   25  H   UNL     1       6.869  24.267  55.221  1.00  0.00     0.164 HD
BRANCH  22  26
HETATM   26  C   UNL     1       8.567  22.395  56.108  1.00  0.00     0.036 A 
HETATM   27  C   UNL     1       8.255  21.125  56.595  1.00  0.00     0.029 A 
HETATM   28  C   UNL     1       8.297  20.013  55.746  1.00  0.00     0.002 A 
HETATM   29  C   UNL     1       8.630  20.167  54.402  1.00  0.00     0.000 A 
HETATM   30  C   UNL     1       8.912  21.434  53.900  1.00  0.00     0.002 A 
HETATM   31  C   UNL     1       8.872  22.543  54.748  1.00  0.00     0.029 A 
ENDBRANCH  22  26
ENDBRANCH   5  20
TORSDOF 6
ENDMDL
MODEL 10
REMARK VINA RESULT:      -7.8      4.706      8.424
REMARK  6 active torsions:
REMARK  status: ('A' for Active; 'I' for Inactive)
REMARK    1  A    between atoms: C_3  and  C_4 
REMARK    2  A    between atoms: C_4  and  N_5 
REMARK       I    between atoms: N_5  and  C_6 
REMARK    3  A    between atoms: C_6  and  C_7 
REMARK    4  A    between atoms: C_7  and  N_8 
REMARK    5  A    between atoms: C_12  and  N_13 
REMARK       I    between atoms: N_13  and  C_14 
REMARK       I    between atoms: C_14  and  N_15 
REMARK    6  A    between atoms: N_15  and  C_16 
ROOT
HETATM    1  N   UNL     1       6.381  27.192  57.116  1.00  0.00    -0.063 N 
HETATM    2  H   UNL     1       6.766  27.645  57.953  1.00  0.00     0.280 HD
HETATM    3  C   UNL     1       7.314  27.557  55.983  1.00  0.00     0.237 C 
HETATM    4  C   UNL     1       7.223  29.032  55.638  1.00  0.00     0.053 C 
HETATM    5  C   UNL     1       5.799  29.551  55.441  1.00  0.00     0.089 C 
HETATM    6  C   UNL     1       4.895  29.149  56.606  1.00  0.00     0.053 C 
HETATM    7  C   UNL     1       4.962  27.683  56.995  1.00  0.00     0.237 C 
ENDROOT
BRANCH   1   8
HETATM    8  C   UNL     1       6.421  25.680  57.432  1.00  0.00     0.337 C 
BRANCH   8   9
HETATM    9  C   UNL     1       7.753  24.962  57.183  1.00  0.00     0.243 C 
HETATM   10  N   UNL     1       7.797  24.116  56.100  1.00  0.00    -0.355 N 
HETATM   11  H   UNL     1       7.234  24.354  55.288  1.00  0.00     0.162 HD
HETATM   12  O   UNL     1       8.723  25.178  57.907  1.00  0.00    -0.272 OA
BRANCH  10  13
HETATM   13  C   UNL     1       9.045  23.468  55.745  1.00  0.00     0.169 C 
BRANCH  13  14
HETATM   14  C   UNL     1       8.833  22.270  54.856  1.00  0.00     0.006 A 
HETATM   15  C   UNL     1       8.348  22.274  53.551  1.00  0.00    -0.047 A 
HETATM   16  C   UNL     1       7.968  23.496  52.776  1.00  0.00     0.049 C 
HETATM   17  C   UNL     1       8.235  20.943  53.028  1.00  0.00     0.015 A 
HETATM   18  C   UNL     1       8.628  19.983  53.928  1.00  0.00     0.051 A 
HETATM   19  S   UNL     1       9.130  20.666  55.403  1.00  0.00    -0.104 SA
ENDBRANCH  13  14
ENDBRANCH  10  13
ENDBRANCH   8   9
ENDBRANCH   1   8
BRANCH   5  20
HETATM   20  N   UNL     1       5.232  29.303  54.114  1.00  0.00    -0.338 N 
HETATM   21  C   UNL     1       4.094  29.831  53.602  1.00  0.00     0.321 C 
HETATM   22  N   UNL     1       3.735  29.498  52.340  1.00  0.00    -0.309 N 
HETATM   23  O   UNL     1       3.413  30.644  54.223  1.00  0.00    -0.247 OA
HETATM   24  H   UNL     1       3.006  30.109  51.984  1.00  0.00     0.170 HD
HETATM   25  H   UNL     1       5.891  29.015  53.398  1.00  0.00     0.164 HD
BRANCH  22  26
HETATM   26  C   UNL     1       4.108  28.447  51.482  1.00  0.00     0.036 A 
HETATM   27  C   UNL     1       4.814  27.311  51.880  1.00  0.00     0.029 A 
HETATM   28  C   UNL     1       5.123  26.309  50.953  1.00  0.00     0.002 A 
HETATM   29  C   UNL     1       4.711  26.427  49.627  1.00  0.00     0.000 A 
HETATM   30  C   UNL     1       3.979  27.541  49.227  1.00  0.00     0.002 A 
HETATM   31  C   UNL     1       3.673  28.541  50.152  1.00  0.00     0.029 A 
ENDBRANCH  22  26
ENDBRANCH   5  20
TORSDOF 6
ENDMDL
