MODEL 1
REMARK VINA RESULT:      -9.8      0.000      0.000
REMARK  5 active torsions:
REMARK  status: ('A' for Active; 'I' for Inactive)
REMARK       I    between atoms: C_2  and  N_3 
REMARK    1  A    between atoms: N_3  and  C_4 
REMARK    2  A    between atoms: C_7  and  C_8 
REMARK    3  A    between atoms: C_8  and  N_9 
REMARK    4  A    between atoms: C_12  and  C_13 
REMARK    5  A    between atoms: C_14  and  O_15 
ROOT
HETATM    1  N   UNL     1       5.736  27.526  54.531  1.00  0.00    -0.060 N 
HETATM    2  H   UNL     1       6.745  27.710  54.510  1.00  0.00     0.280 HD
HETATM    3  C   UNL     1       5.180  27.681  53.105  1.00  0.00     0.272 C 
HETATM    4  C   UNL     1       5.771  26.712  52.056  1.00  0.00     0.190 C 
HETATM    5  O   UNL     1       5.382  25.360  52.357  1.00  0.00    -0.339 OA
HETATM    6  C   UNL     1       6.350  24.765  53.118  1.00  0.00     0.077 A 
HETATM    7  C   UNL     1       6.505  25.131  54.458  1.00  0.00     0.001 A 
HETATM    8  C   UNL     1       5.567  26.124  55.080  1.00  0.00     0.276 C 
HETATM    9  C   UNL     1       7.160  23.803  52.522  1.00  0.00     0.037 A 
HETATM   10  C   UNL     1       8.181  23.217  53.264  1.00  0.00     0.003 A 
HETATM   11  C   UNL     1       8.376  23.589  54.594  1.00  0.00     0.001 A 
HETATM   12  C   UNL     1       7.540  24.537  55.192  1.00  0.00     0.012 A 
ENDROOT
BRANCH   1  13
HETATM   13  C   UNL     1       5.096  28.592  55.399  1.00  0.00     0.273 C 
BRANCH  13  14
HETATM   14  C   UNL     1       5.943  29.191  56.487  1.00  0.00    -0.032 A 
HETATM   15  C   UNL     1       5.648  30.440  57.045  1.00  0.00     0.011 A 
HETATM   16  C   UNL     1       6.410  30.940  58.112  1.00  0.00     0.030 A 
HETATM   17  C   UNL     1       7.470  30.202  58.644  1.00  0.00     0.034 A 
HETATM   18  C   UNL     1       7.779  28.965  58.071  1.00  0.00     0.030 A 
HETATM   19  C   UNL     1       7.025  28.464  57.005  1.00  0.00     0.011 A 
BRANCH  17  20
HETATM   20  N   UNL     1       8.242  30.604  59.753  1.00  0.00    -0.328 N 
HETATM   21  C   UNL     1       9.172  31.627  59.804  1.00  0.00     0.218 C 
HETATM   22  C   UNL     1       9.725  31.848  61.192  1.00  0.00     0.117 C 
HETATM   23  O   UNL     1       9.525  32.336  58.867  1.00  0.00    -0.274 OA
HETATM   24  H   UNL     1       8.068  30.113  60.622  1.00  0.00     0.169 HD
ENDBRANCH  17  20
ENDBRANCH  13  14
ENDBRANCH   1  13
BRANCH   4  25
HETATM   25  C   UNL     1       5.222  27.030  50.671  1.00  0.00     0.006 A 
HETATM   26  C   UNL     1       5.324  28.325  50.133  1.00  0.00     0.077 A 
HETATM   27  C   UNL     1       4.773  28.610  48.878  1.00  0.00     0.037 A 
HETATM   28  C   UNL     1       4.157  27.604  48.132  1.00  0.00     0.003 A 
HETATM   29  C   UNL     1       4.096  26.308  48.631  1.00  0.00     0.001 A 
HETATM   30  C   UNL     1       4.631  26.020  49.885  1.00  0.00     0.012 A 
BRANCH  26  31
HETATM   31  O   UNL     1       5.942  29.273  50.908  1.00  0.00    -0.355 OA
HETATM   32  C   UNL     1       5.543  30.620  50.651  1.00  0.00     0.210 C 
ENDBRANCH  26  31
ENDBRANCH   4  25
TORSDOF 5
ENDMDL
MODEL 2
REMARK VINA RESULT:      -9.7      3.363      8.720
REMARK  5 active torsions:
REMARK  status: ('A' for Active; 'I' for Inactive)
REMARK       I    between atoms: C_2  and  N_3 
REMARK    1  A    between atoms: N_3  and  C_4 
REMARK    2  A    between atoms: C_7  and  C_8 
REMARK    3  A    between atoms: C_8  and  N_9 
REMARK    4  A    between atoms: C_12  and  C_13 
REMARK    5  A    between atoms: C_14  and  O_15 
ROOT
HETATM    1  N   UNL     1       5.604  27.971  56.507  1.00  0.00    -0.060 N 
HETATM    2  H   UNL     1       6.091  28.010  55.604  1.00  0.00     0.280 HD
HETATM    3  C   UNL     1       6.423  28.762  57.541  1.00  0.00     0.272 C 
HETATM    4  C   UNL     1       6.617  30.262  57.223  1.00  0.00     0.190 C 
HETATM    5  O   UNL     1       5.356  30.949  57.288  1.00  0.00    -0.339 OA
HETATM    6  C   UNL     1       4.794  30.992  56.042  1.00  0.00     0.077 A 
HETATM    7  C   UNL     1       4.252  29.831  55.483  1.00  0.00     0.001 A 
HETATM    8  C   UNL     1       4.225  28.556  56.274  1.00  0.00     0.276 C 
HETATM    9  C   UNL     1       4.781  32.207  55.364  1.00  0.00     0.037 A 
HETATM   10  C   UNL     1       4.256  32.265  54.077  1.00  0.00     0.003 A 
HETATM   11  C   UNL     1       3.739  31.112  53.485  1.00  0.00     0.001 A 
HETATM   12  C   UNL     1       3.731  29.901  54.184  1.00  0.00     0.012 A 
ENDROOT
BRANCH   1  13
HETATM   13  C   UNL     1       5.575  26.520  56.947  1.00  0.00     0.273 C 
BRANCH  13  14
HETATM   14  C   UNL     1       6.305  25.527  56.086  1.00  0.00    -0.032 A 
HETATM   15  C   UNL     1       7.481  24.905  56.518  1.00  0.00     0.011 A 
HETATM   16  C   UNL     1       8.099  23.925  55.726  1.00  0.00     0.030 A 
HETATM   17  C   UNL     1       7.553  23.545  54.498  1.00  0.00     0.034 A 
HETATM   18  C   UNL     1       6.390  24.184  54.056  1.00  0.00     0.030 A 
HETATM   19  C   UNL     1       5.772  25.163  54.841  1.00  0.00     0.011 A 
BRANCH  17  20
HETATM   20  N   UNL     1       8.076  22.527  53.675  1.00  0.00    -0.328 N 
HETATM   21  C   UNL     1       8.010  21.161  53.883  1.00  0.00     0.218 C 
HETATM   22  C   UNL     1       8.582  20.364  52.734  1.00  0.00     0.117 C 
HETATM   23  O   UNL     1       7.522  20.596  54.856  1.00  0.00    -0.274 OA
HETATM   24  H   UNL     1       8.518  22.829  52.815  1.00  0.00     0.169 HD
ENDBRANCH  17  20
ENDBRANCH  13  14
ENDBRANCH   1  13
BRANCH   4  25
HETATM   25  C   UNL     1       7.526  30.911  58.258  1.00  0.00     0.006 A 
HETATM   26  C   UNL     1       8.926  30.806  58.160  1.00  0.00     0.077 A 
HETATM   27  C   UNL     1       9.743  31.369  59.146  1.00  0.00     0.037 A 
HETATM   28  C   UNL     1       9.183  32.075  60.211  1.00  0.00     0.003 A 
HETATM   29  C   UNL     1       7.804  32.230  60.292  1.00  0.00     0.001 A 
HETATM   30  C   UNL     1       6.982  31.661  59.320  1.00  0.00     0.012 A 
BRANCH  26  31
HETATM   31  O   UNL     1       9.422  30.104  57.091  1.00  0.00    -0.355 OA
HETATM   32  C   UNL     1      10.827  29.853  57.131  1.00  0.00     0.210 C 
ENDBRANCH  26  31
ENDBRANCH   4  25
TORSDOF 5
ENDMDL
MODEL 3
REMARK VINA RESULT:      -9.4      3.581     10.070
REMARK  5 active torsions:
REMARK  status: ('A' for Active; 'I' for Inactive)
REMARK       I    between atoms: C_2  and  N_3 
REMARK    1  A    between atoms: N_3  and  C_4 
REMARK    2  A    between atoms: C_7  and  C_8 
REMARK    3  A    between atoms: C_8  and  N_9 
REMARK    4  A    between atoms: C_12  and  C_13 
REMARK    5  A    between atoms: C_14  and  O_15 
ROOT
HETATM    1  N   UNL     1       5.588  30.815  58.539  1.00  0.00    -0.060 N 
HETATM    2  H   UNL     1       5.632  29.980  59.134  1.00  0.00     0.280 HD
HETATM    3  C   UNL     1       4.545  31.782  59.125  1.00  0.00     0.272 C 
HETATM    4  C   UNL     1       4.844  32.289  60.554  1.00  0.00     0.190 C 
HETATM    5  O   UNL     1       6.017  33.121  60.548  1.00  0.00    -0.339 OA
HETATM    6  C   UNL     1       7.117  32.361  60.834  1.00  0.00     0.077 A 
HETATM    7  C   UNL     1       7.615  31.471  59.878  1.00  0.00     0.001 A 
HETATM    8  C   UNL     1       6.986  31.398  58.517  1.00  0.00     0.276 C 
HETATM    9  C   UNL     1       7.711  32.502  62.085  1.00  0.00     0.037 A 
HETATM   10  C   UNL     1       8.804  31.706  62.414  1.00  0.00     0.003 A 
HETATM   11  C   UNL     1       9.299  30.787  61.488  1.00  0.00     0.001 A 
HETATM   12  C   UNL     1       8.713  30.672  60.224  1.00  0.00     0.012 A 
ENDROOT
BRANCH   1  13
HETATM   13  C   UNL     1       5.099  30.376  57.172  1.00  0.00     0.273 C 
BRANCH  13  14
HETATM   14  C   UNL     1       5.630  29.073  56.639  1.00  0.00    -0.032 A 
HETATM   15  C   UNL     1       5.157  27.842  57.105  1.00  0.00     0.011 A 
HETATM   16  C   UNL     1       5.614  26.643  56.535  1.00  0.00     0.030 A 
HETATM   17  C   UNL     1       6.542  26.653  55.491  1.00  0.00     0.034 A 
HETATM   18  C   UNL     1       7.032  27.883  55.043  1.00  0.00     0.030 A 
HETATM   19  C   UNL     1       6.581  29.080  55.609  1.00  0.00     0.011 A 
BRANCH  17  20
HETATM   20  N   UNL     1       7.002  25.499  54.825  1.00  0.00    -0.328 N 
HETATM   21  C   UNL     1       6.309  24.723  53.913  1.00  0.00     0.218 C 
HETATM   22  C   UNL     1       7.157  23.625  53.315  1.00  0.00     0.117 C 
HETATM   23  O   UNL     1       5.145  24.879  53.561  1.00  0.00    -0.274 OA
HETATM   24  H   UNL     1       7.961  25.230  55.006  1.00  0.00     0.169 HD
ENDBRANCH  17  20
ENDBRANCH  13  14
ENDBRANCH   1  13
BRANCH   4  25
HETATM   25  C   UNL     1       3.695  33.151  61.062  1.00  0.00     0.006 A 
HETATM   26  C   UNL     1       3.454  33.295  62.441  1.00  0.00     0.077 A 
HETATM   27  C   UNL     1       2.366  34.054  62.888  1.00  0.00     0.037 A 
HETATM   28  C   UNL     1       1.538  34.707  61.976  1.00  0.00     0.003 A 
HETATM   29  C   UNL     1       1.796  34.615  60.613  1.00  0.00     0.001 A 
HETATM   30  C   UNL     1       2.870  33.850  60.159  1.00  0.00     0.012 A 
BRANCH  26  31
HETATM   31  O   UNL     1       4.303  32.633  63.291  1.00  0.00    -0.355 OA
HETATM   32  C   UNL     1       4.897  33.444  64.305  1.00  0.00     0.210 C 
ENDBRANCH  26  31
ENDBRANCH   4  25
TORSDOF 5
ENDMDL
MODEL 4
REMARK VINA RESULT:      -9.4      3.576      8.888
REMARK  5 active torsions:
REMARK  status: ('A' for Active; 'I' for Inactive)
REMARK       I    between atoms: C_2  and  N_3 
REMARK    1  A    between atoms: N_3  and  C_4 
REMARK    2  A    between atoms: C_7  and  C_8 
REMARK    3  A    between atoms: C_8  and  N_9 
REMARK    4  A    between atoms: C_12  and  C_13 
REMARK    5  A    between atoms: C_14  and  O_15 
ROOT
HETATM    1  N   UNL     1       5.938  26.618  51.717  1.00  0.00    -0.060 N 
HETATM    2  H   UNL     1       6.550  27.390  52.004  1.00  0.00     0.280 HD
HETATM    3  C   UNL     1       6.611  25.290  52.102  1.00  0.00     0.272 C 
HETATM    4  C   UNL     1       6.871  25.094  53.613  1.00  0.00     0.190 C 
HETATM    5  O   UNL     1       5.622  24.984  54.319  1.00  0.00    -0.339 OA
HETATM    6  C   UNL     1       5.246  26.216  54.776  1.00  0.00     0.077 A 
HETATM    7  C   UNL     1       4.775  27.177  53.878  1.00  0.00     0.001 A 
HETATM    8  C   UNL     1       4.616  26.836  52.424  1.00  0.00     0.276 C 
HETATM    9  C   UNL     1       5.349  26.475  56.140  1.00  0.00     0.037 A 
HETATM   10  C   UNL     1       5.015  27.737  56.621  1.00  0.00     0.003 A 
HETATM   11  C   UNL     1       4.572  28.723  55.739  1.00  0.00     0.001 A 
HETATM   12  C   UNL     1       4.446  28.446  54.375  1.00  0.00     0.012 A 
ENDROOT
BRANCH   1  13
HETATM   13  C   UNL     1       5.825  26.663  50.205  1.00  0.00     0.273 C 
BRANCH  13  14
HETATM   14  C   UNL     1       4.455  26.883  49.625  1.00  0.00    -0.032 A 
HETATM   15  C   UNL     1       3.734  28.057  49.868  1.00  0.00     0.011 A 
HETATM   16  C   UNL     1       2.491  28.268  49.252  1.00  0.00     0.030 A 
HETATM   17  C   UNL     1       1.952  27.319  48.381  1.00  0.00     0.034 A 
HETATM   18  C   UNL     1       2.661  26.135  48.158  1.00  0.00     0.030 A 
HETATM   19  C   UNL     1       3.899  25.919  48.772  1.00  0.00     0.011 A 
BRANCH  17  20
HETATM   20  N   UNL     1       0.743  27.483  47.675  1.00  0.00    -0.328 N 
HETATM   21  C   UNL     1       0.476  28.388  46.663  1.00  0.00     0.218 C 
HETATM   22  C   UNL     1      -0.895  28.204  46.058  1.00  0.00     0.117 C 
HETATM   23  O   UNL     1       1.241  29.246  46.235  1.00  0.00    -0.274 OA
HETATM   24  H   UNL     1      -0.004  26.841  47.910  1.00  0.00     0.169 HD
ENDBRANCH  17  20
ENDBRANCH  13  14
ENDBRANCH   1  13
BRANCH   4  25
HETATM   25  C   UNL     1       7.630  23.796  53.857  1.00  0.00     0.006 A 
HETATM   26  C   UNL     1       8.372  23.603  55.036  1.00  0.00     0.077 A 
HETATM   27  C   UNL     1       9.101  22.423  55.222  1.00  0.00     0.037 A 
HETATM   28  C   UNL     1       9.065  21.411  54.262  1.00  0.00     0.003 A 
HETATM   29  C   UNL     1       8.295  21.568  53.116  1.00  0.00     0.001 A 
HETATM   30  C   UNL     1       7.576  22.746  52.918  1.00  0.00     0.012 A 
BRANCH  26  31
HETATM   31  O   UNL     1       8.369  24.629  55.946  1.00  0.00    -0.355 OA
HETATM   32  C   UNL     1       8.701  24.254  57.283  1.00  0.00     0.210 C 
ENDBRANCH  26  31
ENDBRANCH   4  25
TORSDOF 5
ENDMDL
MODEL 5
REMARK VINA RESULT:      -9.3      3.277      6.357
REMARK  5 active torsions:
REMARK  status: ('A' for Active; 'I' for Inactive)
REMARK       I    between atoms: C_2  and  N_3 
REMARK    1  A    between atoms: N_3  and  C_4 
REMARK    2  A    between atoms: C_7  and  C_8 
REMARK    3  A    between atoms: C_8  and  N_9 
REMARK    4  A    between atoms: C_12  and  C_13 
REMARK    5  A    between atoms: C_14  and  O_15 
ROOT
HETATM    1  N   UNL     1       7.566  29.558  58.252  1.00  0.00    -0.060 N 
HETATM    2  H   UNL     1       6.656  29.555  58.727  1.00  0.00     0.280 HD
HETATM    3  C   UNL     1       7.927  28.112  57.874  1.00  0.00     0.272 C 
HETATM    4  C   UNL     1       6.942  27.415  56.908  1.00  0.00     0.190 C 
HETATM    5  O   UNL     1       6.977  28.053  55.619  1.00  0.00    -0.339 OA
HETATM    6  C   UNL     1       6.005  29.012  55.557  1.00  0.00     0.077 A 
HETATM    7  C   UNL     1       6.156  30.205  56.270  1.00  0.00     0.001 A 
HETATM    8  C   UNL     1       7.415  30.463  57.046  1.00  0.00     0.276 C 
HETATM    9  C   UNL     1       4.879  28.763  54.777  1.00  0.00     0.037 A 
HETATM   10  C   UNL     1       3.856  29.704  54.735  1.00  0.00     0.003 A 
HETATM   11  C   UNL     1       3.971  30.888  55.463  1.00  0.00     0.001 A 
HETATM   12  C   UNL     1       5.116  31.143  56.223  1.00  0.00     0.012 A 
ENDROOT
BRANCH   1  13
HETATM   13  C   UNL     1       8.598  30.051  59.247  1.00  0.00     0.273 C 
BRANCH  13  14
HETATM   14  C   UNL     1       8.125  30.997  60.316  1.00  0.00    -0.032 A 
HETATM   15  C   UNL     1       7.052  31.868  60.104  1.00  0.00     0.011 A 
HETATM   16  C   UNL     1       6.582  32.685  61.144  1.00  0.00     0.030 A 
HETATM   17  C   UNL     1       7.168  32.641  62.411  1.00  0.00     0.034 A 
HETATM   18  C   UNL     1       8.256  31.788  62.616  1.00  0.00     0.030 A 
HETATM   19  C   UNL     1       8.730  30.974  61.582  1.00  0.00     0.011 A 
BRANCH  17  20
HETATM   20  N   UNL     1       6.716  33.380  63.523  1.00  0.00    -0.328 N 
HETATM   21  C   UNL     1       5.592  33.139  64.292  1.00  0.00     0.218 C 
HETATM   22  C   UNL     1       5.480  34.071  65.475  1.00  0.00     0.117 C 
HETATM   23  O   UNL     1       4.760  32.258  64.106  1.00  0.00    -0.274 OA
HETATM   24  H   UNL     1       7.301  34.154  63.814  1.00  0.00     0.169 HD
ENDBRANCH  17  20
ENDBRANCH  13  14
ENDBRANCH   1  13
BRANCH   4  25
HETATM   25  C   UNL     1       7.347  25.963  56.692  1.00  0.00     0.006 A 
HETATM   26  C   UNL     1       6.581  25.112  55.874  1.00  0.00     0.077 A 
HETATM   27  C   UNL     1       6.944  23.769  55.724  1.00  0.00     0.037 A 
HETATM   28  C   UNL     1       8.089  23.272  56.347  1.00  0.00     0.003 A 
HETATM   29  C   UNL     1       8.883  24.115  57.116  1.00  0.00     0.001 A 
HETATM   30  C   UNL     1       8.521  25.452  57.280  1.00  0.00     0.012 A 
BRANCH  26  31
HETATM   31  O   UNL     1       5.469  25.655  55.284  1.00  0.00    -0.355 OA
HETATM   32  C   UNL     1       5.224  25.226  53.944  1.00  0.00     0.210 C 
ENDBRANCH  26  31
ENDBRANCH   4  25
TORSDOF 5
ENDMDL
MODEL 6
REMARK VINA RESULT:      -9.1      4.403      9.323
REMARK  5 active torsions:
REMARK  status: ('A' for Active; 'I' for Inactive)
REMARK       I    between atoms: C_2  and  N_3 
REMARK    1  A    between atoms: N_3  and  C_4 
REMARK    2  A    between atoms: C_7  and  C_8 
REMARK    3  A    between atoms: C_8  and  N_9 
REMARK    4  A    between atoms: C_12  and  C_13 
REMARK    5  A    between atoms: C_14  and  O_15 
ROOT
HETATM    1  N   UNL     1       6.254  30.149  58.152  1.00  0.00    -0.060 N 
HETATM    2  H   UNL     1       6.077  29.533  58.953  1.00  0.00     0.280 HD
HETATM    3  C   UNL     1       5.219  31.286  58.168  1.00  0.00     0.272 C 
HETATM    4  C   UNL     1       5.253  32.192  59.420  1.00  0.00     0.190 C 
HETATM    5  O   UNL     1       6.482  32.938  59.458  1.00  0.00    -0.339 OA
HETATM    6  C   UNL     1       7.406  32.260  60.204  1.00  0.00     0.077 A 
HETATM    7  C   UNL     1       8.000  31.103  59.692  1.00  0.00     0.001 A 
HETATM    8  C   UNL     1       7.678  30.644  58.299  1.00  0.00     0.276 C 
HETATM    9  C   UNL     1       7.725  32.751  61.466  1.00  0.00     0.037 A 
HETATM   10  C   UNL     1       8.628  32.052  62.262  1.00  0.00     0.003 A 
HETATM   11  C   UNL     1       9.210  30.877  61.785  1.00  0.00     0.001 A 
HETATM   12  C   UNL     1       8.904  30.406  60.505  1.00  0.00     0.012 A 
ENDROOT
BRANCH   1  13
HETATM   13  C   UNL     1       6.029  29.334  56.892  1.00  0.00     0.273 C 
BRANCH  13  14
HETATM   14  C   UNL     1       6.501  27.906  56.905  1.00  0.00    -0.032 A 
HETATM   15  C   UNL     1       7.785  27.560  57.341  1.00  0.00     0.011 A 
HETATM   16  C   UNL     1       8.172  26.213  57.415  1.00  0.00     0.030 A 
HETATM   17  C   UNL     1       7.287  25.192  57.063  1.00  0.00     0.034 A 
HETATM   18  C   UNL     1       6.013  25.539  56.604  1.00  0.00     0.030 A 
HETATM   19  C   UNL     1       5.623  26.880  56.527  1.00  0.00     0.011 A 
BRANCH  17  20
HETATM   20  N   UNL     1       7.576  23.817  57.169  1.00  0.00    -0.328 N 
HETATM   21  C   UNL     1       8.225  23.020  56.243  1.00  0.00     0.218 C 
HETATM   22  C   UNL     1       8.462  21.615  56.741  1.00  0.00     0.117 C 
HETATM   23  O   UNL     1       8.620  23.368  55.135  1.00  0.00    -0.274 OA
HETATM   24  H   UNL     1       7.313  23.369  58.039  1.00  0.00     0.169 HD
ENDBRANCH  17  20
ENDBRANCH  13  14
ENDBRANCH   1  13
BRANCH   4  25
HETATM   25  C   UNL     1       4.122  33.211  59.370  1.00  0.00     0.006 A 
HETATM   26  C   UNL     1       3.373  33.518  60.521  1.00  0.00     0.077 A 
HETATM   27  C   UNL     1       2.307  34.422  60.445  1.00  0.00     0.037 A 
HETATM   28  C   UNL     1       2.004  35.058  59.241  1.00  0.00     0.003 A 
HETATM   29  C   UNL     1       2.769  34.801  58.108  1.00  0.00     0.001 A 
HETATM   30  C   UNL     1       3.824  33.893  58.173  1.00  0.00     0.012 A 
BRANCH  26  31
HETATM   31  O   UNL     1       3.718  32.866  61.677  1.00  0.00    -0.355 OA
HETATM   32  C   UNL     1       3.758  33.686  62.845  1.00  0.00     0.210 C 
ENDBRANCH  26  31
ENDBRANCH   4  25
TORSDOF 5
ENDMDL
MODEL 7
REMARK VINA RESULT:      -9.0      3.319      8.201
REMARK  5 active torsions:
REMARK  status: ('A' for Active; 'I' for Inactive)
REMARK       I    between atoms: C_2  and  N_3 
REMARK    1  A    between atoms: N_3  and  C_4 
REMARK    2  A    between atoms: C_7  and  C_8 
REMARK    3  A    between atoms: C_8  and  N_9 
REMARK    4  A    between atoms: C_12  and  C_13 
REMARK    5  A    between atoms: C_14  and  O_15 
ROOT
HETATM    1  N   UNL     1       5.675  26.724  51.987  1.00  0.00    -0.060 N 
HETATM    2  H   UNL     1       6.353  27.478  52.144  1.00  0.00     0.280 HD
HETATM    3  C   UNL     1       6.349  25.381  52.317  1.00  0.00     0.272 C 
HETATM    4  C   UNL     1       6.832  25.226  53.777  1.00  0.00     0.190 C 
HETATM    5  O   UNL     1       5.706  25.195  54.671  1.00  0.00    -0.339 OA
HETATM    6  C   UNL     1       5.451  26.457  55.129  1.00  0.00     0.077 A 
HETATM    7  C   UNL     1       4.883  27.407  54.276  1.00  0.00     0.001 A 
HETATM    8  C   UNL     1       4.488  27.023  52.879  1.00  0.00     0.276 C 
HETATM    9  C   UNL     1       5.774  26.758  56.450  1.00  0.00     0.037 A 
HETATM   10  C   UNL     1       5.567  28.050  56.925  1.00  0.00     0.003 A 
HETATM   11  C   UNL     1       5.030  29.023  56.082  1.00  0.00     0.001 A 
HETATM   12  C   UNL     1       4.683  28.705  54.765  1.00  0.00     0.012 A 
ENDROOT
BRANCH   1  13
HETATM   13  C   UNL     1       5.330  26.721  50.510  1.00  0.00     0.273 C 
BRANCH  13  14
HETATM   14  C   UNL     1       4.946  28.037  49.892  1.00  0.00    -0.032 A 
HETATM   15  C   UNL     1       5.759  29.169  50.009  1.00  0.00     0.011 A 
HETATM   16  C   UNL     1       5.413  30.363  49.357  1.00  0.00     0.030 A 
HETATM   17  C   UNL     1       4.259  30.445  48.575  1.00  0.00     0.034 A 
HETATM   18  C   UNL     1       3.434  29.321  48.479  1.00  0.00     0.030 A 
HETATM   19  C   UNL     1       3.773  28.130  49.129  1.00  0.00     0.011 A 
BRANCH  17  20
HETATM   20  N   UNL     1       3.876  31.585  47.840  1.00  0.00    -0.328 N 
HETATM   21  C   UNL     1       4.246  31.916  46.548  1.00  0.00     0.218 C 
HETATM   22  C   UNL     1       3.553  33.158  46.040  1.00  0.00     0.117 C 
HETATM   23  O   UNL     1       5.019  31.290  45.831  1.00  0.00    -0.274 OA
HETATM   24  H   UNL     1       3.226  32.215  48.296  1.00  0.00     0.169 HD
ENDBRANCH  17  20
ENDBRANCH  13  14
ENDBRANCH   1  13
BRANCH   4  25
HETATM   25  C   UNL     1       7.571  23.906  53.954  1.00  0.00     0.006 A 
HETATM   26  C   UNL     1       8.382  23.676  55.081  1.00  0.00     0.077 A 
HETATM   27  C   UNL     1       9.090  22.475  55.203  1.00  0.00     0.037 A 
HETATM   28  C   UNL     1       8.966  21.479  54.234  1.00  0.00     0.003 A 
HETATM   29  C   UNL     1       8.128  21.673  53.142  1.00  0.00     0.001 A 
HETATM   30  C   UNL     1       7.429  22.872  53.007  1.00  0.00     0.012 A 
BRANCH  26  31
HETATM   31  O   UNL     1       8.464  24.688  56.003  1.00  0.00    -0.355 OA
HETATM   32  C   UNL     1       8.819  24.277  57.323  1.00  0.00     0.210 C 
ENDBRANCH  26  31
ENDBRANCH   4  25
TORSDOF 5
ENDMDL
MODEL 8
REMARK VINA RESULT:      -9.0      2.707      8.538
REMARK  5 active torsions:
REMARK  status: ('A' for Active; 'I' for Inactive)
REMARK       I    between atoms: C_2  and  N_3 
REMARK    1  A    between atoms: N_3  and  C_4 
REMARK    2  A    between atoms: C_7  and  C_8 
REMARK    3  A    between atoms: C_8  and  N_9 
REMARK    4  A    between atoms: C_12  and  C_13 
REMARK    5  A    between atoms: C_14  and  O_15 
ROOT
HETATM    1  N   UNL     1       8.365  30.059  58.657  1.00  0.00    -0.060 N 
HETATM    2  H   UNL     1       7.990  29.428  59.374  1.00  0.00     0.280 HD
HETATM    3  C   UNL     1       7.190  30.672  57.878  1.00  0.00     0.272 C 
HETATM    4  C   UNL     1       6.208  31.517  58.721  1.00  0.00     0.190 C 
HETATM    5  O   UNL     1       6.864  32.702  59.205  1.00  0.00    -0.339 OA
HETATM    6  C   UNL     1       7.373  32.464  60.452  1.00  0.00     0.077 A 
HETATM    7  C   UNL     1       8.500  31.651  60.601  1.00  0.00     0.001 A 
HETATM    8  C   UNL     1       9.192  31.095  59.390  1.00  0.00     0.276 C 
HETATM    9  C   UNL     1       6.741  33.048  61.546  1.00  0.00     0.037 A 
HETATM   10  C   UNL     1       7.213  32.784  62.828  1.00  0.00     0.003 A 
HETATM   11  C   UNL     1       8.317  31.950  63.004  1.00  0.00     0.001 A 
HETATM   12  C   UNL     1       8.963  31.389  61.897  1.00  0.00     0.012 A 
ENDROOT
BRANCH   1  13
HETATM   13  C   UNL     1       9.177  29.218  57.690  1.00  0.00     0.273 C 
BRANCH  13  14
HETATM   14  C   UNL     1       8.414  28.394  56.689  1.00  0.00    -0.032 A 
HETATM   15  C   UNL     1       8.329  28.766  55.343  1.00  0.00     0.011 A 
HETATM   16  C   UNL     1       7.676  27.938  54.417  1.00  0.00     0.030 A 
HETATM   17  C   UNL     1       7.106  26.727  54.814  1.00  0.00     0.034 A 
HETATM   18  C   UNL     1       7.170  26.368  56.164  1.00  0.00     0.030 A 
HETATM   19  C   UNL     1       7.818  27.190  57.091  1.00  0.00     0.011 A 
BRANCH  17  20
HETATM   20  N   UNL     1       6.490  25.812  53.937  1.00  0.00    -0.328 N 
HETATM   21  C   UNL     1       5.281  25.960  53.280  1.00  0.00     0.218 C 
HETATM   22  C   UNL     1       4.987  24.824  52.329  1.00  0.00     0.117 C 
HETATM   23  O   UNL     1       4.506  26.904  53.389  1.00  0.00    -0.274 OA
HETATM   24  H   UNL     1       7.009  24.966  53.735  1.00  0.00     0.169 HD
ENDBRANCH  17  20
ENDBRANCH  13  14
ENDBRANCH   1  13
BRANCH   4  25
HETATM   25  C   UNL     1       5.037  31.981  57.865  1.00  0.00     0.006 A 
HETATM   26  C   UNL     1       4.198  31.053  57.222  1.00  0.00     0.077 A 
HETATM   27  C   UNL     1       3.155  31.499  56.401  1.00  0.00     0.037 A 
HETATM   28  C   UNL     1       2.911  32.864  56.248  1.00  0.00     0.003 A 
HETATM   29  C   UNL     1       3.701  33.791  56.919  1.00  0.00     0.001 A 
HETATM   30  C   UNL     1       4.749  33.354  57.728  1.00  0.00     0.012 A 
BRANCH  26  31
HETATM   31  O   UNL     1       4.482  29.725  57.411  1.00  0.00    -0.355 OA
HETATM   32  C   UNL     1       4.280  28.894  56.267  1.00  0.00     0.210 C 
ENDBRANCH  26  31
ENDBRANCH   4  25
TORSDOF 5
ENDMDL
MODEL 9
REMARK VINA RESULT:      -8.6      3.198      9.065
REMARK  5 active torsions:
REMARK  status: ('A' for Active; 'I' for Inactive)
REMARK       I    between atoms: C_2  and  N_3 
REMARK    1  A    between atoms: N_3  and  C_4 
REMARK    2  A    between atoms: C_7  and  C_8 
REMARK    3  A    between atoms: C_8  and  N_9 
REMARK    4  A    between atoms: C_12  and  C_13 
REMARK    5  A    between atoms: C_14  and  O_15 
ROOT
HETATM    1  N   UNL     1       5.439  32.945  59.330  1.00  0.00    -0.060 N 
HETATM    2  H   UNL     1       5.860  33.865  59.501  1.00  0.00     0.280 HD
HETATM    3  C   UNL     1       6.475  32.056  58.622  1.00  0.00     0.272 C 
HETATM    4  C   UNL     1       7.774  31.793  59.418  1.00  0.00     0.190 C 
HETATM    5  O   UNL     1       7.487  31.004  60.586  1.00  0.00    -0.339 OA
HETATM    6  C   UNL     1       7.271  31.830  61.653  1.00  0.00     0.077 A 
HETATM    7  C   UNL     1       6.087  32.569  61.732  1.00  0.00     0.001 A 
HETATM    8  C   UNL     1       5.026  32.406  60.684  1.00  0.00     0.276 C 
HETATM    9  C   UNL     1       8.252  31.909  62.638  1.00  0.00     0.037 A 
HETATM   10  C   UNL     1       8.074  32.778  63.710  1.00  0.00     0.003 A 
HETATM   11  C   UNL     1       6.915  33.550  63.794  1.00  0.00     0.001 A 
HETATM   12  C   UNL     1       5.923  33.444  62.815  1.00  0.00     0.012 A 
ENDROOT
BRANCH   1  13
HETATM   13  C   UNL     1       4.272  33.146  58.382  1.00  0.00     0.273 C 
BRANCH  13  14
HETATM   14  C   UNL     1       4.115  32.150  57.266  1.00  0.00    -0.032 A 
HETATM   15  C   UNL     1       4.559  32.424  55.968  1.00  0.00     0.011 A 
HETATM   16  C   UNL     1       4.468  31.447  54.965  1.00  0.00     0.030 A 
HETATM   17  C   UNL     1       3.943  30.183  55.239  1.00  0.00     0.034 A 
HETATM   18  C   UNL     1       3.477  29.918  56.531  1.00  0.00     0.030 A 
HETATM   19  C   UNL     1       3.562  30.889  57.533  1.00  0.00     0.011 A 
BRANCH  17  20
HETATM   20  N   UNL     1       3.876  29.129  54.306  1.00  0.00    -0.328 N 
HETATM   21  C   UNL     1       4.925  28.371  53.817  1.00  0.00     0.218 C 
HETATM   22  C   UNL     1       4.468  27.250  52.914  1.00  0.00     0.117 C 
HETATM   23  O   UNL     1       6.114  28.520  54.079  1.00  0.00    -0.274 OA
HETATM   24  H   UNL     1       2.950  28.873  53.985  1.00  0.00     0.169 HD
ENDBRANCH  17  20
ENDBRANCH  13  14
ENDBRANCH   1  13
BRANCH   4  25
HETATM   25  C   UNL     1       8.759  30.992  58.576  1.00  0.00     0.006 A 
HETATM   26  C   UNL     1       8.371  29.789  57.958  1.00  0.00     0.077 A 
HETATM   27  C   UNL     1       9.303  29.042  57.227  1.00  0.00     0.037 A 
HETATM   28  C   UNL     1      10.609  29.503  57.069  1.00  0.00     0.003 A 
HETATM   29  C   UNL     1      10.991  30.716  57.631  1.00  0.00     0.001 A 
HETATM   30  C   UNL     1      10.072  31.459  58.371  1.00  0.00     0.012 A 
BRANCH  26  31
HETATM   31  O   UNL     1       7.073  29.385  58.145  1.00  0.00    -0.355 OA
HETATM   32  C   UNL     1       6.713  28.177  57.475  1.00  0.00     0.210 C 
ENDBRANCH  26  31
ENDBRANCH   4  25
TORSDOF 5
ENDMDL
MODEL 10
REMARK VINA RESULT:      -8.6      2.754      8.702
REMARK  5 active torsions:
REMARK  status: ('A' for Active; 'I' for Inactive)
REMARK       I    between atoms: C_2  and  N_3 
REMARK    1  A    between atoms: N_3  and  C_4 
REMARK    2  A    between atoms: C_7  and  C_8 
REMARK    3  A    between atoms: C_8  and  N_9 
REMARK    4  A    between atoms: C_12  and  C_13 
REMARK    5  A    between atoms: C_14  and  O_15 
ROOT
HETATM    1  N   UNL     1       8.410  29.964  58.574  1.00  0.00    -0.060 N 
HETATM    2  H   UNL     1       7.964  29.348  59.262  1.00  0.00     0.280 HD
HETATM    3  C   UNL     1       7.312  30.680  57.770  1.00  0.00     0.272 C 
HETATM    4  C   UNL     1       6.364  31.576  58.598  1.00  0.00     0.190 C 
HETATM    5  O   UNL     1       7.087  32.699  59.134  1.00  0.00    -0.339 OA
HETATM    6  C   UNL     1       7.532  32.398  60.391  1.00  0.00     0.077 A 
HETATM    7  C   UNL     1       8.590  31.500  60.559  1.00  0.00     0.001 A 
HETATM    8  C   UNL     1       9.283  30.921  59.361  1.00  0.00     0.276 C 
HETATM    9  C   UNL     1       6.905  33.003  61.476  1.00  0.00     0.037 A 
HETATM   10  C   UNL     1       7.309  32.677  62.767  1.00  0.00     0.003 A 
HETATM   11  C   UNL     1       8.342  31.760  62.961  1.00  0.00     0.001 A 
HETATM   12  C   UNL     1       8.985  31.177  61.865  1.00  0.00     0.012 A 
ENDROOT
BRANCH   1  13
HETATM   13  C   UNL     1       9.193  29.087  57.616  1.00  0.00     0.273 C 
BRANCH  13  14
HETATM   14  C   UNL     1       8.403  28.281  56.622  1.00  0.00    -0.032 A 
HETATM   15  C   UNL     1       8.303  28.663  55.279  1.00  0.00     0.011 A 
HETATM   16  C   UNL     1       7.624  27.851  54.358  1.00  0.00     0.030 A 
HETATM   17  C   UNL     1       7.041  26.646  54.757  1.00  0.00     0.034 A 
HETATM   18  C   UNL     1       7.120  26.277  56.103  1.00  0.00     0.030 A 
HETATM   19  C   UNL     1       7.793  27.084  57.025  1.00  0.00     0.011 A 
BRANCH  17  20
HETATM   20  N   UNL     1       6.398  25.746  53.883  1.00  0.00    -0.328 N 
HETATM   21  C   UNL     1       5.198  25.931  53.218  1.00  0.00     0.218 C 
HETATM   22  C   UNL     1       4.870  24.799  52.275  1.00  0.00     0.117 C 
HETATM   23  O   UNL     1       4.456  26.903  53.316  1.00  0.00    -0.274 OA
HETATM   24  H   UNL     1       6.888  24.881  53.691  1.00  0.00     0.169 HD
ENDBRANCH  17  20
ENDBRANCH  13  14
ENDBRANCH   1  13
BRANCH   4  25
HETATM   25  C   UNL     1       5.262  32.145  57.713  1.00  0.00     0.006 A 
HETATM   26  C   UNL     1       4.177  32.846  58.270  1.00  0.00     0.077 A 
HETATM   27  C   UNL     1       3.150  33.320  57.445  1.00  0.00     0.037 A 
HETATM   28  C   UNL     1       3.214  33.141  56.063  1.00  0.00     0.003 A 
HETATM   29  C   UNL     1       4.307  32.496  55.496  1.00  0.00     0.001 A 
HETATM   30  C   UNL     1       5.327  32.009  56.312  1.00  0.00     0.012 A 
BRANCH  26  31
HETATM   31  O   UNL     1       4.168  32.994  59.633  1.00  0.00    -0.355 OA
HETATM   32  C   UNL     1       3.277  32.124  60.331  1.00  0.00     0.210 C 
ENDBRANCH  26  31
ENDBRANCH   4  25
TORSDOF 5
ENDMDL
