MODEL 1
REMARK VINA RESULT:      -8.6      0.000      0.000
REMARK  6 active torsions:
REMARK  status: ('A' for Active; 'I' for Inactive)
REMARK    1  A    between atoms: C_2  and  O_3 
REMARK    2  A    between atoms: O_3  and  C_4 
REMARK    3  A    between atoms: C_11  and  C_12 
REMARK    4  A    between atoms: C_12  and  N_13 
REMARK    5  A    between atoms: N_13  and  C_14 
REMARK    6  A    between atoms: C_17  and  O_18 
ROOT
HETATM    1  C   UNL     1       8.185  23.096  54.204  1.00  0.00     0.069 A 
HETATM    2  C   UNL     1       7.932  23.862  53.064  1.00  0.00     0.050 A 
HETATM    3  C   UNL     1       6.910  24.819  53.075  1.00  0.00    -0.006 A 
HETATM    4  C   UNL     1       6.146  25.006  54.232  1.00  0.00     0.045 A 
HETATM    5  N   UNL     1       5.130  25.968  54.233  1.00  0.00    -0.322 N 
HETATM    6  C   UNL     1       4.831  26.760  53.156  1.00  0.00     0.253 A 
HETATM    7  O   UNL     1       3.938  27.601  53.214  1.00  0.00    -0.268 OA
HETATM    8  C   UNL     1       5.636  26.555  51.916  1.00  0.00     0.024 A 
HETATM    9  C   UNL     1       6.612  25.629  51.895  1.00  0.00     0.027 A 
HETATM   10  C   UNL     1       6.391  24.248  55.373  1.00  0.00     0.033 A 
HETATM   11  C   UNL     1       7.410  23.293  55.352  1.00  0.00     0.039 A 
HETATM   12  H   UNL     1       4.575  26.123  55.064  1.00  0.00     0.169 HD
ENDROOT
BRANCH   8  13
HETATM   13  C   UNL     1       5.264  27.379  50.719  1.00  0.00     0.136 C 
BRANCH  13  14
HETATM   14  N   UNL     1       5.022  26.480  49.595  1.00  0.00    -0.289 NA
HETATM   15  H   UNL     1       5.875  26.362  49.047  1.00  0.00     0.128 HD
BRANCH  14  16
HETATM   16  C   UNL     1       3.931  26.720  48.749  1.00  0.00     0.008 A 
HETATM   17  C   UNL     1       3.693  25.826  47.696  1.00  0.00     0.026 A 
HETATM   18  C   UNL     1       2.575  25.961  46.865  1.00  0.00     0.038 A 
HETATM   19  C   UNL     1       1.642  26.972  47.089  1.00  0.00     0.068 A 
HETATM   20  C   UNL     1       1.842  27.844  48.155  1.00  0.00     0.038 A 
HETATM   21  C   UNL     1       2.968  27.707  48.981  1.00  0.00     0.026 A 
BRANCH  19  22
HETATM   22  O   UNL     1       0.592  26.991  46.215  1.00  0.00    -0.356 OA
HETATM   23  C   UNL     1      -0.307  28.088  46.319  1.00  0.00     0.210 C 
ENDBRANCH  19  22
ENDBRANCH  14  16
ENDBRANCH  13  14
ENDBRANCH   8  13
BRANCH   1  24
HETATM   24  O   UNL     1       9.146  22.129  54.326  1.00  0.00    -0.351 OA
BRANCH  24  25
HETATM   25  C   UNL     1       8.710  20.771  54.330  1.00  0.00     0.171 C 
HETATM   26  C   UNL     1       8.470  20.349  52.892  1.00  0.00     0.034 C 
ENDBRANCH  24  25
ENDBRANCH   1  24
TORSDOF 6
ENDMDL
MODEL 2
REMARK VINA RESULT:      -8.5      5.181      8.693
REMARK  6 active torsions:
REMARK  status: ('A' for Active; 'I' for Inactive)
REMARK    1  A    between atoms: C_2  and  O_3 
REMARK    2  A    between atoms: O_3  and  C_4 
REMARK    3  A    between atoms: C_11  and  C_12 
REMARK    4  A    between atoms: C_12  and  N_13 
REMARK    5  A    between atoms: N_13  and  C_14 
REMARK    6  A    between atoms: C_17  and  O_18 
ROOT
HETATM    1  C   UNL     1       7.634  22.061  54.377  1.00  0.00     0.069 A 
HETATM    2  C   UNL     1       7.397  23.112  55.267  1.00  0.00     0.050 A 
HETATM    3  C   UNL     1       7.411  24.434  54.808  1.00  0.00    -0.006 A 
HETATM    4  C   UNL     1       7.659  24.698  53.457  1.00  0.00     0.045 A 
HETATM    5  N   UNL     1       7.667  26.024  53.008  1.00  0.00    -0.322 N 
HETATM    6  C   UNL     1       7.436  27.103  53.821  1.00  0.00     0.253 A 
HETATM    7  O   UNL     1       7.438  28.247  53.375  1.00  0.00    -0.268 OA
HETATM    8  C   UNL     1       7.182  26.826  55.265  1.00  0.00     0.024 A 
HETATM    9  C   UNL     1       7.179  25.557  55.715  1.00  0.00     0.027 A 
HETATM   10  C   UNL     1       7.895  23.658  52.563  1.00  0.00     0.033 A 
HETATM   11  C   UNL     1       7.883  22.342  53.030  1.00  0.00     0.039 A 
HETATM   12  H   UNL     1       7.835  26.233  52.034  1.00  0.00     0.169 HD
ENDROOT
BRANCH   8  13
HETATM   13  C   UNL     1       6.993  28.012  56.163  1.00  0.00     0.136 C 
BRANCH  13  14
HETATM   14  N   UNL     1       8.248  28.755  56.221  1.00  0.00    -0.289 NA
HETATM   15  H   UNL     1       9.040  28.117  56.129  1.00  0.00     0.128 HD
BRANCH  14  16
HETATM   16  C   UNL     1       8.466  29.651  57.277  1.00  0.00     0.008 A 
HETATM   17  C   UNL     1       9.766  30.129  57.488  1.00  0.00     0.026 A 
HETATM   18  C   UNL     1      10.038  31.087  58.471  1.00  0.00     0.038 A 
HETATM   19  C   UNL     1       9.010  31.622  59.245  1.00  0.00     0.068 A 
HETATM   20  C   UNL     1       7.707  31.187  59.021  1.00  0.00     0.038 A 
HETATM   21  C   UNL     1       7.441  30.222  58.037  1.00  0.00     0.026 A 
BRANCH  19  22
HETATM   22  O   UNL     1       9.403  32.554  60.163  1.00  0.00    -0.356 OA
HETATM   23  C   UNL     1       9.683  32.083  61.475  1.00  0.00     0.210 C 
ENDBRANCH  19  22
ENDBRANCH  14  16
ENDBRANCH  13  14
ENDBRANCH   8  13
BRANCH   1  24
HETATM   24  O   UNL     1       7.652  20.729  54.693  1.00  0.00    -0.351 OA
BRANCH  24  25
HETATM   25  C   UNL     1       7.914  20.385  56.053  1.00  0.00     0.171 C 
HETATM   26  C   UNL     1       9.417  20.277  56.229  1.00  0.00     0.034 C 
ENDBRANCH  24  25
ENDBRANCH   1  24
TORSDOF 6
ENDMDL
MODEL 3
REMARK VINA RESULT:      -8.5      5.041      8.365
REMARK  6 active torsions:
REMARK  status: ('A' for Active; 'I' for Inactive)
REMARK    1  A    between atoms: C_2  and  O_3 
REMARK    2  A    between atoms: O_3  and  C_4 
REMARK    3  A    between atoms: C_11  and  C_12 
REMARK    4  A    between atoms: C_12  and  N_13 
REMARK    5  A    between atoms: N_13  and  C_14 
REMARK    6  A    between atoms: C_17  and  O_18 
ROOT
HETATM    1  C   UNL     1       9.017  30.130  58.898  1.00  0.00     0.069 A 
HETATM    2  C   UNL     1       7.874  29.442  58.484  1.00  0.00     0.050 A 
HETATM    3  C   UNL     1       7.751  29.025  57.154  1.00  0.00    -0.006 A 
HETATM    4  C   UNL     1       8.776  29.297  56.242  1.00  0.00     0.045 A 
HETATM    5  N   UNL     1       8.644  28.873  54.915  1.00  0.00    -0.322 N 
HETATM    6  C   UNL     1       7.556  28.188  54.441  1.00  0.00     0.253 A 
HETATM    7  O   UNL     1       7.496  27.824  53.270  1.00  0.00    -0.268 OA
HETATM    8  C   UNL     1       6.455  27.906  55.407  1.00  0.00     0.024 A 
HETATM    9  C   UNL     1       6.562  28.313  56.686  1.00  0.00     0.027 A 
HETATM   10  C   UNL     1       9.919  29.982  56.646  1.00  0.00     0.033 A 
HETATM   11  C   UNL     1      10.032  30.397  57.975  1.00  0.00     0.039 A 
HETATM   12  H   UNL     1       9.379  29.053  54.246  1.00  0.00     0.169 HD
ENDROOT
BRANCH   8  13
HETATM   13  C   UNL     1       5.238  27.212  54.870  1.00  0.00     0.136 C 
BRANCH  13  14
HETATM   14  N   UNL     1       5.147  25.892  55.487  1.00  0.00    -0.289 NA
HETATM   15  H   UNL     1       5.185  25.974  56.504  1.00  0.00     0.128 HD
BRANCH  14  16
HETATM   16  C   UNL     1       6.003  24.871  55.050  1.00  0.00     0.008 A 
HETATM   17  C   UNL     1       6.107  24.630  53.674  1.00  0.00     0.026 A 
HETATM   18  C   UNL     1       7.003  23.683  53.166  1.00  0.00     0.038 A 
HETATM   19  C   UNL     1       7.848  22.977  54.020  1.00  0.00     0.068 A 
HETATM   20  C   UNL     1       7.787  23.232  55.386  1.00  0.00     0.038 A 
HETATM   21  C   UNL     1       6.882  24.180  55.890  1.00  0.00     0.026 A 
BRANCH  19  22
HETATM   22  O   UNL     1       8.682  22.088  53.401  1.00  0.00    -0.356 OA
HETATM   23  C   UNL     1       8.125  20.830  53.043  1.00  0.00     0.210 C 
ENDBRANCH  19  22
ENDBRANCH  14  16
ENDBRANCH  13  14
ENDBRANCH   8  13
BRANCH   1  24
HETATM   24  O   UNL     1       9.261  30.594  60.163  1.00  0.00    -0.351 OA
BRANCH  24  25
HETATM   25  C   UNL     1       8.189  31.252  60.834  1.00  0.00     0.171 C 
HETATM   26  C   UNL     1       8.761  31.967  62.045  1.00  0.00     0.034 C 
ENDBRANCH  24  25
ENDBRANCH   1  24
TORSDOF 6
ENDMDL
MODEL 4
REMARK VINA RESULT:      -8.2      4.463      7.542
REMARK  6 active torsions:
REMARK  status: ('A' for Active; 'I' for Inactive)
REMARK    1  A    between atoms: C_2  and  O_3 
REMARK    2  A    between atoms: O_3  and  C_4 
REMARK    3  A    between atoms: C_11  and  C_12 
REMARK    4  A    between atoms: C_12  and  N_13 
REMARK    5  A    between atoms: N_13  and  C_14 
REMARK    6  A    between atoms: C_17  and  O_18 
ROOT
HETATM    1  C   UNL     1       8.646  22.370  54.779  1.00  0.00     0.069 A 
HETATM    2  C   UNL     1       8.001  23.299  55.599  1.00  0.00     0.050 A 
HETATM    3  C   UNL     1       7.108  24.223  55.044  1.00  0.00    -0.006 A 
HETATM    4  C   UNL     1       6.861  24.210  53.667  1.00  0.00     0.045 A 
HETATM    5  N   UNL     1       5.963  25.136  53.124  1.00  0.00    -0.322 N 
HETATM    6  C   UNL     1       5.290  26.069  53.868  1.00  0.00     0.253 A 
HETATM    7  O   UNL     1       4.500  26.849  53.343  1.00  0.00    -0.268 OA
HETATM    8  C   UNL     1       5.559  26.094  55.335  1.00  0.00     0.024 A 
HETATM    9  C   UNL     1       6.426  25.216  55.873  1.00  0.00     0.027 A 
HETATM   10  C   UNL     1       7.498  23.288  52.842  1.00  0.00     0.033 A 
HETATM   11  C   UNL     1       8.391  22.372  53.404  1.00  0.00     0.039 A 
HETATM   12  H   UNL     1       5.766  25.134  52.132  1.00  0.00     0.169 HD
ENDROOT
BRANCH   8  13
HETATM   13  C   UNL     1       4.870  27.158  56.136  1.00  0.00     0.136 C 
BRANCH  13  14
HETATM   14  N   UNL     1       5.397  28.457  55.732  1.00  0.00    -0.289 NA
HETATM   15  H   UNL     1       5.384  28.543  54.715  1.00  0.00     0.128 HD
BRANCH  14  16
HETATM   16  C   UNL     1       6.632  28.884  56.239  1.00  0.00     0.008 A 
HETATM   17  C   UNL     1       6.731  29.160  57.610  1.00  0.00     0.026 A 
HETATM   18  C   UNL     1       7.954  29.510  58.194  1.00  0.00     0.038 A 
HETATM   19  C   UNL     1       9.118  29.556  57.432  1.00  0.00     0.068 A 
HETATM   20  C   UNL     1       9.045  29.246  56.077  1.00  0.00     0.038 A 
HETATM   21  C   UNL     1       7.815  28.900  55.494  1.00  0.00     0.026 A 
BRANCH  19  22
HETATM   22  O   UNL     1      10.247  29.902  58.121  1.00  0.00    -0.356 OA
HETATM   23  C   UNL     1      11.439  30.052  57.362  1.00  0.00     0.210 C 
ENDBRANCH  19  22
ENDBRANCH  14  16
ENDBRANCH  13  14
ENDBRANCH   8  13
BRANCH   1  24
HETATM   24  O   UNL     1       9.540  21.420  55.191  1.00  0.00    -0.351 OA
BRANCH  24  25
HETATM   25  C   UNL     1       9.173  20.621  56.314  1.00  0.00     0.171 C 
HETATM   26  C   UNL     1       7.794  20.044  56.050  1.00  0.00     0.034 C 
ENDBRANCH  24  25
ENDBRANCH   1  24
TORSDOF 6
ENDMDL
MODEL 5
REMARK VINA RESULT:      -8.1      4.948      8.517
REMARK  6 active torsions:
REMARK  status: ('A' for Active; 'I' for Inactive)
REMARK    1  A    between atoms: C_2  and  O_3 
REMARK    2  A    between atoms: O_3  and  C_4 
REMARK    3  A    between atoms: C_11  and  C_12 
REMARK    4  A    between atoms: C_12  and  N_13 
REMARK    5  A    between atoms: N_13  and  C_14 
REMARK    6  A    between atoms: C_17  and  O_18 
ROOT
HETATM    1  C   UNL     1       8.617  30.421  58.718  1.00  0.00     0.069 A 
HETATM    2  C   UNL     1       8.889  29.512  57.692  1.00  0.00     0.050 A 
HETATM    3  C   UNL     1       7.914  29.233  56.727  1.00  0.00    -0.006 A 
HETATM    4  C   UNL     1       6.670  29.868  56.792  1.00  0.00     0.045 A 
HETATM    5  N   UNL     1       5.704  29.584  55.821  1.00  0.00    -0.322 N 
HETATM    6  C   UNL     1       5.903  28.711  54.783  1.00  0.00     0.253 A 
HETATM    7  O   UNL     1       5.027  28.508  53.947  1.00  0.00    -0.268 OA
HETATM    8  C   UNL     1       7.225  28.023  54.717  1.00  0.00     0.024 A 
HETATM    9  C   UNL     1       8.163  28.279  55.648  1.00  0.00     0.027 A 
HETATM   10  C   UNL     1       6.390  30.775  57.811  1.00  0.00     0.033 A 
HETATM   11  C   UNL     1       7.367  31.045  58.771  1.00  0.00     0.039 A 
HETATM   12  H   UNL     1       4.803  30.041  55.847  1.00  0.00     0.169 HD
ENDROOT
BRANCH   8  13
HETATM   13  C   UNL     1       7.417  27.021  53.617  1.00  0.00     0.136 C 
BRANCH  13  14
HETATM   14  N   UNL     1       6.519  25.895  53.854  1.00  0.00    -0.289 NA
HETATM   15  H   UNL     1       5.906  26.093  54.646  1.00  0.00     0.128 HD
BRANCH  14  16
HETATM   16  C   UNL     1       7.053  24.603  53.963  1.00  0.00     0.008 A 
HETATM   17  C   UNL     1       7.013  23.969  55.212  1.00  0.00     0.026 A 
HETATM   18  C   UNL     1       7.453  22.650  55.371  1.00  0.00     0.038 A 
HETATM   19  C   UNL     1       7.910  21.917  54.278  1.00  0.00     0.068 A 
HETATM   20  C   UNL     1       7.918  22.519  53.023  1.00  0.00     0.038 A 
HETATM   21  C   UNL     1       7.481  23.844  52.870  1.00  0.00     0.026 A 
BRANCH  19  22
HETATM   22  O   UNL     1       8.303  20.639  54.563  1.00  0.00    -0.356 OA
HETATM   23  C   UNL     1       8.301  20.260  55.934  1.00  0.00     0.210 C 
ENDBRANCH  19  22
ENDBRANCH  14  16
ENDBRANCH  13  14
ENDBRANCH   8  13
BRANCH   1  24
HETATM   24  O   UNL     1       9.476  30.780  59.721  1.00  0.00    -0.351 OA
BRANCH  24  25
HETATM   25  C   UNL     1       9.032  30.582  61.062  1.00  0.00     0.171 C 
HETATM   26  C   UNL     1       9.244  31.877  61.824  1.00  0.00     0.034 C 
ENDBRANCH  24  25
ENDBRANCH   1  24
TORSDOF 6
ENDMDL
MODEL 6
REMARK VINA RESULT:      -7.9     12.502     15.107
REMARK  6 active torsions:
REMARK  status: ('A' for Active; 'I' for Inactive)
REMARK    1  A    between atoms: C_2  and  O_3 
REMARK    2  A    between atoms: O_3  and  C_4 
REMARK    3  A    between atoms: C_11  and  C_12 
REMARK    4  A    between atoms: C_12  and  N_13 
REMARK    5  A    between atoms: N_13  and  C_14 
REMARK    6  A    between atoms: C_17  and  O_18 
ROOT
HETATM    1  C   UNL     1       8.463  32.485  60.382  1.00  0.00     0.069 A 
HETATM    2  C   UNL     1       7.165  32.997  60.453  1.00  0.00     0.050 A 
HETATM    3  C   UNL     1       6.501  33.055  61.684  1.00  0.00    -0.006 A 
HETATM    4  C   UNL     1       7.142  32.602  62.842  1.00  0.00     0.045 A 
HETATM    5  N   UNL     1       6.470  32.667  64.067  1.00  0.00    -0.322 N 
HETATM    6  C   UNL     1       5.201  33.164  64.213  1.00  0.00     0.253 A 
HETATM    7  O   UNL     1       4.661  33.214  65.314  1.00  0.00    -0.268 OA
HETATM    8  C   UNL     1       4.510  33.638  62.979  1.00  0.00     0.024 A 
HETATM    9  C   UNL     1       5.139  33.575  61.790  1.00  0.00     0.027 A 
HETATM   10  C   UNL     1       8.435  32.090  62.781  1.00  0.00     0.033 A 
HETATM   11  C   UNL     1       9.089  32.033  61.548  1.00  0.00     0.039 A 
HETATM   12  H   UNL     1       6.922  32.353  64.915  1.00  0.00     0.169 HD
ENDROOT
BRANCH   8  13
HETATM   13  C   UNL     1       3.098  34.122  63.132  1.00  0.00     0.136 C 
BRANCH  13  14
HETATM   14  N   UNL     1       3.103  35.304  63.988  1.00  0.00    -0.289 NA
HETATM   15  H   UNL     1       2.155  35.517  64.301  1.00  0.00     0.128 HD
BRANCH  14  16
HETATM   16  C   UNL     1       3.742  36.470  63.544  1.00  0.00     0.008 A 
HETATM   17  C   UNL     1       4.836  36.952  64.276  1.00  0.00     0.026 A 
HETATM   18  C   UNL     1       5.569  38.062  63.841  1.00  0.00     0.038 A 
HETATM   19  C   UNL     1       5.252  38.698  62.643  1.00  0.00     0.068 A 
HETATM   20  C   UNL     1       4.194  38.207  61.884  1.00  0.00     0.038 A 
HETATM   21  C   UNL     1       3.458  37.096  62.327  1.00  0.00     0.026 A 
BRANCH  19  22
HETATM   22  O   UNL     1       6.047  39.763  62.326  1.00  0.00    -0.356 OA
HETATM   23  C   UNL     1       7.218  39.485  61.570  1.00  0.00     0.210 C 
ENDBRANCH  19  22
ENDBRANCH  14  16
ENDBRANCH  13  14
ENDBRANCH   8  13
BRANCH   1  24
HETATM   24  O   UNL     1       9.220  32.370  59.248  1.00  0.00    -0.351 OA
BRANCH  24  25
HETATM   25  C   UNL     1       9.168  31.125  58.553  1.00  0.00     0.171 C 
HETATM   26  C   UNL     1      10.481  30.944  57.814  1.00  0.00     0.034 C 
ENDBRANCH  24  25
ENDBRANCH   1  24
TORSDOF 6
ENDMDL
MODEL 7
REMARK VINA RESULT:      -7.8      8.078     11.666
REMARK  6 active torsions:
REMARK  status: ('A' for Active; 'I' for Inactive)
REMARK    1  A    between atoms: C_2  and  O_3 
REMARK    2  A    between atoms: O_3  and  C_4 
REMARK    3  A    between atoms: C_11  and  C_12 
REMARK    4  A    between atoms: C_12  and  N_13 
REMARK    5  A    between atoms: N_13  and  C_14 
REMARK    6  A    between atoms: C_17  and  O_18 
ROOT
HETATM    1  C   UNL     1       6.118  27.753  55.008  1.00  0.00     0.069 A 
HETATM    2  C   UNL     1       6.291  28.292  56.285  1.00  0.00     0.050 A 
HETATM    3  C   UNL     1       7.504  28.899  56.631  1.00  0.00    -0.006 A 
HETATM    4  C   UNL     1       8.540  28.965  55.693  1.00  0.00     0.045 A 
HETATM    5  N   UNL     1       9.748  29.576  56.049  1.00  0.00    -0.322 N 
HETATM    6  C   UNL     1       9.985  30.133  57.278  1.00  0.00     0.253 A 
HETATM    7  O   UNL     1      11.058  30.672  57.535  1.00  0.00    -0.268 OA
HETATM    8  C   UNL     1       8.887  30.054  58.285  1.00  0.00     0.024 A 
HETATM    9  C   UNL     1       7.721  29.463  57.962  1.00  0.00     0.027 A 
HETATM   10  C   UNL     1       8.377  28.431  54.418  1.00  0.00     0.033 A 
HETATM   11  C   UNL     1       7.164  27.824  54.083  1.00  0.00     0.039 A 
HETATM   12  H   UNL     1      10.503  29.642  55.380  1.00  0.00     0.169 HD
ENDROOT
BRANCH   8  13
HETATM   13  C   UNL     1       9.172  30.607  59.649  1.00  0.00     0.136 C 
BRANCH  13  14
HETATM   14  N   UNL     1       7.952  30.527  60.447  1.00  0.00    -0.289 NA
HETATM   15  H   UNL     1       7.143  30.388  59.840  1.00  0.00     0.128 HD
BRANCH  14  16
HETATM   16  C   UNL     1       7.685  31.527  61.392  1.00  0.00     0.008 A 
HETATM   17  C   UNL     1       6.636  32.421  61.139  1.00  0.00     0.026 A 
HETATM   18  C   UNL     1       6.264  33.390  62.078  1.00  0.00     0.038 A 
HETATM   19  C   UNL     1       6.905  33.465  63.312  1.00  0.00     0.068 A 
HETATM   20  C   UNL     1       7.921  32.558  63.597  1.00  0.00     0.038 A 
HETATM   21  C   UNL     1       8.295  31.592  62.649  1.00  0.00     0.026 A 
BRANCH  19  22
HETATM   22  O   UNL     1       6.443  34.447  64.144  1.00  0.00    -0.356 OA
HETATM   23  C   UNL     1       6.186  34.076  65.492  1.00  0.00     0.210 C 
ENDBRANCH  19  22
ENDBRANCH  14  16
ENDBRANCH  13  14
ENDBRANCH   8  13
BRANCH   1  24
HETATM   24  O   UNL     1       4.989  27.133  54.544  1.00  0.00    -0.351 OA
BRANCH  24  25
HETATM   25  C   UNL     1       5.046  26.567  53.236  1.00  0.00     0.171 C 
HETATM   26  C   UNL     1       4.885  25.064  53.365  1.00  0.00     0.034 C 
ENDBRANCH  24  25
ENDBRANCH   1  24
TORSDOF 6
ENDMDL
MODEL 8
REMARK VINA RESULT:      -7.6      6.942     10.331
REMARK  6 active torsions:
REMARK  status: ('A' for Active; 'I' for Inactive)
REMARK    1  A    between atoms: C_2  and  O_3 
REMARK    2  A    between atoms: O_3  and  C_4 
REMARK    3  A    between atoms: C_11  and  C_12 
REMARK    4  A    between atoms: C_12  and  N_13 
REMARK    5  A    between atoms: N_13  and  C_14 
REMARK    6  A    between atoms: C_17  and  O_18 
ROOT
HETATM    1  C   UNL     1       7.383  32.525  61.275  1.00  0.00     0.069 A 
HETATM    2  C   UNL     1       8.128  31.490  60.704  1.00  0.00     0.050 A 
HETATM    3  C   UNL     1       7.701  30.895  59.511  1.00  0.00    -0.006 A 
HETATM    4  C   UNL     1       6.528  31.343  58.892  1.00  0.00     0.045 A 
HETATM    5  N   UNL     1       6.113  30.743  57.698  1.00  0.00    -0.322 N 
HETATM    6  C   UNL     1       6.796  29.730  57.078  1.00  0.00     0.253 A 
HETATM    7  O   UNL     1       6.397  29.249  56.021  1.00  0.00    -0.268 OA
HETATM    8  C   UNL     1       8.041  29.243  57.740  1.00  0.00     0.024 A 
HETATM    9  C   UNL     1       8.451  29.803  58.893  1.00  0.00     0.027 A 
HETATM   10  C   UNL     1       5.780  32.373  59.454  1.00  0.00     0.033 A 
HETATM   11  C   UNL     1       6.211  32.958  60.646  1.00  0.00     0.039 A 
HETATM   12  H   UNL     1       5.274  31.060  57.232  1.00  0.00     0.169 HD
ENDROOT
BRANCH   8  13
HETATM   13  C   UNL     1       8.752  28.092  57.092  1.00  0.00     0.136 C 
BRANCH  13  14
HETATM   14  N   UNL     1       8.181  26.849  57.601  1.00  0.00    -0.289 NA
HETATM   15  H   UNL     1       8.637  26.582  58.475  1.00  0.00     0.128 HD
BRANCH  14  16
HETATM   16  C   UNL     1       8.082  25.741  56.748  1.00  0.00     0.008 A 
HETATM   17  C   UNL     1       8.593  24.512  57.188  1.00  0.00     0.026 A 
HETATM   18  C   UNL     1       8.452  23.350  56.421  1.00  0.00     0.038 A 
HETATM   19  C   UNL     1       7.763  23.377  55.211  1.00  0.00     0.068 A 
HETATM   20  C   UNL     1       7.215  24.580  54.778  1.00  0.00     0.038 A 
HETATM   21  C   UNL     1       7.363  25.744  55.549  1.00  0.00     0.026 A 
BRANCH  19  22
HETATM   22  O   UNL     1       7.689  22.176  54.562  1.00  0.00    -0.356 OA
HETATM   23  C   UNL     1       7.802  22.205  53.145  1.00  0.00     0.210 C 
ENDBRANCH  19  22
ENDBRANCH  14  16
ENDBRANCH  13  14
ENDBRANCH   8  13
BRANCH   1  24
HETATM   24  O   UNL     1       7.684  33.186  62.434  1.00  0.00    -0.351 OA
BRANCH  24  25
HETATM   25  C   UNL     1       6.641  33.326  63.397  1.00  0.00     0.171 C 
HETATM   26  C   UNL     1       7.277  33.389  64.774  1.00  0.00     0.034 C 
ENDBRANCH  24  25
ENDBRANCH   1  24
TORSDOF 6
ENDMDL
MODEL 9
REMARK VINA RESULT:      -7.5      2.381      8.671
REMARK  6 active torsions:
REMARK  status: ('A' for Active; 'I' for Inactive)
REMARK    1  A    between atoms: C_2  and  O_3 
REMARK    2  A    between atoms: O_3  and  C_4 
REMARK    3  A    between atoms: C_11  and  C_12 
REMARK    4  A    between atoms: C_12  and  N_13 
REMARK    5  A    between atoms: N_13  and  C_14 
REMARK    6  A    between atoms: C_17  and  O_18 
ROOT
HETATM    1  C   UNL     1       4.978  29.751  48.605  1.00  0.00     0.069 A 
HETATM    2  C   UNL     1       5.456  29.546  49.901  1.00  0.00     0.050 A 
HETATM    3  C   UNL     1       5.295  28.301  50.519  1.00  0.00    -0.006 A 
HETATM    4  C   UNL     1       4.657  27.262  49.833  1.00  0.00     0.045 A 
HETATM    5  N   UNL     1       4.504  26.020  50.459  1.00  0.00    -0.322 N 
HETATM    6  C   UNL     1       4.954  25.745  51.723  1.00  0.00     0.253 A 
HETATM    7  O   UNL     1       4.809  24.632  52.221  1.00  0.00    -0.268 OA
HETATM    8  C   UNL     1       5.626  26.853  52.463  1.00  0.00     0.024 A 
HETATM    9  C   UNL     1       5.774  28.057  51.878  1.00  0.00     0.027 A 
HETATM   10  C   UNL     1       4.177  27.457  48.541  1.00  0.00     0.033 A 
HETATM   11  C   UNL     1       4.339  28.704  47.933  1.00  0.00     0.039 A 
HETATM   12  H   UNL     1       4.054  25.256  49.974  1.00  0.00     0.169 HD
ENDROOT
BRANCH   8  13
HETATM   13  C   UNL     1       6.061  26.568  53.869  1.00  0.00     0.136 C 
BRANCH  13  14
HETATM   14  N   UNL     1       7.423  26.046  53.836  1.00  0.00    -0.289 NA
HETATM   15  H   UNL     1       7.909  26.379  53.002  1.00  0.00     0.128 HD
BRANCH  14  16
HETATM   16  C   UNL     1       7.634  24.670  54.005  1.00  0.00     0.008 A 
HETATM   17  C   UNL     1       7.322  24.094  55.243  1.00  0.00     0.026 A 
HETATM   18  C   UNL     1       7.431  22.715  55.451  1.00  0.00     0.038 A 
HETATM   19  C   UNL     1       7.819  21.868  54.415  1.00  0.00     0.068 A 
HETATM   20  C   UNL     1       8.094  22.420  53.167  1.00  0.00     0.038 A 
HETATM   21  C   UNL     1       7.988  23.805  52.965  1.00  0.00     0.026 A 
BRANCH  19  22
HETATM   22  O   UNL     1       7.878  20.543  54.743  1.00  0.00    -0.356 OA
HETATM   23  C   UNL     1       8.692  20.195  55.855  1.00  0.00     0.210 C 
ENDBRANCH  19  22
ENDBRANCH  14  16
ENDBRANCH  13  14
ENDBRANCH   8  13
BRANCH   1  24
HETATM   24  O   UNL     1       5.066  30.915  47.890  1.00  0.00    -0.351 OA
BRANCH  24  25
HETATM   25  C   UNL     1       4.628  32.111  48.534  1.00  0.00     0.171 C 
HETATM   26  C   UNL     1       3.111  32.107  48.548  1.00  0.00     0.034 C 
ENDBRANCH  24  25
ENDBRANCH   1  24
TORSDOF 6
ENDMDL
MODEL 10
REMARK VINA RESULT:      -7.5      4.882      9.341
REMARK  6 active torsions:
REMARK  status: ('A' for Active; 'I' for Inactive)
REMARK    1  A    between atoms: C_2  and  O_3 
REMARK    2  A    between atoms: O_3  and  C_4 
REMARK    3  A    between atoms: C_11  and  C_12 
REMARK    4  A    between atoms: C_12  and  N_13 
REMARK    5  A    between atoms: N_13  and  C_14 
REMARK    6  A    between atoms: C_17  and  O_18 
ROOT
HETATM    1  C   UNL     1       5.235  27.229  50.922  1.00  0.00     0.069 A 
HETATM    2  C   UNL     1       5.723  27.733  52.130  1.00  0.00     0.050 A 
HETATM    3  C   UNL     1       5.917  26.875  53.219  1.00  0.00    -0.006 A 
HETATM    4  C   UNL     1       5.623  25.513  53.093  1.00  0.00     0.045 A 
HETATM    5  N   UNL     1       5.824  24.665  54.187  1.00  0.00    -0.322 N 
HETATM    6  C   UNL     1       6.306  25.087  55.398  1.00  0.00     0.253 A 
HETATM    7  O   UNL     1       6.479  24.298  56.323  1.00  0.00    -0.268 OA
HETATM    8  C   UNL     1       6.610  26.541  55.541  1.00  0.00     0.024 A 
HETATM    9  C   UNL     1       6.416  27.372  54.501  1.00  0.00     0.027 A 
HETATM   10  C   UNL     1       5.136  25.003  51.893  1.00  0.00     0.033 A 
HETATM   11  C   UNL     1       4.943  25.866  50.812  1.00  0.00     0.039 A 
HETATM   12  H   UNL     1       5.625  23.677  54.110  1.00  0.00     0.169 HD
ENDROOT
BRANCH   8  13
HETATM   13  C   UNL     1       7.077  27.010  56.887  1.00  0.00     0.136 C 
BRANCH  13  14
HETATM   14  N   UNL     1       8.472  27.425  56.774  1.00  0.00    -0.289 NA
HETATM   15  H   UNL     1       9.089  26.686  57.114  1.00  0.00     0.128 HD
BRANCH  14  16
HETATM   16  C   UNL     1       8.863  28.664  57.301  1.00  0.00     0.008 A 
HETATM   17  C   UNL     1       8.077  29.239  58.308  1.00  0.00     0.026 A 
HETATM   18  C   UNL     1       8.455  30.432  58.933  1.00  0.00     0.038 A 
HETATM   19  C   UNL     1       9.650  31.064  58.595  1.00  0.00     0.068 A 
HETATM   20  C   UNL     1      10.463  30.485  57.625  1.00  0.00     0.038 A 
HETATM   21  C   UNL     1      10.076  29.290  56.997  1.00  0.00     0.026 A 
BRANCH  19  22
HETATM   22  O   UNL     1       9.910  32.216  59.283  1.00  0.00    -0.356 OA
HETATM   23  C   UNL     1       9.548  32.236  60.657  1.00  0.00     0.210 C 
ENDBRANCH  19  22
ENDBRANCH  14  16
ENDBRANCH  13  14
ENDBRANCH   8  13
BRANCH   1  24
HETATM   24  O   UNL     1       4.998  27.955  49.786  1.00  0.00    -0.351 OA
BRANCH  24  25
HETATM   25  C   UNL     1       4.803  27.227  48.575  1.00  0.00     0.171 C 
HETATM   26  C   UNL     1       5.278  28.094  47.424  1.00  0.00     0.034 C 
ENDBRANCH  24  25
ENDBRANCH   1  24
TORSDOF 6
ENDMDL
