MODEL 1
REMARK VINA RESULT:      -9.2      0.000      0.000
REMARK  5 active torsions:
REMARK  status: ('A' for Active; 'I' for Inactive)
REMARK    1  A    between atoms: O_2  and  C_3 
REMARK    2  A    between atoms: C_4  and  N_5 
REMARK       I    between atoms: N_5  and  C_6 
REMARK    3  A    between atoms: C_6  and  C_7 
REMARK    4  A    between atoms: C_7  and  N_8 
REMARK    5  A    between atoms: N_8  and  C_9 
ROOT
HETATM    1  C   UNL     1       7.664  26.270  57.091  1.00  0.00     0.195 C 
ENDROOT
BRANCH   1   2
HETATM    2  C   UNL     1       6.643  27.415  57.132  1.00  0.00     0.235 C 
HETATM    3  N   UNL     1       7.027  28.708  56.929  1.00  0.00    -0.324 N 
HETATM    4  H   UNL     1       6.290  29.279  56.527  1.00  0.00     0.169 HD
HETATM    5  O   UNL     1       5.432  27.160  57.147  1.00  0.00    -0.272 OA
BRANCH   3   6
HETATM    6  C   UNL     1       8.277  29.340  57.016  1.00  0.00     0.068 A 
HETATM    7  C   UNL     1       8.556  30.068  58.186  1.00  0.00     0.095 A 
HETATM    8  C   UNL     1       9.812  30.644  58.385  1.00  0.00     0.039 A 
HETATM    9  C   UNL     1      10.797  30.506  57.408  1.00  0.00     0.003 A 
HETATM   10  C   UNL     1      10.529  29.780  56.248  1.00  0.00     0.002 A 
HETATM   11  C   UNL     1       9.276  29.190  56.053  1.00  0.00     0.032 A 
BRANCH   7  12
HETATM   12  O   UNL     1       7.558  30.169  59.128  1.00  0.00    -0.354 OA
HETATM   13  C   UNL     1       7.335  31.524  59.524  1.00  0.00     0.210 C 
ENDBRANCH   7  12
ENDBRANCH   3   6
ENDBRANCH   1   2
BRANCH   1  14
HETATM   14  N   UNL     1       7.041  25.142  56.389  1.00  0.00    -0.283 NA
HETATM   15  H   UNL     1       7.065  24.298  56.965  1.00  0.00     0.128 HD
BRANCH  14  16
HETATM   16  C   UNL     1       7.354  24.819  55.058  1.00  0.00     0.019 A 
HETATM   17  C   UNL     1       7.577  23.450  54.708  1.00  0.00    -0.005 A 
HETATM   18  C   UNL     1       7.907  23.115  53.370  1.00  0.00    -0.024 A 
HETATM   19  C   UNL     1       7.475  22.384  55.635  1.00  0.00     0.014 A 
HETATM   20  C   UNL     1       8.148  21.776  53.016  1.00  0.00     0.012 A 
HETATM   21  C   UNL     1       7.978  24.123  52.400  1.00  0.00     0.012 A 
HETATM   22  C   UNL     1       8.051  20.753  53.958  1.00  0.00     0.001 A 
HETATM   23  C   UNL     1       7.709  21.057  55.268  1.00  0.00     0.001 A 
HETATM   24  C   UNL     1       7.706  25.445  52.732  1.00  0.00     0.003 A 
HETATM   25  C   UNL     1       7.383  25.786  54.043  1.00  0.00     0.024 A 
ENDBRANCH  14  16
ENDBRANCH   1  14
TORSDOF 5
ENDMDL
MODEL 2
REMARK VINA RESULT:      -8.8      2.955      3.951
REMARK  5 active torsions:
REMARK  status: ('A' for Active; 'I' for Inactive)
REMARK    1  A    between atoms: O_2  and  C_3 
REMARK    2  A    between atoms: C_4  and  N_5 
REMARK       I    between atoms: N_5  and  C_6 
REMARK    3  A    between atoms: C_6  and  C_7 
REMARK    4  A    between atoms: C_7  and  N_8 
REMARK    5  A    between atoms: N_8  and  C_9 
ROOT
HETATM    1  C   UNL     1       6.768  26.560  56.578  1.00  0.00     0.195 C 
ENDROOT
BRANCH   1   2
HETATM    2  C   UNL     1       5.284  26.292  56.864  1.00  0.00     0.235 C 
HETATM    3  N   UNL     1       4.312  27.103  56.356  1.00  0.00    -0.324 N 
HETATM    4  H   UNL     1       3.434  26.617  56.203  1.00  0.00     0.169 HD
HETATM    5  O   UNL     1       4.941  25.223  57.386  1.00  0.00    -0.272 OA
BRANCH   3   6
HETATM    6  C   UNL     1       4.350  28.416  55.861  1.00  0.00     0.068 A 
HETATM    7  C   UNL     1       4.331  28.583  54.465  1.00  0.00     0.095 A 
HETATM    8  C   UNL     1       4.271  29.859  53.900  1.00  0.00     0.039 A 
HETATM    9  C   UNL     1       4.243  30.979  54.730  1.00  0.00     0.003 A 
HETATM   10  C   UNL     1       4.256  30.820  56.115  1.00  0.00     0.002 A 
HETATM   11  C   UNL     1       4.301  29.543  56.682  1.00  0.00     0.032 A 
BRANCH   7  12
HETATM   12  O   UNL     1       4.349  27.449  53.686  1.00  0.00    -0.354 OA
HETATM   13  C   UNL     1       4.635  27.748  52.318  1.00  0.00     0.210 C 
ENDBRANCH   7  12
ENDBRANCH   3   6
ENDBRANCH   1   2
BRANCH   1  14
HETATM   14  N   UNL     1       7.395  25.277  56.236  1.00  0.00    -0.283 NA
HETATM   15  H   UNL     1       8.276  25.158  56.740  1.00  0.00     0.128 HD
BRANCH  14  16
HETATM   16  C   UNL     1       7.543  24.844  54.908  1.00  0.00     0.019 A 
HETATM   17  C   UNL     1       7.665  23.443  54.642  1.00  0.00    -0.005 A 
HETATM   18  C   UNL     1       7.828  22.997  53.306  1.00  0.00    -0.024 A 
HETATM   19  C   UNL     1       7.621  22.453  55.654  1.00  0.00     0.014 A 
HETATM   20  C   UNL     1       7.970  21.625  53.032  1.00  0.00     0.012 A 
HETATM   21  C   UNL     1       7.836  23.927  52.259  1.00  0.00     0.012 A 
HETATM   22  C   UNL     1       7.934  20.679  54.055  1.00  0.00     0.001 A 
HETATM   23  C   UNL     1       7.754  21.093  55.367  1.00  0.00     0.001 A 
HETATM   24  C   UNL     1       7.661  25.282  52.516  1.00  0.00     0.003 A 
HETATM   25  C   UNL     1       7.501  25.733  53.825  1.00  0.00     0.024 A 
ENDBRANCH  14  16
ENDBRANCH   1  14
TORSDOF 5
ENDMDL
MODEL 3
REMARK VINA RESULT:      -8.8      2.021      3.346
REMARK  5 active torsions:
REMARK  status: ('A' for Active; 'I' for Inactive)
REMARK    1  A    between atoms: O_2  and  C_3 
REMARK    2  A    between atoms: C_4  and  N_5 
REMARK       I    between atoms: N_5  and  C_6 
REMARK    3  A    between atoms: C_6  and  C_7 
REMARK    4  A    between atoms: C_7  and  N_8 
REMARK    5  A    between atoms: N_8  and  C_9 
ROOT
HETATM    1  C   UNL     1       7.463  26.243  53.013  1.00  0.00     0.195 C 
ENDROOT
BRANCH   1   2
HETATM    2  C   UNL     1       6.513  27.441  52.870  1.00  0.00     0.235 C 
HETATM    3  N   UNL     1       6.525  28.460  53.777  1.00  0.00    -0.324 N 
HETATM    4  H   UNL     1       6.242  29.348  53.374  1.00  0.00     0.169 HD
HETATM    5  O   UNL     1       5.871  27.596  51.823  1.00  0.00    -0.272 OA
BRANCH   3   6
HETATM    6  C   UNL     1       7.006  28.539  55.093  1.00  0.00     0.068 A 
HETATM    7  C   UNL     1       6.089  28.308  56.133  1.00  0.00     0.095 A 
HETATM    8  C   UNL     1       6.512  28.276  57.463  1.00  0.00     0.039 A 
HETATM    9  C   UNL     1       7.857  28.488  57.764  1.00  0.00     0.003 A 
HETATM   10  C   UNL     1       8.773  28.712  56.737  1.00  0.00     0.002 A 
HETATM   11  C   UNL     1       8.353  28.729  55.403  1.00  0.00     0.032 A 
BRANCH   7  12
HETATM   12  O   UNL     1       4.774  28.093  55.789  1.00  0.00    -0.354 OA
HETATM   13  C   UNL     1       3.942  29.196  56.152  1.00  0.00     0.210 C 
ENDBRANCH   7  12
ENDBRANCH   3   6
ENDBRANCH   1   2
BRANCH   1  14
HETATM   14  N   UNL     1       6.727  25.171  53.695  1.00  0.00    -0.283 NA
HETATM   15  H   UNL     1       5.791  25.484  53.959  1.00  0.00     0.128 HD
BRANCH  14  16
HETATM   16  C   UNL     1       7.291  24.421  54.740  1.00  0.00     0.019 A 
HETATM   17  C   UNL     1       7.690  23.069  54.490  1.00  0.00    -0.005 A 
HETATM   18  C   UNL     1       8.248  22.299  55.543  1.00  0.00    -0.024 A 
HETATM   19  C   UNL     1       7.569  22.444  53.225  1.00  0.00     0.014 A 
HETATM   20  C   UNL     1       8.626  20.964  55.317  1.00  0.00     0.012 A 
HETATM   21  C   UNL     1       8.432  22.878  56.805  1.00  0.00     0.012 A 
HETATM   22  C   UNL     1       8.481  20.377  54.061  1.00  0.00     0.001 A 
HETATM   23  C   UNL     1       7.957  21.119  53.013  1.00  0.00     0.001 A 
HETATM   24  C   UNL     1       8.095  24.208  57.029  1.00  0.00     0.003 A 
HETATM   25  C   UNL     1       7.545  24.974  56.003  1.00  0.00     0.024 A 
ENDBRANCH  14  16
ENDBRANCH   1  14
TORSDOF 5
ENDMDL
MODEL 4
REMARK VINA RESULT:      -8.8      4.321      7.107
REMARK  5 active torsions:
REMARK  status: ('A' for Active; 'I' for Inactive)
REMARK    1  A    between atoms: O_2  and  C_3 
REMARK    2  A    between atoms: C_4  and  N_5 
REMARK       I    between atoms: N_5  and  C_6 
REMARK    3  A    between atoms: C_6  and  C_7 
REMARK    4  A    between atoms: C_7  and  N_8 
REMARK    5  A    between atoms: N_8  and  C_9 
ROOT
HETATM    1  C   UNL     1       6.613  25.834  52.236  1.00  0.00     0.195 C 
ENDROOT
BRANCH   1   2
HETATM    2  C   UNL     1       5.105  25.582  52.085  1.00  0.00     0.235 C 
HETATM    3  N   UNL     1       4.441  25.948  50.951  1.00  0.00    -0.324 N 
HETATM    4  H   UNL     1       3.636  25.360  50.760  1.00  0.00     0.169 HD
HETATM    5  O   UNL     1       4.517  24.863  52.902  1.00  0.00    -0.272 OA
BRANCH   3   6
HETATM    6  C   UNL     1       4.755  26.862  49.933  1.00  0.00     0.068 A 
HETATM    7  C   UNL     1       4.354  26.539  48.625  1.00  0.00     0.095 A 
HETATM    8  C   UNL     1       4.546  27.440  47.577  1.00  0.00     0.039 A 
HETATM    9  C   UNL     1       5.155  28.669  47.828  1.00  0.00     0.003 A 
HETATM   10  C   UNL     1       5.551  28.999  49.124  1.00  0.00     0.002 A 
HETATM   11  C   UNL     1       5.345  28.103  50.177  1.00  0.00     0.032 A 
BRANCH   7  12
HETATM   12  O   UNL     1       3.747  25.320  48.427  1.00  0.00    -0.354 OA
HETATM   13  C   UNL     1       2.714  25.393  47.442  1.00  0.00     0.210 C 
ENDBRANCH   7  12
ENDBRANCH   3   6
ENDBRANCH   1   2
BRANCH   1  14
HETATM   14  N   UNL     1       7.252  24.546  52.532  1.00  0.00    -0.283 NA
HETATM   15  H   UNL     1       6.761  23.782  52.065  1.00  0.00     0.128 HD
BRANCH  14  16
HETATM   16  C   UNL     1       7.598  24.163  53.838  1.00  0.00     0.019 A 
HETATM   17  C   UNL     1       7.971  22.804  54.088  1.00  0.00    -0.005 A 
HETATM   18  C   UNL     1       8.310  22.403  55.406  1.00  0.00    -0.024 A 
HETATM   19  C   UNL     1       8.034  21.816  53.075  1.00  0.00     0.014 A 
HETATM   20  C   UNL     1       8.659  21.067  55.670  1.00  0.00     0.012 A 
HETATM   21  C   UNL     1       8.308  23.347  56.440  1.00  0.00     0.012 A 
HETATM   22  C   UNL     1       8.698  20.118  54.650  1.00  0.00     0.001 A 
HETATM   23  C   UNL     1       8.390  20.493  53.350  1.00  0.00     0.001 A 
HETATM   24  C   UNL     1       8.000  24.678  56.184  1.00  0.00     0.003 A 
HETATM   25  C   UNL     1       7.664  25.083  54.893  1.00  0.00     0.024 A 
ENDBRANCH  14  16
ENDBRANCH   1  14
TORSDOF 5
ENDMDL
MODEL 5
REMARK VINA RESULT:      -8.8      3.031      4.687
REMARK  5 active torsions:
REMARK  status: ('A' for Active; 'I' for Inactive)
REMARK    1  A    between atoms: O_2  and  C_3 
REMARK    2  A    between atoms: C_4  and  N_5 
REMARK       I    between atoms: N_5  and  C_6 
REMARK    3  A    between atoms: C_6  and  C_7 
REMARK    4  A    between atoms: C_7  and  N_8 
REMARK    5  A    between atoms: N_8  and  C_9 
ROOT
HETATM    1  C   UNL     1       7.465  26.517  55.443  1.00  0.00     0.195 C 
ENDROOT
BRANCH   1   2
HETATM    2  C   UNL     1       6.005  26.743  55.859  1.00  0.00     0.235 C 
HETATM    3  N   UNL     1       4.983  26.541  54.978  1.00  0.00    -0.324 N 
HETATM    4  H   UNL     1       4.118  26.267  55.435  1.00  0.00     0.169 HD
HETATM    5  O   UNL     1       5.724  26.915  57.052  1.00  0.00    -0.272 OA
BRANCH   3   6
HETATM    6  C   UNL     1       4.950  26.480  53.577  1.00  0.00     0.068 A 
HETATM    7  C   UNL     1       5.182  27.672  52.870  1.00  0.00     0.095 A 
HETATM    8  C   UNL     1       5.260  27.672  51.476  1.00  0.00     0.039 A 
HETATM    9  C   UNL     1       5.092  26.478  50.777  1.00  0.00     0.003 A 
HETATM   10  C   UNL     1       4.868  25.289  51.471  1.00  0.00     0.002 A 
HETATM   11  C   UNL     1       4.805  25.286  52.868  1.00  0.00     0.032 A 
BRANCH   7  12
HETATM   12  O   UNL     1       5.352  28.825  53.602  1.00  0.00    -0.354 OA
HETATM   13  C   UNL     1       4.259  29.730  53.431  1.00  0.00     0.210 C 
ENDBRANCH   7  12
ENDBRANCH   3   6
ENDBRANCH   1   2
BRANCH   1  14
HETATM   14  N   UNL     1       7.824  25.141  55.807  1.00  0.00    -0.283 NA
HETATM   15  H   UNL     1       8.638  25.129  56.424  1.00  0.00     0.128 HD
BRANCH  14  16
HETATM   16  C   UNL     1       7.935  24.116  54.853  1.00  0.00     0.019 A 
HETATM   17  C   UNL     1       8.090  22.764  55.299  1.00  0.00    -0.005 A 
HETATM   18  C   UNL     1       8.216  21.724  54.344  1.00  0.00    -0.024 A 
HETATM   19  C   UNL     1       8.114  22.395  56.666  1.00  0.00     0.014 A 
HETATM   20  C   UNL     1       8.389  20.395  54.767  1.00  0.00     0.012 A 
HETATM   21  C   UNL     1       8.156  22.024  52.977  1.00  0.00     0.012 A 
HETATM   22  C   UNL     1       8.421  20.068  56.121  1.00  0.00     0.001 A 
HETATM   23  C   UNL     1       8.278  21.068  57.072  1.00  0.00     0.001 A 
HETATM   24  C   UNL     1       7.949  23.331  52.548  1.00  0.00     0.003 A 
HETATM   25  C   UNL     1       7.825  24.362  53.478  1.00  0.00     0.024 A 
ENDBRANCH  14  16
ENDBRANCH   1  14
TORSDOF 5
ENDMDL
MODEL 6
REMARK VINA RESULT:      -8.7      4.186      6.367
REMARK  5 active torsions:
REMARK  status: ('A' for Active; 'I' for Inactive)
REMARK    1  A    between atoms: O_2  and  C_3 
REMARK    2  A    between atoms: C_4  and  N_5 
REMARK       I    between atoms: N_5  and  C_6 
REMARK    3  A    between atoms: C_6  and  C_7 
REMARK    4  A    between atoms: C_7  and  N_8 
REMARK    5  A    between atoms: N_8  and  C_9 
ROOT
HETATM    1  C   UNL     1       6.612  25.852  52.226  1.00  0.00     0.195 C 
ENDROOT
BRANCH   1   2
HETATM    2  C   UNL     1       5.280  26.551  52.536  1.00  0.00     0.235 C 
HETATM    3  N   UNL     1       4.443  26.944  51.535  1.00  0.00    -0.324 N 
HETATM    4  H   UNL     1       3.467  26.951  51.817  1.00  0.00     0.169 HD
HETATM    5  O   UNL     1       4.858  26.582  53.699  1.00  0.00    -0.272 OA
BRANCH   3   6
HETATM    6  C   UNL     1       4.659  27.176  50.168  1.00  0.00     0.068 A 
HETATM    7  C   UNL     1       5.309  28.369  49.807  1.00  0.00     0.095 A 
HETATM    8  C   UNL     1       5.643  28.626  48.476  1.00  0.00     0.039 A 
HETATM    9  C   UNL     1       5.317  27.693  47.492  1.00  0.00     0.003 A 
HETATM   10  C   UNL     1       4.677  26.505  47.843  1.00  0.00     0.002 A 
HETATM   11  C   UNL     1       4.355  26.241  49.178  1.00  0.00     0.032 A 
BRANCH   7  12
HETATM   12  O   UNL     1       5.621  29.255  50.813  1.00  0.00    -0.354 OA
HETATM   13  C   UNL     1       5.450  30.612  50.398  1.00  0.00     0.210 C 
ENDBRANCH   7  12
ENDBRANCH   3   6
ENDBRANCH   1   2
BRANCH   1  14
HETATM   14  N   UNL     1       6.533  24.486  52.759  1.00  0.00    -0.283 NA
HETATM   15  H   UNL     1       5.561  24.175  52.817  1.00  0.00     0.128 HD
BRANCH  14  16
HETATM   16  C   UNL     1       7.231  24.087  53.910  1.00  0.00     0.019 A 
HETATM   17  C   UNL     1       7.773  22.764  53.972  1.00  0.00    -0.005 A 
HETATM   18  C   UNL     1       8.469  22.348  55.136  1.00  0.00    -0.024 A 
HETATM   19  C   UNL     1       7.665  21.830  52.914  1.00  0.00     0.014 A 
HETATM   20  C   UNL     1       8.989  21.045  55.219  1.00  0.00     0.012 A 
HETATM   21  C   UNL     1       8.645  23.244  56.198  1.00  0.00     0.012 A 
HETATM   22  C   UNL     1       8.852  20.146  54.162  1.00  0.00     0.001 A 
HETATM   23  C   UNL     1       8.194  20.540  53.007  1.00  0.00     0.001 A 
HETATM   24  C   UNL     1       8.166  24.546  56.112  1.00  0.00     0.003 A 
HETATM   25  C   UNL     1       7.480  24.966  54.974  1.00  0.00     0.024 A 
ENDBRANCH  14  16
ENDBRANCH   1  14
TORSDOF 5
ENDMDL
MODEL 7
REMARK VINA RESULT:      -8.7      1.834      3.023
REMARK  5 active torsions:
REMARK  status: ('A' for Active; 'I' for Inactive)
REMARK    1  A    between atoms: O_2  and  C_3 
REMARK    2  A    between atoms: C_4  and  N_5 
REMARK       I    between atoms: N_5  and  C_6 
REMARK    3  A    between atoms: C_6  and  C_7 
REMARK    4  A    between atoms: C_7  and  N_8 
REMARK    5  A    between atoms: N_8  and  C_9 
ROOT
HETATM    1  C   UNL     1       5.536  27.485  55.159  1.00  0.00     0.195 C 
ENDROOT
BRANCH   1   2
HETATM    2  C   UNL     1       6.640  28.294  54.464  1.00  0.00     0.235 C 
HETATM    3  N   UNL     1       7.498  29.074  55.183  1.00  0.00    -0.324 N 
HETATM    4  H   UNL     1       8.406  29.172  54.739  1.00  0.00     0.169 HD
HETATM    5  O   UNL     1       6.894  28.090  53.270  1.00  0.00    -0.272 OA
BRANCH   3   6
HETATM    6  C   UNL     1       7.415  29.617  56.474  1.00  0.00     0.068 A 
HETATM    7  C   UNL     1       8.533  29.468  57.314  1.00  0.00     0.095 A 
HETATM    8  C   UNL     1       8.561  30.062  58.577  1.00  0.00     0.039 A 
HETATM    9  C   UNL     1       7.462  30.800  59.015  1.00  0.00     0.003 A 
HETATM   10  C   UNL     1       6.352  30.957  58.186  1.00  0.00     0.002 A 
HETATM   11  C   UNL     1       6.329  30.375  56.915  1.00  0.00     0.032 A 
BRANCH   7  12
HETATM   12  O   UNL     1       9.597  28.740  56.835  1.00  0.00    -0.354 OA
HETATM   13  C   UNL     1      10.812  29.493  56.863  1.00  0.00     0.210 C 
ENDBRANCH   7  12
ENDBRANCH   3   6
ENDBRANCH   1   2
BRANCH   1  14
HETATM   14  N   UNL     1       5.812  26.062  54.925  1.00  0.00    -0.283 NA
HETATM   15  H   UNL     1       4.953  25.512  54.977  1.00  0.00     0.128 HD
BRANCH  14  16
HETATM   16  C   UNL     1       6.852  25.382  55.579  1.00  0.00     0.019 A 
HETATM   17  C   UNL     1       7.486  24.280  54.921  1.00  0.00    -0.005 A 
HETATM   18  C   UNL     1       8.528  23.579  55.578  1.00  0.00    -0.024 A 
HETATM   19  C   UNL     1       7.134  23.846  53.619  1.00  0.00     0.014 A 
HETATM   20  C   UNL     1       9.146  22.482  54.951  1.00  0.00     0.012 A 
HETATM   21  C   UNL     1       8.949  23.990  56.849  1.00  0.00     0.012 A 
HETATM   22  C   UNL     1       8.765  22.074  53.674  1.00  0.00     0.001 A 
HETATM   23  C   UNL     1       7.762  22.760  53.005  1.00  0.00     0.001 A 
HETATM   24  C   UNL     1       8.369  25.095  57.462  1.00  0.00     0.003 A 
HETATM   25  C   UNL     1       7.343  25.792  56.827  1.00  0.00     0.024 A 
ENDBRANCH  14  16
ENDBRANCH   1  14
TORSDOF 5
ENDMDL
MODEL 8
REMARK VINA RESULT:      -8.7      2.448      3.519
REMARK  5 active torsions:
REMARK  status: ('A' for Active; 'I' for Inactive)
REMARK    1  A    between atoms: O_2  and  C_3 
REMARK    2  A    between atoms: C_4  and  N_5 
REMARK       I    between atoms: N_5  and  C_6 
REMARK    3  A    between atoms: C_6  and  C_7 
REMARK    4  A    between atoms: C_7  and  N_8 
REMARK    5  A    between atoms: N_8  and  C_9 
ROOT
HETATM    1  C   UNL     1       6.811  25.725  56.886  1.00  0.00     0.195 C 
ENDROOT
BRANCH   1   2
HETATM    2  C   UNL     1       7.290  27.172  57.075  1.00  0.00     0.235 C 
HETATM    3  N   UNL     1       6.797  28.183  56.303  1.00  0.00    -0.324 N 
HETATM    4  H   UNL     1       6.802  29.080  56.779  1.00  0.00     0.169 HD
HETATM    5  O   UNL     1       7.974  27.470  58.063  1.00  0.00    -0.272 OA
BRANCH   3   6
HETATM    6  C   UNL     1       6.143  28.181  55.061  1.00  0.00     0.068 A 
HETATM    7  C   UNL     1       4.757  28.414  55.057  1.00  0.00     0.095 A 
HETATM    8  C   UNL     1       4.055  28.522  53.855  1.00  0.00     0.039 A 
HETATM    9  C   UNL     1       4.734  28.384  52.646  1.00  0.00     0.003 A 
HETATM   10  C   UNL     1       6.110  28.159  52.641  1.00  0.00     0.002 A 
HETATM   11  C   UNL     1       6.817  28.066  53.845  1.00  0.00     0.032 A 
BRANCH   7  12
HETATM   12  O   UNL     1       4.130  28.554  56.274  1.00  0.00    -0.354 OA
HETATM   13  C   UNL     1       3.682  29.894  56.491  1.00  0.00     0.210 C 
ENDBRANCH   7  12
ENDBRANCH   3   6
ENDBRANCH   1   2
BRANCH   1  14
HETATM   14  N   UNL     1       7.960  24.933  56.430  1.00  0.00    -0.283 NA
HETATM   15  H   UNL     1       8.817  25.488  56.455  1.00  0.00     0.128 HD
BRANCH  14  16
HETATM   16  C   UNL     1       7.923  24.166  55.253  1.00  0.00     0.019 A 
HETATM   17  C   UNL     1       8.136  22.753  55.337  1.00  0.00    -0.005 A 
HETATM   18  C   UNL     1       8.115  21.972  54.153  1.00  0.00    -0.024 A 
HETATM   19  C   UNL     1       8.361  22.072  56.558  1.00  0.00     0.014 A 
HETATM   20  C   UNL     1       8.342  20.586  54.218  1.00  0.00     0.012 A 
HETATM   21  C   UNL     1       7.854  22.585  52.921  1.00  0.00     0.012 A 
HETATM   22  C   UNL     1       8.573  19.950  55.436  1.00  0.00     0.001 A 
HETATM   23  C   UNL     1       8.577  20.693  56.608  1.00  0.00     0.001 A 
HETATM   24  C   UNL     1       7.592  23.949  52.851  1.00  0.00     0.003 A 
HETATM   25  C   UNL     1       7.612  24.726  54.007  1.00  0.00     0.024 A 
ENDBRANCH  14  16
ENDBRANCH   1  14
TORSDOF 5
ENDMDL
MODEL 9
REMARK VINA RESULT:      -8.3      2.381      3.846
REMARK  5 active torsions:
REMARK  status: ('A' for Active; 'I' for Inactive)
REMARK    1  A    between atoms: O_2  and  C_3 
REMARK    2  A    between atoms: C_4  and  N_5 
REMARK       I    between atoms: N_5  and  C_6 
REMARK    3  A    between atoms: C_6  and  C_7 
REMARK    4  A    between atoms: C_7  and  N_8 
REMARK    5  A    between atoms: N_8  and  C_9 
ROOT
HETATM    1  C   UNL     1       5.300  25.574  53.662  1.00  0.00     0.195 C 
ENDROOT
BRANCH   1   2
HETATM    2  C   UNL     1       5.969  26.785  52.996  1.00  0.00     0.235 C 
HETATM    3  N   UNL     1       6.222  27.925  53.700  1.00  0.00    -0.324 N 
HETATM    4  H   UNL     1       7.026  28.435  53.347  1.00  0.00     0.169 HD
HETATM    5  O   UNL     1       6.470  26.668  51.870  1.00  0.00    -0.272 OA
BRANCH   3   6
HETATM    6  C   UNL     1       5.690  28.424  54.899  1.00  0.00     0.068 A 
HETATM    7  C   UNL     1       6.581  28.635  55.966  1.00  0.00     0.095 A 
HETATM    8  C   UNL     1       6.143  29.218  57.156  1.00  0.00     0.039 A 
HETATM    9  C   UNL     1       4.804  29.583  57.293  1.00  0.00     0.003 A 
HETATM   10  C   UNL     1       3.916  29.383  56.236  1.00  0.00     0.002 A 
HETATM   11  C   UNL     1       4.357  28.813  55.038  1.00  0.00     0.032 A 
BRANCH   7  12
HETATM   12  O   UNL     1       7.894  28.268  55.782  1.00  0.00    -0.354 OA
HETATM   13  C   UNL     1       8.487  27.788  56.991  1.00  0.00     0.210 C 
ENDBRANCH   7  12
ENDBRANCH   3   6
ENDBRANCH   1   2
BRANCH   1  14
HETATM   14  N   UNL     1       6.196  24.423  53.496  1.00  0.00    -0.283 NA
HETATM   15  H   UNL     1       5.732  23.674  52.979  1.00  0.00     0.128 HD
BRANCH  14  16
HETATM   16  C   UNL     1       6.928  23.881  54.565  1.00  0.00     0.019 A 
HETATM   17  C   UNL     1       7.590  22.624  54.388  1.00  0.00    -0.005 A 
HETATM   18  C   UNL     1       8.321  22.062  55.466  1.00  0.00    -0.024 A 
HETATM   19  C   UNL     1       7.569  21.898  53.173  1.00  0.00     0.014 A 
HETATM   20  C   UNL     1       8.960  20.819  55.313  1.00  0.00     0.012 A 
HETATM   21  C   UNL     1       8.414  22.756  56.679  1.00  0.00     0.012 A 
HETATM   22  C   UNL     1       8.907  20.126  54.105  1.00  0.00     0.001 A 
HETATM   23  C   UNL     1       8.215  20.668  53.032  1.00  0.00     0.001 A 
HETATM   24  C   UNL     1       7.816  24.002  56.829  1.00  0.00     0.003 A 
HETATM   25  C   UNL     1       7.094  24.564  55.778  1.00  0.00     0.024 A 
ENDBRANCH  14  16
ENDBRANCH   1  14
TORSDOF 5
ENDMDL
MODEL 10
REMARK VINA RESULT:      -8.3      1.791      2.670
REMARK  5 active torsions:
REMARK  status: ('A' for Active; 'I' for Inactive)
REMARK    1  A    between atoms: O_2  and  C_3 
REMARK    2  A    between atoms: C_4  and  N_5 
REMARK       I    between atoms: N_5  and  C_6 
REMARK    3  A    between atoms: C_6  and  C_7 
REMARK    4  A    between atoms: C_7  and  N_8 
REMARK    5  A    between atoms: N_8  and  C_9 
ROOT
HETATM    1  C   UNL     1       6.360  26.817  55.161  1.00  0.00     0.195 C 
ENDROOT
BRANCH   1   2
HETATM    2  C   UNL     1       6.535  28.103  54.340  1.00  0.00     0.235 C 
HETATM    3  N   UNL     1       7.021  29.242  54.911  1.00  0.00    -0.324 N 
HETATM    4  H   UNL     1       7.514  29.834  54.251  1.00  0.00     0.169 HD
HETATM    5  O   UNL     1       6.431  28.065  53.107  1.00  0.00    -0.272 OA
BRANCH   3   6
HETATM    6  C   UNL     1       7.107  29.657  56.249  1.00  0.00     0.068 A 
HETATM    7  C   UNL     1       8.376  29.639  56.854  1.00  0.00     0.095 A 
HETATM    8  C   UNL     1       8.557  30.126  58.149  1.00  0.00     0.039 A 
HETATM    9  C   UNL     1       7.463  30.624  58.856  1.00  0.00     0.003 A 
HETATM   10  C   UNL     1       6.203  30.651  58.261  1.00  0.00     0.002 A 
HETATM   11  C   UNL     1       6.024  30.177  56.958  1.00  0.00     0.032 A 
BRANCH   7  12
HETATM   12  O   UNL     1       9.428  29.148  56.114  1.00  0.00    -0.354 OA
HETATM   13  C   UNL     1      10.690  29.551  56.651  1.00  0.00     0.210 C 
ENDBRANCH   7  12
ENDBRANCH   3   6
ENDBRANCH   1   2
BRANCH   1  14
HETATM   14  N   UNL     1       7.617  26.064  55.083  1.00  0.00    -0.283 NA
HETATM   15  H   UNL     1       8.393  26.678  54.826  1.00  0.00     0.128 HD
BRANCH  14  16
HETATM   16  C   UNL     1       7.722  24.848  54.388  1.00  0.00     0.019 A 
HETATM   17  C   UNL     1       7.948  23.642  55.125  1.00  0.00    -0.005 A 
HETATM   18  C   UNL     1       8.069  22.411  54.431  1.00  0.00    -0.024 A 
HETATM   19  C   UNL     1       8.050  23.602  56.537  1.00  0.00     0.014 A 
HETATM   20  C   UNL     1       8.311  21.222  55.141  1.00  0.00     0.012 A 
HETATM   21  C   UNL     1       7.934  22.383  53.038  1.00  0.00     0.012 A 
HETATM   22  C   UNL     1       8.418  21.222  56.531  1.00  0.00     0.001 A 
HETATM   23  C   UNL     1       8.282  22.412  57.230  1.00  0.00     0.001 A 
HETATM   24  C   UNL     1       7.659  23.547  52.330  1.00  0.00     0.003 A 
HETATM   25  C   UNL     1       7.539  24.763  53.000  1.00  0.00     0.024 A 
ENDBRANCH  14  16
ENDBRANCH   1  14
TORSDOF 5
ENDMDL
