MODEL 1
REMARK VINA RESULT:     -10.2      0.000      0.000
REMARK  3 active torsions:
REMARK  status: ('A' for Active; 'I' for Inactive)
REMARK    1  A    between atoms: C_8  and  C_9 
REMARK    2  A    between atoms: C_12  and  C_13 
REMARK    3  A    between atoms: C_24  and  N_25 
ROOT
HETATM    1  C   UNL     1       8.157  28.572  55.329  1.00  0.00     0.073 C 
HETATM    2  C   UNL     1       6.704  28.849  55.231  1.00  0.00     0.062 A 
HETATM    3  N   UNL     1       6.056  29.446  56.245  1.00  0.00    -0.177 NA
HETATM    4  N   UNL     1       4.776  29.524  55.824  1.00  0.00    -0.256 N 
HETATM    5  H   UNL     1       4.086  29.954  56.430  1.00  0.00     0.191 HD
HETATM    6  C   UNL     1       4.600  29.006  54.582  1.00  0.00     0.175 A 
HETATM    7  C   UNL     1       5.824  28.547  54.166  1.00  0.00     0.034 A 
HETATM    8  C   UNL     1       5.966  27.910  52.825  1.00  0.00     0.104 A 
HETATM    9  C   UNL     1       4.662  28.047  52.046  1.00  0.00     0.067 A 
HETATM   10  C   UNL     1       4.729  27.777  50.552  1.00  0.00     0.020 C 
HETATM   11  N   UNL     1       4.785  27.553  49.311  1.00  0.00    -0.096 N 
HETATM   12  C   UNL     1       3.514  28.543  52.584  1.00  0.00     0.139 A 
HETATM   13  O   UNL     1       3.448  28.975  53.923  1.00  0.00    -0.279 OA
ENDROOT
BRANCH   8  14
HETATM   14  C   UNL     1       6.364  26.466  53.099  1.00  0.00    -0.044 A 
HETATM   15  C   UNL     1       5.653  25.649  53.993  1.00  0.00     0.009 A 
HETATM   16  C   UNL     1       6.086  24.351  54.282  1.00  0.00     0.013 A 
HETATM   17  C   UNL     1       7.231  23.814  53.676  1.00  0.00    -0.026 A 
HETATM   18  C   UNL     1       7.913  24.618  52.748  1.00  0.00     0.013 A 
HETATM   19  C   UNL     1       7.489  25.922  52.462  1.00  0.00     0.009 A 
BRANCH  17  20
HETATM   20  C   UNL     1       7.713  22.463  54.024  1.00  0.00    -0.026 A 
HETATM   21  C   UNL     1       7.758  22.026  55.359  1.00  0.00     0.012 A 
HETATM   22  C   UNL     1       8.242  20.756  55.689  1.00  0.00     0.001 A 
HETATM   23  C   UNL     1       8.686  19.897  54.688  1.00  0.00     0.000 A 
HETATM   24  C   UNL     1       8.647  20.306  53.358  1.00  0.00     0.001 A 
HETATM   25  C   UNL     1       8.166  21.577  53.031  1.00  0.00     0.012 A 
ENDBRANCH  17  20
ENDBRANCH   8  14
BRANCH  12  26
HETATM   26  N   UNL     1       2.325  28.710  51.913  1.00  0.00    -0.282 NA
HETATM   27  H   UNL     1       2.268  29.532  51.316  1.00  0.00     0.126 HD
HETATM   28  H   UNL     1       2.026  27.859  51.444  1.00  0.00     0.126 HD
ENDBRANCH  12  26
TORSDOF 3
ENDMDL
MODEL 2
REMARK VINA RESULT:     -10.1      2.203      4.496
REMARK  3 active torsions:
REMARK  status: ('A' for Active; 'I' for Inactive)
REMARK    1  A    between atoms: C_8  and  C_9 
REMARK    2  A    between atoms: C_12  and  C_13 
REMARK    3  A    between atoms: C_24  and  N_25 
ROOT
HETATM    1  C   UNL     1       3.519  25.030  48.734  1.00  0.00     0.073 C 
HETATM    2  C   UNL     1       4.309  26.263  48.503  1.00  0.00     0.062 A 
HETATM    3  N   UNL     1       4.786  26.546  47.279  1.00  0.00    -0.177 NA
HETATM    4  N   UNL     1       5.451  27.709  47.440  1.00  0.00    -0.256 N 
HETATM    5  H   UNL     1       5.899  28.133  46.636  1.00  0.00     0.191 HD
HETATM    6  C   UNL     1       5.401  28.169  48.716  1.00  0.00     0.175 A 
HETATM    7  C   UNL     1       4.679  27.255  49.440  1.00  0.00     0.034 A 
HETATM    8  C   UNL     1       4.444  27.474  50.897  1.00  0.00     0.104 A 
HETATM    9  C   UNL     1       4.949  28.855  51.301  1.00  0.00     0.067 A 
HETATM   10  C   UNL     1       4.481  29.385  52.646  1.00  0.00     0.020 C 
HETATM   11  N   UNL     1       4.092  29.825  53.763  1.00  0.00    -0.096 N 
HETATM   12  C   UNL     1       5.645  29.675  50.466  1.00  0.00     0.139 A 
HETATM   13  O   UNL     1       5.951  29.300  49.143  1.00  0.00    -0.279 OA
ENDROOT
BRANCH   8  14
HETATM   14  C   UNL     1       5.163  26.332  51.602  1.00  0.00    -0.044 A 
HETATM   15  C   UNL     1       4.546  25.557  52.598  1.00  0.00     0.009 A 
HETATM   16  C   UNL     1       5.256  24.564  53.280  1.00  0.00     0.013 A 
HETATM   17  C   UNL     1       6.599  24.294  52.981  1.00  0.00    -0.026 A 
HETATM   18  C   UNL     1       7.199  25.039  51.952  1.00  0.00     0.013 A 
HETATM   19  C   UNL     1       6.495  26.041  51.273  1.00  0.00     0.009 A 
BRANCH  17  20
HETATM   20  C   UNL     1       7.359  23.282  53.740  1.00  0.00    -0.026 A 
HETATM   21  C   UNL     1       7.914  22.157  53.105  1.00  0.00     0.012 A 
HETATM   22  C   UNL     1       8.609  21.185  53.831  1.00  0.00     0.001 A 
HETATM   23  C   UNL     1       8.768  21.323  55.207  1.00  0.00     0.000 A 
HETATM   24  C   UNL     1       8.232  22.430  55.857  1.00  0.00     0.001 A 
HETATM   25  C   UNL     1       7.534  23.398  55.130  1.00  0.00     0.012 A 
ENDBRANCH  17  20
ENDBRANCH   8  14
BRANCH  12  26
HETATM   26  N   UNL     1       6.094  30.937  50.778  1.00  0.00    -0.282 NA
HETATM   27  H   UNL     1       5.620  31.394  51.554  1.00  0.00     0.126 HD
HETATM   28  H   UNL     1       7.107  30.976  50.854  1.00  0.00     0.126 HD
ENDBRANCH  12  26
TORSDOF 3
ENDMDL
MODEL 3
REMARK VINA RESULT:     -10.0      2.027      3.132
REMARK  3 active torsions:
REMARK  status: ('A' for Active; 'I' for Inactive)
REMARK    1  A    between atoms: C_8  and  C_9 
REMARK    2  A    between atoms: C_12  and  C_13 
REMARK    3  A    between atoms: C_24  and  N_25 
ROOT
HETATM    1  C   UNL     1       9.798  29.200  56.065  1.00  0.00     0.073 C 
HETATM    2  C   UNL     1       8.595  29.456  56.893  1.00  0.00     0.062 A 
HETATM    3  N   UNL     1       8.721  29.874  58.164  1.00  0.00    -0.177 NA
HETATM    4  N   UNL     1       7.451  29.988  58.605  1.00  0.00    -0.256 N 
HETATM    5  H   UNL     1       7.289  30.304  59.555  1.00  0.00     0.191 HD
HETATM    6  C   UNL     1       6.536  29.664  57.657  1.00  0.00     0.175 A 
HETATM    7  C   UNL     1       7.236  29.303  56.535  1.00  0.00     0.034 A 
HETATM    8  C   UNL     1       6.508  28.885  55.302  1.00  0.00     0.104 A 
HETATM    9  C   UNL     1       5.010  29.111  55.484  1.00  0.00     0.067 A 
HETATM   10  C   UNL     1       4.159  29.078  54.226  1.00  0.00     0.020 C 
HETATM   11  N   UNL     1       3.451  29.050  53.181  1.00  0.00    -0.096 N 
HETATM   12  C   UNL     1       4.445  29.492  56.663  1.00  0.00     0.139 A 
HETATM   13  O   UNL     1       5.218  29.710  57.820  1.00  0.00    -0.279 OA
ENDROOT
BRANCH   8  14
HETATM   14  C   UNL     1       6.881  27.425  55.083  1.00  0.00    -0.044 A 
HETATM   15  C   UNL     1       7.403  26.958  53.866  1.00  0.00     0.009 A 
HETATM   16  C   UNL     1       7.666  25.598  53.670  1.00  0.00     0.013 A 
HETATM   17  C   UNL     1       7.437  24.659  54.685  1.00  0.00    -0.026 A 
HETATM   18  C   UNL     1       6.959  25.136  55.917  1.00  0.00     0.013 A 
HETATM   19  C   UNL     1       6.685  26.496  56.115  1.00  0.00     0.009 A 
BRANCH  17  20
HETATM   20  C   UNL     1       7.666  23.219  54.455  1.00  0.00    -0.026 A 
HETATM   21  C   UNL     1       7.907  22.715  53.166  1.00  0.00     0.012 A 
HETATM   22  C   UNL     1       8.096  21.347  52.947  1.00  0.00     0.001 A 
HETATM   23  C   UNL     1       8.052  20.457  54.016  1.00  0.00     0.000 A 
HETATM   24  C   UNL     1       7.819  20.933  55.303  1.00  0.00     0.001 A 
HETATM   25  C   UNL     1       7.627  22.300  55.519  1.00  0.00     0.012 A 
ENDBRANCH  17  20
ENDBRANCH   8  14
BRANCH  12  26
HETATM   26  N   UNL     1       3.106  29.735  56.865  1.00  0.00    -0.282 NA
HETATM   27  H   UNL     1       2.875  30.657  57.226  1.00  0.00     0.126 HD
HETATM   28  H   UNL     1       2.543  29.471  56.060  1.00  0.00     0.126 HD
ENDBRANCH  12  26
TORSDOF 3
ENDMDL
MODEL 4
REMARK VINA RESULT:      -8.6      2.524      3.688
REMARK  3 active torsions:
REMARK  status: ('A' for Active; 'I' for Inactive)
REMARK    1  A    between atoms: C_8  and  C_9 
REMARK    2  A    between atoms: C_12  and  C_13 
REMARK    3  A    between atoms: C_24  and  N_25 
ROOT
HETATM    1  C   UNL     1       9.401  29.810  57.445  1.00  0.00     0.073 C 
HETATM    2  C   UNL     1       8.087  30.229  57.988  1.00  0.00     0.062 A 
HETATM    3  N   UNL     1       7.986  30.681  59.250  1.00  0.00    -0.177 NA
HETATM    4  N   UNL     1       6.673  30.951  59.404  1.00  0.00    -0.256 N 
HETATM    5  H   UNL     1       6.349  31.320  60.291  1.00  0.00     0.191 HD
HETATM    6  C   UNL     1       5.950  30.693  58.285  1.00  0.00     0.175 A 
HETATM    7  C   UNL     1       6.827  30.213  57.347  1.00  0.00     0.034 A 
HETATM    8  C   UNL     1       6.336  29.829  55.992  1.00  0.00     0.104 A 
HETATM    9  C   UNL     1       4.870  30.226  55.842  1.00  0.00     0.067 A 
HETATM   10  C   UNL     1       4.309  30.236  54.429  1.00  0.00     0.020 C 
HETATM   11  N   UNL     1       3.843  30.246  53.257  1.00  0.00    -0.096 N 
HETATM   12  C   UNL     1       4.114  30.712  56.864  1.00  0.00     0.139 A 
HETATM   13  O   UNL     1       4.643  30.889  58.158  1.00  0.00    -0.279 OA
ENDROOT
BRANCH   8  14
HETATM   14  C   UNL     1       6.575  28.330  55.881  1.00  0.00    -0.044 A 
HETATM   15  C   UNL     1       6.105  27.421  56.843  1.00  0.00     0.009 A 
HETATM   16  C   UNL     1       6.405  26.058  56.753  1.00  0.00     0.013 A 
HETATM   17  C   UNL     1       7.168  25.549  55.692  1.00  0.00    -0.026 A 
HETATM   18  C   UNL     1       7.598  26.454  54.708  1.00  0.00     0.013 A 
HETATM   19  C   UNL     1       7.308  27.821  54.798  1.00  0.00     0.009 A 
BRANCH  17  20
HETATM   20  C   UNL     1       7.527  24.119  55.631  1.00  0.00    -0.026 A 
HETATM   21  C   UNL     1       7.321  23.363  54.463  1.00  0.00     0.012 A 
HETATM   22  C   UNL     1       7.637  22.002  54.417  1.00  0.00     0.001 A 
HETATM   23  C   UNL     1       8.169  21.370  55.537  1.00  0.00     0.000 A 
HETATM   24  C   UNL     1       8.386  22.099  56.703  1.00  0.00     0.001 A 
HETATM   25  C   UNL     1       8.067  23.459  56.748  1.00  0.00     0.012 A 
ENDBRANCH  17  20
ENDBRANCH   8  14
BRANCH  12  26
HETATM   26  N   UNL     1       2.800  31.108  56.767  1.00  0.00    -0.282 NA
HETATM   27  H   UNL     1       2.643  32.000  56.304  1.00  0.00     0.126 HD
HETATM   28  H   UNL     1       2.201  30.366  56.415  1.00  0.00     0.126 HD
ENDBRANCH  12  26
TORSDOF 3
ENDMDL
MODEL 5
REMARK VINA RESULT:      -8.1      3.335      6.292
REMARK  3 active torsions:
REMARK  status: ('A' for Active; 'I' for Inactive)
REMARK    1  A    between atoms: C_8  and  C_9 
REMARK    2  A    between atoms: C_12  and  C_13 
REMARK    3  A    between atoms: C_24  and  N_25 
ROOT
HETATM    1  C   UNL     1       3.944  28.284  56.367  1.00  0.00     0.073 C 
HETATM    2  C   UNL     1       5.335  28.122  56.855  1.00  0.00     0.062 A 
HETATM    3  N   UNL     1       5.917  29.092  57.581  1.00  0.00    -0.177 NA
HETATM    4  N   UNL     1       7.156  28.621  57.835  1.00  0.00    -0.256 N 
HETATM    5  H   UNL     1       7.792  29.186  58.386  1.00  0.00     0.191 HD
HETATM    6  C   UNL     1       7.368  27.391  57.302  1.00  0.00     0.175 A 
HETATM    7  C   UNL     1       6.216  27.036  56.649  1.00  0.00     0.034 A 
HETATM    8  C   UNL     1       6.128  25.722  55.948  1.00  0.00     0.104 A 
HETATM    9  C   UNL     1       7.371  24.891  56.250  1.00  0.00     0.067 A 
HETATM   10  C   UNL     1       7.297  23.410  55.917  1.00  0.00     0.020 C 
HETATM   11  N   UNL     1       7.236  22.180  55.642  1.00  0.00    -0.096 N 
HETATM   12  C   UNL     1       8.448  25.369  56.933  1.00  0.00     0.139 A 
HETATM   13  O   UNL     1       8.490  26.690  57.420  1.00  0.00    -0.279 OA
ENDROOT
BRANCH   8  14
HETATM   14  C   UNL     1       5.963  26.057  54.472  1.00  0.00    -0.044 A 
HETATM   15  C   UNL     1       6.548  27.195  53.891  1.00  0.00     0.009 A 
HETATM   16  C   UNL     1       6.317  27.517  52.550  1.00  0.00     0.013 A 
HETATM   17  C   UNL     1       5.512  26.708  51.735  1.00  0.00    -0.026 A 
HETATM   18  C   UNL     1       4.967  25.547  52.308  1.00  0.00     0.013 A 
HETATM   19  C   UNL     1       5.187  25.225  53.653  1.00  0.00     0.009 A 
BRANCH  17  20
HETATM   20  C   UNL     1       5.228  27.082  50.336  1.00  0.00    -0.026 A 
HETATM   21  C   UNL     1       4.624  26.176  49.447  1.00  0.00     0.012 A 
HETATM   22  C   UNL     1       4.381  26.523  48.114  1.00  0.00     0.001 A 
HETATM   23  C   UNL     1       4.734  27.785  47.646  1.00  0.00     0.000 A 
HETATM   24  C   UNL     1       5.329  28.701  48.509  1.00  0.00     0.001 A 
HETATM   25  C   UNL     1       5.574  28.351  49.840  1.00  0.00     0.012 A 
ENDBRANCH  17  20
ENDBRANCH   8  14
BRANCH  12  26
HETATM   26  N   UNL     1       9.575  24.648  57.252  1.00  0.00    -0.282 NA
HETATM   27  H   UNL     1       9.537  24.137  58.131  1.00  0.00     0.126 HD
HETATM   28  H   UNL     1       9.898  24.078  56.475  1.00  0.00     0.126 HD
ENDBRANCH  12  26
TORSDOF 3
ENDMDL
MODEL 6
REMARK VINA RESULT:      -7.9      5.836      9.850
REMARK  3 active torsions:
REMARK  status: ('A' for Active; 'I' for Inactive)
REMARK    1  A    between atoms: C_8  and  C_9 
REMARK    2  A    between atoms: C_12  and  C_13 
REMARK    3  A    between atoms: C_24  and  N_25 
ROOT
HETATM    1  C   UNL     1       4.404  31.590  56.652  1.00  0.00     0.073 C 
HETATM    2  C   UNL     1       4.700  30.143  56.781  1.00  0.00     0.062 A 
HETATM    3  N   UNL     1       3.714  29.236  56.680  1.00  0.00    -0.177 NA
HETATM    4  N   UNL     1       4.331  28.050  56.858  1.00  0.00    -0.256 N 
HETATM    5  H   UNL     1       3.781  27.199  56.816  1.00  0.00     0.191 HD
HETATM    6  C   UNL     1       5.667  28.179  57.058  1.00  0.00     0.175 A 
HETATM    7  C   UNL     1       5.946  29.521  57.026  1.00  0.00     0.034 A 
HETATM    8  C   UNL     1       7.346  29.999  57.219  1.00  0.00     0.104 A 
HETATM    9  C   UNL     1       8.298  28.807  57.256  1.00  0.00     0.067 A 
HETATM   10  C   UNL     1       9.778  29.113  57.091  1.00  0.00     0.020 C 
HETATM   11  N   UNL     1      11.006  29.367  56.954  1.00  0.00    -0.096 N 
HETATM   12  C   UNL     1       7.881  27.512  57.265  1.00  0.00     0.139 A 
HETATM   13  O   UNL     1       6.514  27.172  57.238  1.00  0.00    -0.279 OA
ENDROOT
BRANCH   8  14
HETATM   14  C   UNL     1       7.327  30.804  58.511  1.00  0.00    -0.044 A 
HETATM   15  C   UNL     1       8.115  30.459  59.622  1.00  0.00     0.009 A 
HETATM   16  C   UNL     1       8.021  31.173  60.821  1.00  0.00     0.013 A 
HETATM   17  C   UNL     1       7.154  32.268  60.950  1.00  0.00    -0.026 A 
HETATM   18  C   UNL     1       6.402  32.638  59.823  1.00  0.00     0.013 A 
HETATM   19  C   UNL     1       6.486  31.920  58.623  1.00  0.00     0.009 A 
BRANCH  17  20
HETATM   20  C   UNL     1       7.019  32.984  62.233  1.00  0.00    -0.026 A 
HETATM   21  C   UNL     1       7.710  32.561  63.382  1.00  0.00     0.012 A 
HETATM   22  C   UNL     1       7.559  33.225  64.603  1.00  0.00     0.001 A 
HETATM   23  C   UNL     1       6.716  34.329  64.698  1.00  0.00     0.000 A 
HETATM   24  C   UNL     1       6.025  34.769  63.573  1.00  0.00     0.001 A 
HETATM   25  C   UNL     1       6.175  34.102  62.354  1.00  0.00     0.012 A 
ENDBRANCH  17  20
ENDBRANCH   8  14
BRANCH  12  26
HETATM   26  N   UNL     1       8.703  26.408  57.268  1.00  0.00    -0.282 NA
HETATM   27  H   UNL     1       9.651  26.565  56.935  1.00  0.00     0.126 HD
HETATM   28  H   UNL     1       8.670  25.909  58.153  1.00  0.00     0.126 HD
ENDBRANCH  12  26
TORSDOF 3
ENDMDL
MODEL 7
REMARK VINA RESULT:      -7.7      5.832      9.676
REMARK  3 active torsions:
REMARK  status: ('A' for Active; 'I' for Inactive)
REMARK    1  A    between atoms: C_8  and  C_9 
REMARK    2  A    between atoms: C_12  and  C_13 
REMARK    3  A    between atoms: C_24  and  N_25 
ROOT
HETATM    1  C   UNL     1       5.015  33.917  55.869  1.00  0.00     0.073 C 
HETATM    2  C   UNL     1       4.233  32.657  55.878  1.00  0.00     0.062 A 
HETATM    3  N   UNL     1       2.953  32.648  55.471  1.00  0.00    -0.177 NA
HETATM    4  N   UNL     1       2.562  31.366  55.624  1.00  0.00    -0.256 N 
HETATM    5  H   UNL     1       1.616  31.108  55.368  1.00  0.00     0.191 HD
HETATM    6  C   UNL     1       3.552  30.571  56.105  1.00  0.00     0.175 A 
HETATM    7  C   UNL     1       4.649  31.371  56.293  1.00  0.00     0.034 A 
HETATM    8  C   UNL     1       5.917  30.789  56.822  1.00  0.00     0.104 A 
HETATM    9  C   UNL     1       5.793  29.271  56.905  1.00  0.00     0.067 A 
HETATM   10  C   UNL     1       7.086  28.491  57.081  1.00  0.00     0.020 C 
HETATM   11  N   UNL     1       8.159  27.844  57.227  1.00  0.00    -0.096 N 
HETATM   12  C   UNL     1       4.633  28.597  56.671  1.00  0.00     0.139 A 
HETATM   13  O   UNL     1       3.443  29.266  56.328  1.00  0.00    -0.279 OA
ENDROOT
BRANCH   8  14
HETATM   14  C   UNL     1       6.140  31.457  58.172  1.00  0.00    -0.044 A 
HETATM   15  C   UNL     1       7.422  31.641  58.715  1.00  0.00     0.009 A 
HETATM   16  C   UNL     1       7.591  32.190  59.990  1.00  0.00     0.013 A 
HETATM   17  C   UNL     1       6.491  32.592  60.761  1.00  0.00    -0.026 A 
HETATM   18  C   UNL     1       5.214  32.448  60.196  1.00  0.00     0.013 A 
HETATM   19  C   UNL     1       5.038  31.891  58.923  1.00  0.00     0.009 A 
BRANCH  17  20
HETATM   20  C   UNL     1       6.672  33.120  62.127  1.00  0.00    -0.026 A 
HETATM   21  C   UNL     1       7.567  32.519  63.030  1.00  0.00     0.012 A 
HETATM   22  C   UNL     1       7.716  33.005  64.333  1.00  0.00     0.001 A 
HETATM   23  C   UNL     1       6.976  34.105  64.756  1.00  0.00     0.000 A 
HETATM   24  C   UNL     1       6.088  34.720  63.879  1.00  0.00     0.001 A 
HETATM   25  C   UNL     1       5.938  34.231  62.578  1.00  0.00     0.012 A 
ENDBRANCH  17  20
ENDBRANCH   8  14
BRANCH  12  26
HETATM   26  N   UNL     1       4.484  27.230  56.707  1.00  0.00    -0.282 NA
HETATM   27  H   UNL     1       4.955  26.716  55.966  1.00  0.00     0.126 HD
HETATM   28  H   UNL     1       4.664  26.848  57.632  1.00  0.00     0.126 HD
ENDBRANCH  12  26
TORSDOF 3
ENDMDL
MODEL 8
REMARK VINA RESULT:      -7.6      3.519      5.272
REMARK  3 active torsions:
REMARK  status: ('A' for Active; 'I' for Inactive)
REMARK    1  A    between atoms: C_8  and  C_9 
REMARK    2  A    between atoms: C_12  and  C_13 
REMARK    3  A    between atoms: C_24  and  N_25 
ROOT
HETATM    1  C   UNL     1       9.742  31.112  58.729  1.00  0.00     0.073 C 
HETATM    2  C   UNL     1       8.409  31.426  59.298  1.00  0.00     0.062 A 
HETATM    3  N   UNL     1       8.281  31.735  60.600  1.00  0.00    -0.177 NA
HETATM    4  N   UNL     1       6.959  31.943  60.766  1.00  0.00    -0.256 N 
HETATM    5  H   UNL     1       6.615  32.202  61.683  1.00  0.00     0.191 HD
HETATM    6  C   UNL     1       6.255  31.785  59.616  1.00  0.00     0.175 A 
HETATM    7  C   UNL     1       7.156  31.439  58.642  1.00  0.00     0.034 A 
HETATM    8  C   UNL     1       6.691  31.189  57.247  1.00  0.00     0.104 A 
HETATM    9  C   UNL     1       5.214  31.551  57.123  1.00  0.00     0.067 A 
HETATM   10  C   UNL     1       4.666  31.697  55.713  1.00  0.00     0.020 C 
HETATM   11  N   UNL     1       4.210  31.819  54.542  1.00  0.00    -0.096 N 
HETATM   12  C   UNL     1       4.433  31.899  58.182  1.00  0.00     0.139 A 
HETATM   13  O   UNL     1       4.943  31.951  59.494  1.00  0.00    -0.279 OA
ENDROOT
BRANCH   8  14
HETATM   14  C   UNL     1       6.982  29.719  56.977  1.00  0.00    -0.044 A 
HETATM   15  C   UNL     1       8.134  29.295  56.295  1.00  0.00     0.009 A 
HETATM   16  C   UNL     1       8.338  27.944  55.996  1.00  0.00     0.013 A 
HETATM   17  C   UNL     1       7.411  26.966  56.383  1.00  0.00    -0.026 A 
HETATM   18  C   UNL     1       6.283  27.388  57.105  1.00  0.00     0.013 A 
HETATM   19  C   UNL     1       6.070  28.741  57.399  1.00  0.00     0.009 A 
BRANCH  17  20
HETATM   20  C   UNL     1       7.604  25.549  56.018  1.00  0.00    -0.026 A 
HETATM   21  C   UNL     1       8.356  24.682  56.829  1.00  0.00     0.012 A 
HETATM   22  C   UNL     1       8.560  23.347  56.467  1.00  0.00     0.001 A 
HETATM   23  C   UNL     1       8.012  22.852  55.288  1.00  0.00     0.000 A 
HETATM   24  C   UNL     1       7.259  23.690  54.470  1.00  0.00     0.001 A 
HETATM   25  C   UNL     1       7.059  25.025  54.832  1.00  0.00     0.012 A 
ENDBRANCH  17  20
ENDBRANCH   8  14
BRANCH  12  26
HETATM   26  N   UNL     1       3.107  32.260  58.112  1.00  0.00    -0.282 NA
HETATM   27  H   UNL     1       2.641  32.399  59.006  1.00  0.00     0.126 HD
HETATM   28  H   UNL     1       2.952  33.025  57.460  1.00  0.00     0.126 HD
ENDBRANCH  12  26
TORSDOF 3
ENDMDL
MODEL 9
REMARK VINA RESULT:      -7.6      5.509      7.697
REMARK  3 active torsions:
REMARK  status: ('A' for Active; 'I' for Inactive)
REMARK    1  A    between atoms: C_8  and  C_9 
REMARK    2  A    between atoms: C_12  and  C_13 
REMARK    3  A    between atoms: C_24  and  N_25 
ROOT
HETATM    1  C   UNL     1       6.540  31.801  62.082  1.00  0.00     0.073 C 
HETATM    2  C   UNL     1       5.150  32.259  61.842  1.00  0.00     0.062 A 
HETATM    3  N   UNL     1       4.215  32.120  62.796  1.00  0.00    -0.177 NA
HETATM    4  N   UNL     1       3.092  32.620  62.239  1.00  0.00    -0.256 N 
HETATM    5  H   UNL     1       2.237  32.631  62.784  1.00  0.00     0.191 HD
HETATM    6  C   UNL     1       3.291  33.072  60.975  1.00  0.00     0.175 A 
HETATM    7  C   UNL     1       4.610  32.847  60.675  1.00  0.00     0.034 A 
HETATM    8  C   UNL     1       5.150  33.236  59.340  1.00  0.00     0.104 A 
HETATM    9  C   UNL     1       4.095  34.017  58.563  1.00  0.00     0.067 A 
HETATM   10  C   UNL     1       4.578  34.789  57.346  1.00  0.00     0.020 C 
HETATM   11  N   UNL     1       4.979  35.430  56.336  1.00  0.00    -0.096 N 
HETATM   12  C   UNL     1       2.813  34.180  58.992  1.00  0.00     0.139 A 
HETATM   13  O   UNL     1       2.362  33.631  60.208  1.00  0.00    -0.279 OA
ENDROOT
BRANCH   8  14
HETATM   14  C   UNL     1       5.559  31.931  58.670  1.00  0.00    -0.044 A 
HETATM   15  C   UNL     1       4.621  31.054  58.100  1.00  0.00     0.009 A 
HETATM   16  C   UNL     1       5.019  29.828  57.558  1.00  0.00     0.013 A 
HETATM   17  C   UNL     1       6.367  29.440  57.547  1.00  0.00    -0.026 A 
HETATM   18  C   UNL     1       7.306  30.340  58.076  1.00  0.00     0.013 A 
HETATM   19  C   UNL     1       6.912  31.565  58.628  1.00  0.00     0.009 A 
BRANCH  17  20
HETATM   20  C   UNL     1       6.775  28.122  57.023  1.00  0.00    -0.026 A 
HETATM   21  C   UNL     1       7.638  27.283  57.749  1.00  0.00     0.012 A 
HETATM   22  C   UNL     1       8.044  26.047  57.238  1.00  0.00     0.001 A 
HETATM   23  C   UNL     1       7.592  25.624  55.991  1.00  0.00     0.000 A 
HETATM   24  C   UNL     1       6.733  26.436  55.256  1.00  0.00     0.001 A 
HETATM   25  C   UNL     1       6.330  27.672  55.767  1.00  0.00     0.012 A 
ENDBRANCH  17  20
ENDBRANCH   8  14
BRANCH  12  26
HETATM   26  N   UNL     1       1.838  34.899  58.339  1.00  0.00    -0.282 NA
HETATM   27  H   UNL     1       1.005  35.107  58.884  1.00  0.00     0.126 HD
HETATM   28  H   UNL     1       2.217  35.715  57.865  1.00  0.00     0.126 HD
ENDBRANCH  12  26
TORSDOF 3
ENDMDL
MODEL 10
REMARK VINA RESULT:      -7.6      3.441      4.981
REMARK  3 active torsions:
REMARK  status: ('A' for Active; 'I' for Inactive)
REMARK    1  A    between atoms: C_8  and  C_9 
REMARK    2  A    between atoms: C_12  and  C_13 
REMARK    3  A    between atoms: C_24  and  N_25 
ROOT
HETATM    1  C   UNL     1       6.110  30.433  49.661  1.00  0.00     0.073 C 
HETATM    2  C   UNL     1       4.647  30.375  49.426  1.00  0.00     0.062 A 
HETATM    3  N   UNL     1       3.911  31.499  49.444  1.00  0.00    -0.177 NA
HETATM    4  N   UNL     1       2.651  31.077  49.211  1.00  0.00    -0.256 N 
HETATM    5  H   UNL     1       1.904  31.761  49.169  1.00  0.00     0.191 HD
HETATM    6  C   UNL     1       2.572  29.732  49.041  1.00  0.00     0.175 A 
HETATM    7  C   UNL     1       3.843  29.238  49.183  1.00  0.00     0.034 A 
HETATM    8  C   UNL     1       4.094  27.774  49.053  1.00  0.00     0.104 A 
HETATM    9  C   UNL     1       2.822  27.070  48.591  1.00  0.00     0.067 A 
HETATM   10  C   UNL     1       2.979  25.651  48.070  1.00  0.00     0.020 C 
HETATM   11  N   UNL     1       3.110  24.473  47.637  1.00  0.00    -0.096 N 
HETATM   12  C   UNL     1       1.617  27.694  48.475  1.00  0.00     0.139 A 
HETATM   13  O   UNL     1       1.457  29.060  48.778  1.00  0.00    -0.279 OA
ENDROOT
BRANCH   8  14
HETATM   14  C   UNL     1       4.577  27.320  50.423  1.00  0.00    -0.044 A 
HETATM   15  C   UNL     1       5.507  26.279  50.585  1.00  0.00     0.009 A 
HETATM   16  C   UNL     1       5.876  25.834  51.859  1.00  0.00     0.013 A 
HETATM   17  C   UNL     1       5.346  26.422  53.016  1.00  0.00    -0.026 A 
HETATM   18  C   UNL     1       4.452  27.493  52.851  1.00  0.00     0.013 A 
HETATM   19  C   UNL     1       4.073  27.936  51.578  1.00  0.00     0.009 A 
BRANCH  17  20
HETATM   20  C   UNL     1       5.697  25.914  54.356  1.00  0.00    -0.026 A 
HETATM   21  C   UNL     1       5.332  26.611  55.521  1.00  0.00     0.012 A 
HETATM   22  C   UNL     1       5.689  26.141  56.788  1.00  0.00     0.001 A 
HETATM   23  C   UNL     1       6.417  24.961  56.916  1.00  0.00     0.000 A 
HETATM   24  C   UNL     1       6.786  24.251  55.777  1.00  0.00     0.001 A 
HETATM   25  C   UNL     1       6.430  24.724  54.511  1.00  0.00     0.012 A 
ENDBRANCH  17  20
ENDBRANCH   8  14
BRANCH  12  26
HETATM   26  N   UNL     1       0.453  27.106  48.036  1.00  0.00    -0.282 NA
HETATM   27  H   UNL     1       0.420  26.881  47.044  1.00  0.00     0.126 HD
HETATM   28  H   UNL     1       0.167  26.331  48.629  1.00  0.00     0.126 HD
ENDBRANCH  12  26
TORSDOF 3
ENDMDL
