MODEL 1
REMARK VINA RESULT:      -9.3      0.000      0.000
REMARK  6 active torsions:
REMARK  status: ('A' for Active; 'I' for Inactive)
REMARK    1  A    between atoms: C_7  and  N_8 
REMARK    2  A    between atoms: N_8  and  C_9 
REMARK    3  A    between atoms: C_9  and  C_10 
REMARK    4  A    between atoms: C_12  and  N_13 
REMARK       I    between atoms: N_13  and  C_14 
REMARK    5  A    between atoms: C_14  and  C_15 
REMARK    6  A    between atoms: C_15  and  N_16 
ROOT
HETATM    1  C   UNL     1       8.527  28.356  57.276  1.00  0.00    -0.038 A 
HETATM    2  C   UNL     1       7.751  28.960  58.276  1.00  0.00     0.038 A 
HETATM    3  C   UNL     1       8.143  30.155  58.876  1.00  0.00     0.035 A 
HETATM    4  C   UNL     1       9.395  30.687  58.566  1.00  0.00     0.029 A 
HETATM    5  C   UNL     1      10.206  30.068  57.610  1.00  0.00     0.003 A 
HETATM    6  C   UNL     1       9.763  28.921  56.949  1.00  0.00     0.009 A 
ENDROOT
BRANCH   1   7
HETATM    7  C   UNL     1       7.993  27.162  56.542  1.00  0.00     0.176 C 
BRANCH   7   8
HETATM    8  N   UNL     1       8.161  25.971  57.365  1.00  0.00    -0.222 N 
HETATM    9  H   UNL     1       8.201  26.066  58.368  1.00  0.00     0.178 HD
BRANCH   8  10
HETATM   10  C   UNL     1       8.139  24.723  56.871  1.00  0.00     0.679 A 
HETATM   11  N   UNL     1       7.868  24.437  55.606  1.00  0.00    -0.190 N 
HETATM   12  C   UNL     1       7.943  23.074  55.394  1.00  0.00     0.076 A 
HETATM   13  H   UNL     1       7.638  25.110  54.888  1.00  0.00     0.184 HD
HETATM   14  C   UNL     1       8.267  22.520  56.630  1.00  0.00     0.076 A 
HETATM   15  C   UNL     1       7.755  22.302  54.255  1.00  0.00     0.032 A 
HETATM   16  C   UNL     1       8.416  21.154  56.828  1.00  0.00     0.032 A 
HETATM   17  N   UNL     1       8.379  23.584  57.495  1.00  0.00    -0.190 N 
HETATM   18  C   UNL     1       8.232  20.356  55.688  1.00  0.00     0.002 A 
HETATM   19  C   UNL     1       7.911  20.917  54.432  1.00  0.00     0.002 A 
HETATM   20  H   UNL     1       8.558  23.471  58.484  1.00  0.00     0.184 HD
ENDBRANCH   8  10
ENDBRANCH   7   8
ENDBRANCH   1   7
BRANCH   3  21
HETATM   21  N   UNL     1       7.319  30.868  59.765  1.00  0.00    -0.326 N 
HETATM   22  C   UNL     1       6.547  31.981  59.482  1.00  0.00     0.242 C 
HETATM   23  O   UNL     1       6.497  32.528  58.374  1.00  0.00    -0.271 OA
HETATM   24  H   UNL     1       7.409  30.635  60.762  1.00  0.00     0.169 HD
BRANCH  22  25
HETATM   25  C   UNL     1       5.814  32.617  60.654  1.00  0.00     0.253 C 
BRANCH  25  26
HETATM   26  N   UNL     1       6.504  32.604  61.933  1.00  0.00    -0.273 N 
HETATM   27  N   UNL     1       7.856  32.661  61.979  1.00  0.00    -0.185 NA
HETATM   28  C   UNL     1       8.125  32.743  63.287  1.00  0.00     0.140 A 
HETATM   29  C   UNL     1       6.960  32.737  64.074  1.00  0.00     0.040 A 
HETATM   30  C   UNL     1       5.926  32.650  63.170  1.00  0.00     0.114 A 
ENDBRANCH  25  26
ENDBRANCH  22  25
ENDBRANCH   3  21
TORSDOF 6
ENDMDL
MODEL 2
REMARK VINA RESULT:      -9.2      2.183      9.855
REMARK  6 active torsions:
REMARK  status: ('A' for Active; 'I' for Inactive)
REMARK    1  A    between atoms: C_7  and  N_8 
REMARK    2  A    between atoms: N_8  and  C_9 
REMARK    3  A    between atoms: C_9  and  C_10 
REMARK    4  A    between atoms: C_12  and  N_13 
REMARK       I    between atoms: N_13  and  C_14 
REMARK    5  A    between atoms: C_14  and  C_15 
REMARK    6  A    between atoms: C_15  and  N_16 
ROOT
HETATM    1  C   UNL     1       9.165  30.371  58.781  1.00  0.00    -0.038 A 
HETATM    2  C   UNL     1       8.113  29.489  58.495  1.00  0.00     0.038 A 
HETATM    3  C   UNL     1       8.136  28.675  57.364  1.00  0.00     0.035 A 
HETATM    4  C   UNL     1       9.165  28.839  56.435  1.00  0.00     0.029 A 
HETATM    5  C   UNL     1      10.195  29.752  56.680  1.00  0.00     0.003 A 
HETATM    6  C   UNL     1      10.209  30.498  57.859  1.00  0.00     0.009 A 
ENDROOT
BRANCH   1   7
HETATM    7  C   UNL     1       9.180  31.108  60.088  1.00  0.00     0.176 C 
BRANCH   7   8
HETATM    8  N   UNL     1       8.115  30.599  60.944  1.00  0.00    -0.222 N 
HETATM    9  H   UNL     1       7.853  29.628  60.880  1.00  0.00     0.178 HD
BRANCH   8  10
HETATM   10  C   UNL     1       7.541  31.323  61.917  1.00  0.00     0.679 A 
HETATM   11  N   UNL     1       8.222  31.997  62.833  1.00  0.00    -0.190 N 
HETATM   12  C   UNL     1       7.359  32.661  63.683  1.00  0.00     0.076 A 
HETATM   13  H   UNL     1       9.229  32.029  62.911  1.00  0.00     0.184 HD
HETATM   14  C   UNL     1       6.078  32.341  63.241  1.00  0.00     0.076 A 
HETATM   15  C   UNL     1       7.588  33.489  64.774  1.00  0.00     0.032 A 
HETATM   16  C   UNL     1       4.927  32.812  63.859  1.00  0.00     0.032 A 
HETATM   17  N   UNL     1       6.256  31.521  62.150  1.00  0.00    -0.190 N 
HETATM   18  C   UNL     1       5.137  33.652  64.964  1.00  0.00     0.002 A 
HETATM   19  C   UNL     1       6.436  33.984  65.409  1.00  0.00     0.002 A 
HETATM   20  H   UNL     1       5.486  31.090  61.655  1.00  0.00     0.184 HD
ENDBRANCH   8  10
ENDBRANCH   7   8
ENDBRANCH   1   7
BRANCH   3  21
HETATM   21  N   UNL     1       7.181  27.671  57.127  1.00  0.00    -0.326 N 
HETATM   22  C   UNL     1       7.229  26.353  57.545  1.00  0.00     0.242 C 
HETATM   23  O   UNL     1       8.165  25.862  58.187  1.00  0.00    -0.271 OA
HETATM   24  H   UNL     1       6.441  27.893  56.450  1.00  0.00     0.169 HD
BRANCH  22  25
HETATM   25  C   UNL     1       6.100  25.448  57.074  1.00  0.00     0.253 C 
BRANCH  25  26
HETATM   26  N   UNL     1       6.321  24.730  55.830  1.00  0.00    -0.273 N 
HETATM   27  N   UNL     1       5.784  25.187  54.674  1.00  0.00    -0.185 NA
HETATM   28  C   UNL     1       6.279  24.360  53.747  1.00  0.00     0.140 A 
HETATM   29  C   UNL     1       7.124  23.381  54.299  1.00  0.00     0.040 A 
HETATM   30  C   UNL     1       7.135  23.647  55.649  1.00  0.00     0.114 A 
ENDBRANCH  25  26
ENDBRANCH  22  25
ENDBRANCH   3  21
TORSDOF 6
ENDMDL
MODEL 3
REMARK VINA RESULT:      -9.1      1.781      2.381
REMARK  6 active torsions:
REMARK  status: ('A' for Active; 'I' for Inactive)
REMARK    1  A    between atoms: C_7  and  N_8 
REMARK    2  A    between atoms: N_8  and  C_9 
REMARK    3  A    between atoms: C_9  and  C_10 
REMARK    4  A    between atoms: C_12  and  N_13 
REMARK       I    between atoms: N_13  and  C_14 
REMARK    5  A    between atoms: C_14  and  C_15 
REMARK    6  A    between atoms: C_15  and  N_16 
ROOT
HETATM    1  C   UNL     1       8.019  29.189  56.408  1.00  0.00    -0.038 A 
HETATM    2  C   UNL     1       8.049  29.455  57.784  1.00  0.00     0.038 A 
HETATM    3  C   UNL     1       9.190  29.967  58.400  1.00  0.00     0.035 A 
HETATM    4  C   UNL     1      10.361  30.093  57.652  1.00  0.00     0.029 A 
HETATM    5  C   UNL     1      10.363  29.782  56.289  1.00  0.00     0.003 A 
HETATM    6  C   UNL     1       9.191  29.355  55.663  1.00  0.00     0.009 A 
ENDROOT
BRANCH   1   7
HETATM    7  C   UNL     1       6.726  28.794  55.757  1.00  0.00     0.176 C 
BRANCH   7   8
HETATM    8  N   UNL     1       7.005  28.126  54.491  1.00  0.00    -0.222 N 
HETATM    9  H   UNL     1       7.170  28.681  53.666  1.00  0.00     0.178 HD
BRANCH   8  10
HETATM   10  C   UNL     1       7.183  26.800  54.380  1.00  0.00     0.679 A 
HETATM   11  N   UNL     1       7.487  26.191  53.243  1.00  0.00    -0.190 N 
HETATM   12  C   UNL     1       7.629  24.832  53.449  1.00  0.00     0.076 A 
HETATM   13  H   UNL     1       7.601  26.643  52.347  1.00  0.00     0.184 HD
HETATM   14  C   UNL     1       7.375  24.629  54.803  1.00  0.00     0.076 A 
HETATM   15  C   UNL     1       7.946  23.793  52.584  1.00  0.00     0.032 A 
HETATM   16  C   UNL     1       7.406  23.374  55.397  1.00  0.00     0.032 A 
HETATM   17  N   UNL     1       7.114  25.877  55.322  1.00  0.00    -0.190 N 
HETATM   18  C   UNL     1       7.726  22.310  54.539  1.00  0.00     0.002 A 
HETATM   19  C   UNL     1       7.992  22.515  53.167  1.00  0.00     0.002 A 
HETATM   20  H   UNL     1       6.842  26.024  56.285  1.00  0.00     0.184 HD
ENDBRANCH   8  10
ENDBRANCH   7   8
ENDBRANCH   1   7
BRANCH   3  21
HETATM   21  N   UNL     1       9.208  30.392  59.740  1.00  0.00    -0.326 N 
HETATM   22  C   UNL     1       9.218  31.695  60.206  1.00  0.00     0.242 C 
HETATM   23  O   UNL     1       9.237  32.693  59.477  1.00  0.00    -0.271 OA
HETATM   24  H   UNL     1       9.381  29.668  60.448  1.00  0.00     0.169 HD
BRANCH  22  25
HETATM   25  C   UNL     1       9.329  31.877  61.713  1.00  0.00     0.253 C 
BRANCH  25  26
HETATM   26  N   UNL     1       8.099  32.195  62.419  1.00  0.00    -0.273 N 
HETATM   27  N   UNL     1       6.908  31.763  61.942  1.00  0.00    -0.185 NA
HETATM   28  C   UNL     1       6.036  32.136  62.885  1.00  0.00     0.140 A 
HETATM   29  C   UNL     1       6.658  32.800  63.957  1.00  0.00     0.040 A 
HETATM   30  C   UNL     1       7.994  32.821  63.629  1.00  0.00     0.114 A 
ENDBRANCH  25  26
ENDBRANCH  22  25
ENDBRANCH   3  21
TORSDOF 6
ENDMDL
MODEL 4
REMARK VINA RESULT:      -9.1      1.941      3.115
REMARK  6 active torsions:
REMARK  status: ('A' for Active; 'I' for Inactive)
REMARK    1  A    between atoms: C_7  and  N_8 
REMARK    2  A    between atoms: N_8  and  C_9 
REMARK    3  A    between atoms: C_9  and  C_10 
REMARK    4  A    between atoms: C_12  and  N_13 
REMARK       I    between atoms: N_13  and  C_14 
REMARK    5  A    between atoms: C_14  and  C_15 
REMARK    6  A    between atoms: C_15  and  N_16 
ROOT
HETATM    1  C   UNL     1       7.083  26.734  56.784  1.00  0.00    -0.038 A 
HETATM    2  C   UNL     1       7.792  27.717  57.489  1.00  0.00     0.038 A 
HETATM    3  C   UNL     1       8.053  28.966  56.929  1.00  0.00     0.035 A 
HETATM    4  C   UNL     1       7.715  29.191  55.594  1.00  0.00     0.029 A 
HETATM    5  C   UNL     1       7.055  28.201  54.859  1.00  0.00     0.003 A 
HETATM    6  C   UNL     1       6.718  26.987  55.458  1.00  0.00     0.009 A 
ENDROOT
BRANCH   1   7
HETATM    7  C   UNL     1       6.682  25.467  57.479  1.00  0.00     0.176 C 
BRANCH   7   8
HETATM    8  N   UNL     1       7.799  24.529  57.462  1.00  0.00    -0.222 N 
HETATM    9  H   UNL     1       8.442  24.513  58.238  1.00  0.00     0.178 HD
BRANCH   8  10
HETATM   10  C   UNL     1       7.954  23.585  56.521  1.00  0.00     0.679 A 
HETATM   11  N   UNL     1       8.476  22.389  56.757  1.00  0.00    -0.190 N 
HETATM   12  C   UNL     1       8.484  21.631  55.603  1.00  0.00     0.076 A 
HETATM   13  H   UNL     1       8.822  22.065  57.649  1.00  0.00     0.184 HD
HETATM   14  C   UNL     1       7.941  22.448  54.614  1.00  0.00     0.076 A 
HETATM   15  C   UNL     1       8.914  20.335  55.349  1.00  0.00     0.032 A 
HETATM   16  C   UNL     1       7.795  22.040  53.295  1.00  0.00     0.032 A 
HETATM   17  N   UNL     1       7.630  23.632  55.242  1.00  0.00    -0.190 N 
HETATM   18  C   UNL     1       8.223  20.732  53.018  1.00  0.00     0.002 A 
HETATM   19  C   UNL     1       8.767  19.900  54.020  1.00  0.00     0.002 A 
HETATM   20  H   UNL     1       7.265  24.436  54.748  1.00  0.00     0.184 HD
ENDBRANCH   8  10
ENDBRANCH   7   8
ENDBRANCH   1   7
BRANCH   3  21
HETATM   21  N   UNL     1       8.620  30.026  57.658  1.00  0.00    -0.326 N 
HETATM   22  C   UNL     1       9.952  30.401  57.693  1.00  0.00     0.242 C 
HETATM   23  O   UNL     1      10.854  29.816  57.082  1.00  0.00    -0.271 OA
HETATM   24  H   UNL     1       8.015  30.481  58.353  1.00  0.00     0.169 HD
BRANCH  22  25
HETATM   25  C   UNL     1      10.315  31.536  58.639  1.00  0.00     0.253 C 
BRANCH  25  26
HETATM   26  N   UNL     1       9.364  31.825  59.699  1.00  0.00    -0.273 N 
HETATM   27  N   UNL     1       8.140  32.322  59.400  1.00  0.00    -0.185 NA
HETATM   28  C   UNL     1       7.515  32.354  60.582  1.00  0.00     0.140 A 
HETATM   29  C   UNL     1       8.326  31.884  61.630  1.00  0.00     0.040 A 
HETATM   30  C   UNL     1       9.516  31.546  61.028  1.00  0.00     0.114 A 
ENDBRANCH  25  26
ENDBRANCH  22  25
ENDBRANCH   3  21
TORSDOF 6
ENDMDL
MODEL 5
REMARK VINA RESULT:      -8.9      1.387      2.113
REMARK  6 active torsions:
REMARK  status: ('A' for Active; 'I' for Inactive)
REMARK    1  A    between atoms: C_7  and  N_8 
REMARK    2  A    between atoms: N_8  and  C_9 
REMARK    3  A    between atoms: C_9  and  C_10 
REMARK    4  A    between atoms: C_12  and  N_13 
REMARK       I    between atoms: N_13  and  C_14 
REMARK    5  A    between atoms: C_14  and  C_15 
REMARK    6  A    between atoms: C_15  and  N_16 
ROOT
HETATM    1  C   UNL     1       8.299  28.316  57.339  1.00  0.00    -0.038 A 
HETATM    2  C   UNL     1       7.959  29.050  58.485  1.00  0.00     0.038 A 
HETATM    3  C   UNL     1       8.689  30.172  58.871  1.00  0.00     0.035 A 
HETATM    4  C   UNL     1       9.856  30.491  58.175  1.00  0.00     0.029 A 
HETATM    5  C   UNL     1      10.239  29.738  57.061  1.00  0.00     0.003 A 
HETATM    6  C   UNL     1       9.451  28.670  56.629  1.00  0.00     0.009 A 
ENDROOT
BRANCH   1   7
HETATM    7  C   UNL     1       7.395  27.216  56.868  1.00  0.00     0.176 C 
BRANCH   7   8
HETATM    8  N   UNL     1       7.931  25.930  57.297  1.00  0.00    -0.222 N 
HETATM    9  H   UNL     1       8.225  25.813  58.255  1.00  0.00     0.178 HD
BRANCH   8  10
HETATM   10  C   UNL     1       7.940  24.837  56.519  1.00  0.00     0.679 A 
HETATM   11  N   UNL     1       7.939  23.597  56.989  1.00  0.00    -0.190 N 
HETATM   12  C   UNL     1       7.927  22.689  55.949  1.00  0.00     0.076 A 
HETATM   13  H   UNL     1       7.947  23.340  57.966  1.00  0.00     0.184 HD
HETATM   14  C   UNL     1       7.936  23.451  54.784  1.00  0.00     0.076 A 
HETATM   15  C   UNL     1       7.913  21.300  55.933  1.00  0.00     0.032 A 
HETATM   16  C   UNL     1       7.944  22.889  53.514  1.00  0.00     0.032 A 
HETATM   17  N   UNL     1       7.938  24.763  55.200  1.00  0.00    -0.190 N 
HETATM   18  C   UNL     1       7.928  21.486  53.477  1.00  0.00     0.002 A 
HETATM   19  C   UNL     1       7.911  20.711  54.657  1.00  0.00     0.002 A 
HETATM   20  H   UNL     1       7.998  25.542  54.558  1.00  0.00     0.184 HD
ENDBRANCH   8  10
ENDBRANCH   7   8
ENDBRANCH   1   7
BRANCH   3  21
HETATM   21  N   UNL     1       8.288  31.020  59.918  1.00  0.00    -0.326 N 
HETATM   22  C   UNL     1       8.627  30.917  61.256  1.00  0.00     0.242 C 
HETATM   23  O   UNL     1       9.334  30.018  61.726  1.00  0.00    -0.271 OA
HETATM   24  H   UNL     1       7.549  31.700  59.701  1.00  0.00     0.169 HD
BRANCH  22  25
HETATM   25  C   UNL     1       7.980  31.919  62.201  1.00  0.00     0.253 C 
BRANCH  25  26
HETATM   26  N   UNL     1       6.567  32.187  61.994  1.00  0.00    -0.273 N 
HETATM   27  N   UNL     1       6.144  32.765  60.845  1.00  0.00    -0.185 NA
HETATM   28  C   UNL     1       4.811  32.751  60.957  1.00  0.00     0.140 A 
HETATM   29  C   UNL     1       4.381  32.173  62.164  1.00  0.00     0.040 A 
HETATM   30  C   UNL     1       5.539  31.814  62.814  1.00  0.00     0.114 A 
ENDBRANCH  25  26
ENDBRANCH  22  25
ENDBRANCH   3  21
TORSDOF 6
ENDMDL
MODEL 6
REMARK VINA RESULT:      -8.9      3.327      4.996
REMARK  6 active torsions:
REMARK  status: ('A' for Active; 'I' for Inactive)
REMARK    1  A    between atoms: C_7  and  N_8 
REMARK    2  A    between atoms: N_8  and  C_9 
REMARK    3  A    between atoms: C_9  and  C_10 
REMARK    4  A    between atoms: C_12  and  N_13 
REMARK       I    between atoms: N_13  and  C_14 
REMARK    5  A    between atoms: C_14  and  C_15 
REMARK    6  A    between atoms: C_15  and  N_16 
ROOT
HETATM    1  C   UNL     1       5.929  26.915  52.735  1.00  0.00    -0.038 A 
HETATM    2  C   UNL     1       6.678  27.512  53.759  1.00  0.00     0.038 A 
HETATM    3  C   UNL     1       6.105  28.432  54.635  1.00  0.00     0.035 A 
HETATM    4  C   UNL     1       4.798  28.862  54.402  1.00  0.00     0.029 A 
HETATM    5  C   UNL     1       4.054  28.316  53.352  1.00  0.00     0.003 A 
HETATM    6  C   UNL     1       4.609  27.328  52.536  1.00  0.00     0.009 A 
ENDROOT
BRANCH   1   7
HETATM    7  C   UNL     1       6.536  25.811  51.919  1.00  0.00     0.176 C 
BRANCH   7   8
HETATM    8  N   UNL     1       7.803  25.406  52.517  1.00  0.00    -0.222 N 
HETATM    9  H   UNL     1       8.588  26.039  52.485  1.00  0.00     0.178 HD
BRANCH   8  10
HETATM   10  C   UNL     1       7.956  24.280  53.230  1.00  0.00     0.679 A 
HETATM   11  N   UNL     1       7.884  23.063  52.709  1.00  0.00    -0.190 N 
HETATM   12  C   UNL     1       8.105  22.109  53.682  1.00  0.00     0.076 A 
HETATM   13  H   UNL     1       7.695  22.850  51.739  1.00  0.00     0.184 HD
HETATM   14  C   UNL     1       8.306  22.818  54.864  1.00  0.00     0.076 A 
HETATM   15  C   UNL     1       8.140  20.721  53.628  1.00  0.00     0.032 A 
HETATM   16  C   UNL     1       8.546  22.199  56.083  1.00  0.00     0.032 A 
HETATM   17  N   UNL     1       8.208  24.147  54.520  1.00  0.00    -0.190 N 
HETATM   18  C   UNL     1       8.587  20.796  56.049  1.00  0.00     0.002 A 
HETATM   19  C   UNL     1       8.391  20.075  54.851  1.00  0.00     0.002 A 
HETATM   20  H   UNL     1       8.261  24.895  55.198  1.00  0.00     0.184 HD
ENDBRANCH   8  10
ENDBRANCH   7   8
ENDBRANCH   1   7
BRANCH   3  21
HETATM   21  N   UNL     1       6.778  28.931  55.764  1.00  0.00    -0.326 N 
HETATM   22  C   UNL     1       6.823  28.370  57.028  1.00  0.00     0.242 C 
HETATM   23  O   UNL     1       6.236  27.328  57.347  1.00  0.00    -0.271 OA
HETATM   24  H   UNL     1       7.153  29.885  55.691  1.00  0.00     0.169 HD
BRANCH  22  25
HETATM   25  C   UNL     1       7.553  29.165  58.100  1.00  0.00     0.253 C 
BRANCH  25  26
HETATM   26  N   UNL     1       8.920  29.555  57.800  1.00  0.00    -0.273 N 
HETATM   27  N   UNL     1       9.649  28.850  56.903  1.00  0.00    -0.185 NA
HETATM   28  C   UNL     1      10.785  29.547  56.800  1.00  0.00     0.140 A 
HETATM   29  C   UNL     1      10.789  30.688  57.623  1.00  0.00     0.040 A 
HETATM   30  C   UNL     1       9.568  30.668  58.256  1.00  0.00     0.114 A 
ENDBRANCH  25  26
ENDBRANCH  22  25
ENDBRANCH   3  21
TORSDOF 6
ENDMDL
MODEL 7
REMARK VINA RESULT:      -8.8      4.655      7.172
REMARK  6 active torsions:
REMARK  status: ('A' for Active; 'I' for Inactive)
REMARK    1  A    between atoms: C_7  and  N_8 
REMARK    2  A    between atoms: N_8  and  C_9 
REMARK    3  A    between atoms: C_9  and  C_10 
REMARK    4  A    between atoms: C_12  and  N_13 
REMARK       I    between atoms: N_13  and  C_14 
REMARK    5  A    between atoms: C_14  and  C_15 
REMARK    6  A    between atoms: C_15  and  N_16 
ROOT
HETATM    1  C   UNL     1       7.237  26.732  56.778  1.00  0.00    -0.038 A 
HETATM    2  C   UNL     1       6.720  27.126  55.535  1.00  0.00     0.038 A 
HETATM    3  C   UNL     1       7.293  28.169  54.809  1.00  0.00     0.035 A 
HETATM    4  C   UNL     1       8.316  28.916  55.394  1.00  0.00     0.029 A 
HETATM    5  C   UNL     1       8.807  28.570  56.657  1.00  0.00     0.003 A 
HETATM    6  C   UNL     1       8.287  27.467  57.335  1.00  0.00     0.009 A 
ENDROOT
BRANCH   1   7
HETATM    7  C   UNL     1       6.696  25.504  57.449  1.00  0.00     0.176 C 
BRANCH   7   8
HETATM    8  N   UNL     1       7.733  24.479  57.494  1.00  0.00    -0.222 N 
HETATM    9  H   UNL     1       8.299  24.386  58.324  1.00  0.00     0.178 HD
BRANCH   8  10
HETATM   10  C   UNL     1       7.900  23.556  56.535  1.00  0.00     0.679 A 
HETATM   11  N   UNL     1       8.415  22.353  56.752  1.00  0.00    -0.190 N 
HETATM   12  C   UNL     1       8.438  21.622  55.581  1.00  0.00     0.076 A 
HETATM   13  H   UNL     1       8.746  22.009  57.642  1.00  0.00     0.184 HD
HETATM   14  C   UNL     1       7.912  22.462  54.603  1.00  0.00     0.076 A 
HETATM   15  C   UNL     1       8.868  20.330  55.304  1.00  0.00     0.032 A 
HETATM   16  C   UNL     1       7.785  22.085  53.273  1.00  0.00     0.032 A 
HETATM   17  N   UNL     1       7.595  23.633  55.252  1.00  0.00    -0.190 N 
HETATM   18  C   UNL     1       8.213  20.782  52.973  1.00  0.00     0.002 A 
HETATM   19  C   UNL     1       8.739  19.925  53.964  1.00  0.00     0.002 A 
HETATM   20  H   UNL     1       7.239  24.449  54.771  1.00  0.00     0.184 HD
ENDBRANCH   8  10
ENDBRANCH   7   8
ENDBRANCH   1   7
BRANCH   3  21
HETATM   21  N   UNL     1       6.903  28.488  53.496  1.00  0.00    -0.326 N 
HETATM   22  C   UNL     1       5.682  28.992  53.084  1.00  0.00     0.242 C 
HETATM   23  O   UNL     1       4.730  29.212  53.842  1.00  0.00    -0.271 OA
HETATM   24  H   UNL     1       7.531  28.181  52.744  1.00  0.00     0.169 HD
BRANCH  22  25
HETATM   25  C   UNL     1       5.489  29.167  51.585  1.00  0.00     0.253 C 
BRANCH  25  26
HETATM   26  N   UNL     1       5.236  27.958  50.819  1.00  0.00    -0.273 N 
HETATM   27  N   UNL     1       5.377  26.742  51.397  1.00  0.00    -0.185 NA
HETATM   28  C   UNL     1       4.962  25.892  50.452  1.00  0.00     0.140 A 
HETATM   29  C   UNL     1       4.560  26.553  49.277  1.00  0.00     0.040 A 
HETATM   30  C   UNL     1       4.746  27.889  49.545  1.00  0.00     0.114 A 
ENDBRANCH  25  26
ENDBRANCH  22  25
ENDBRANCH   3  21
TORSDOF 6
ENDMDL
MODEL 8
REMARK VINA RESULT:      -8.6      2.504     10.141
REMARK  6 active torsions:
REMARK  status: ('A' for Active; 'I' for Inactive)
REMARK    1  A    between atoms: C_7  and  N_8 
REMARK    2  A    between atoms: N_8  and  C_9 
REMARK    3  A    between atoms: C_9  and  C_10 
REMARK    4  A    between atoms: C_12  and  N_13 
REMARK       I    between atoms: N_13  and  C_14 
REMARK    5  A    between atoms: C_14  and  C_15 
REMARK    6  A    between atoms: C_15  and  N_16 
ROOT
HETATM    1  C   UNL     1       6.540  28.032  56.340  1.00  0.00    -0.038 A 
HETATM    2  C   UNL     1       6.489  26.639  56.496  1.00  0.00     0.038 A 
HETATM    3  C   UNL     1       7.000  25.782  55.523  1.00  0.00     0.035 A 
HETATM    4  C   UNL     1       7.450  26.321  54.317  1.00  0.00     0.029 A 
HETATM    5  C   UNL     1       7.458  27.706  54.125  1.00  0.00     0.003 A 
HETATM    6  C   UNL     1       7.028  28.560  55.141  1.00  0.00     0.009 A 
ENDROOT
BRANCH   1   7
HETATM    7  C   UNL     1       6.130  28.920  57.478  1.00  0.00     0.176 C 
BRANCH   7   8
HETATM    8  N   UNL     1       7.219  29.835  57.797  1.00  0.00    -0.222 N 
HETATM    9  H   UNL     1       7.905  30.051  57.090  1.00  0.00     0.178 HD
BRANCH   8  10
HETATM   10  C   UNL     1       7.296  30.517  58.950  1.00  0.00     0.679 A 
HETATM   11  N   UNL     1       8.147  30.225  59.923  1.00  0.00    -0.190 N 
HETATM   12  C   UNL     1       8.006  31.115  60.969  1.00  0.00     0.076 A 
HETATM   13  H   UNL     1       8.810  29.462  59.914  1.00  0.00     0.184 HD
HETATM   14  C   UNL     1       6.987  31.985  60.587  1.00  0.00     0.076 A 
HETATM   15  C   UNL     1       8.665  31.226  62.187  1.00  0.00     0.032 A 
HETATM   16  C   UNL     1       6.539  33.023  61.393  1.00  0.00     0.032 A 
HETATM   17  N   UNL     1       6.596  31.569  59.335  1.00  0.00    -0.190 N 
HETATM   18  C   UNL     1       7.194  33.152  62.628  1.00  0.00     0.002 A 
HETATM   19  C   UNL     1       8.233  32.277  63.014  1.00  0.00     0.002 A 
HETATM   20  H   UNL     1       5.827  31.992  58.832  1.00  0.00     0.184 HD
ENDBRANCH   8  10
ENDBRANCH   7   8
ENDBRANCH   1   7
BRANCH   3  21
HETATM   21  N   UNL     1       7.109  24.392  55.712  1.00  0.00    -0.326 N 
HETATM   22  C   UNL     1       8.138  23.710  56.336  1.00  0.00     0.242 C 
HETATM   23  O   UNL     1       9.145  24.252  56.807  1.00  0.00    -0.271 OA
HETATM   24  H   UNL     1       6.432  23.807  55.207  1.00  0.00     0.169 HD
BRANCH  22  25
HETATM   25  C   UNL     1       8.051  22.191  56.326  1.00  0.00     0.253 C 
BRANCH  25  26
HETATM   26  N   UNL     1       8.110  21.547  55.025  1.00  0.00    -0.273 N 
HETATM   27  N   UNL     1       7.655  22.191  53.924  1.00  0.00    -0.185 NA
HETATM   28  C   UNL     1       7.966  21.362  52.922  1.00  0.00     0.140 A 
HETATM   29  C   UNL     1       8.612  20.197  53.371  1.00  0.00     0.040 A 
HETATM   30  C   UNL     1       8.694  20.346  54.736  1.00  0.00     0.114 A 
ENDBRANCH  25  26
ENDBRANCH  22  25
ENDBRANCH   3  21
TORSDOF 6
ENDMDL
MODEL 9
REMARK VINA RESULT:      -8.6      1.730      2.250
REMARK  6 active torsions:
REMARK  status: ('A' for Active; 'I' for Inactive)
REMARK    1  A    between atoms: C_7  and  N_8 
REMARK    2  A    between atoms: N_8  and  C_9 
REMARK    3  A    between atoms: C_9  and  C_10 
REMARK    4  A    between atoms: C_12  and  N_13 
REMARK       I    between atoms: N_13  and  C_14 
REMARK    5  A    between atoms: C_14  and  C_15 
REMARK    6  A    between atoms: C_15  and  N_16 
ROOT
HETATM    1  C   UNL     1       8.651  29.938  57.741  1.00  0.00    -0.038 A 
HETATM    2  C   UNL     1       7.727  30.184  58.767  1.00  0.00     0.038 A 
HETATM    3  C   UNL     1       7.914  31.222  59.678  1.00  0.00     0.035 A 
HETATM    4  C   UNL     1       9.108  31.943  59.644  1.00  0.00     0.029 A 
HETATM    5  C   UNL     1      10.064  31.675  58.659  1.00  0.00     0.003 A 
HETATM    6  C   UNL     1       9.826  30.693  57.697  1.00  0.00     0.009 A 
ENDROOT
BRANCH   1   7
HETATM    7  C   UNL     1       8.333  28.919  56.687  1.00  0.00     0.176 C 
BRANCH   7   8
HETATM    8  N   UNL     1       7.707  27.757  57.307  1.00  0.00    -0.222 N 
HETATM    9  H   UNL     1       7.134  27.885  58.127  1.00  0.00     0.178 HD
BRANCH   8  10
HETATM   10  C   UNL     1       7.741  26.527  56.772  1.00  0.00     0.679 A 
HETATM   11  N   UNL     1       7.257  26.231  55.574  1.00  0.00    -0.190 N 
HETATM   12  C   UNL     1       7.458  24.894  55.291  1.00  0.00     0.076 A 
HETATM   13  H   UNL     1       6.804  26.880  54.947  1.00  0.00     0.184 HD
HETATM   14  C   UNL     1       8.093  24.364  56.412  1.00  0.00     0.076 A 
HETATM   15  C   UNL     1       7.141  24.125  54.179  1.00  0.00     0.032 A 
HETATM   16  C   UNL     1       8.450  23.027  56.515  1.00  0.00     0.032 A 
HETATM   17  N   UNL     1       8.244  25.418  57.284  1.00  0.00    -0.190 N 
HETATM   18  C   UNL     1       8.140  22.233  55.400  1.00  0.00     0.002 A 
HETATM   19  C   UNL     1       7.503  22.769  54.259  1.00  0.00     0.002 A 
HETATM   20  H   UNL     1       8.633  25.311  58.212  1.00  0.00     0.184 HD
ENDBRANCH   8  10
ENDBRANCH   7   8
ENDBRANCH   1   7
BRANCH   3  21
HETATM   21  N   UNL     1       6.938  31.596  60.619  1.00  0.00    -0.326 N 
HETATM   22  C   UNL     1       6.988  31.426  61.991  1.00  0.00     0.242 C 
HETATM   23  O   UNL     1       7.923  30.880  62.589  1.00  0.00    -0.271 OA
HETATM   24  H   UNL     1       6.029  31.893  60.243  1.00  0.00     0.169 HD
BRANCH  22  25
HETATM   25  C   UNL     1       5.752  31.842  62.774  1.00  0.00     0.253 C 
BRANCH  25  26
HETATM   26  N   UNL     1       5.969  32.735  63.901  1.00  0.00    -0.273 N 
HETATM   27  N   UNL     1       4.958  33.006  64.759  1.00  0.00    -0.185 NA
HETATM   28  C   UNL     1       5.539  33.751  65.706  1.00  0.00     0.140 A 
HETATM   29  C   UNL     1       6.908  33.957  65.460  1.00  0.00     0.040 A 
HETATM   30  C   UNL     1       7.158  33.286  64.285  1.00  0.00     0.114 A 
ENDBRANCH  25  26
ENDBRANCH  22  25
ENDBRANCH   3  21
TORSDOF 6
ENDMDL
MODEL 10
REMARK VINA RESULT:      -8.5      2.125      3.735
REMARK  6 active torsions:
REMARK  status: ('A' for Active; 'I' for Inactive)
REMARK    1  A    between atoms: C_7  and  N_8 
REMARK    2  A    between atoms: N_8  and  C_9 
REMARK    3  A    between atoms: C_9  and  C_10 
REMARK    4  A    between atoms: C_12  and  N_13 
REMARK       I    between atoms: N_13  and  C_14 
REMARK    5  A    between atoms: C_14  and  C_15 
REMARK    6  A    between atoms: C_15  and  N_16 
ROOT
HETATM    1  C   UNL     1       6.475  26.563  54.363  1.00  0.00    -0.038 A 
HETATM    2  C   UNL     1       7.374  27.432  54.998  1.00  0.00     0.038 A 
HETATM    3  C   UNL     1       7.326  27.648  56.374  1.00  0.00     0.035 A 
HETATM    4  C   UNL     1       6.280  27.088  57.109  1.00  0.00     0.029 A 
HETATM    5  C   UNL     1       5.344  26.261  56.482  1.00  0.00     0.003 A 
HETATM    6  C   UNL     1       5.454  25.979  55.119  1.00  0.00     0.009 A 
ENDROOT
BRANCH   1   7
HETATM    7  C   UNL     1       6.663  26.233  52.912  1.00  0.00     0.176 C 
BRANCH   7   8
HETATM    8  N   UNL     1       7.882  25.450  52.745  1.00  0.00    -0.222 N 
HETATM    9  H   UNL     1       8.681  25.872  52.298  1.00  0.00     0.178 HD
BRANCH   8  10
HETATM   10  C   UNL     1       8.051  24.228  53.272  1.00  0.00     0.679 A 
HETATM   11  N   UNL     1       8.363  24.010  54.542  1.00  0.00    -0.190 N 
HETATM   12  C   UNL     1       8.447  22.654  54.791  1.00  0.00     0.076 A 
HETATM   13  H   UNL     1       8.519  24.725  55.239  1.00  0.00     0.184 HD
HETATM   14  C   UNL     1       8.180  22.032  53.574  1.00  0.00     0.076 A 
HETATM   15  C   UNL     1       8.731  21.941  55.948  1.00  0.00     0.032 A 
HETATM   16  C   UNL     1       8.187  20.653  53.414  1.00  0.00     0.032 A 
HETATM   17  N   UNL     1       7.939  23.052  52.682  1.00  0.00    -0.190 N 
HETATM   18  C   UNL     1       8.470  19.914  54.574  1.00  0.00     0.002 A 
HETATM   19  C   UNL     1       8.734  20.542  55.810  1.00  0.00     0.002 A 
HETATM   20  H   UNL     1       7.767  22.891  51.698  1.00  0.00     0.184 HD
ENDBRANCH   8  10
ENDBRANCH   7   8
ENDBRANCH   1   7
BRANCH   3  21
HETATM   21  N   UNL     1       8.304  28.386  57.065  1.00  0.00    -0.326 N 
HETATM   22  C   UNL     1       8.160  29.639  57.635  1.00  0.00     0.242 C 
HETATM   23  O   UNL     1       7.120  30.308  57.588  1.00  0.00    -0.271 OA
HETATM   24  H   UNL     1       9.266  28.030  57.018  1.00  0.00     0.169 HD
BRANCH  22  25
HETATM   25  C   UNL     1       9.408  30.254  58.250  1.00  0.00     0.253 C 
BRANCH  25  26
HETATM   26  N   UNL     1       9.217  31.027  59.466  1.00  0.00    -0.273 N 
HETATM   27  N   UNL     1       9.010  32.364  59.398  1.00  0.00    -0.185 NA
HETATM   28  C   UNL     1       8.769  32.710  60.667  1.00  0.00     0.140 A 
HETATM   29  C   UNL     1       8.823  31.611  61.542  1.00  0.00     0.040 A 
HETATM   30  C   UNL     1       9.112  30.534  60.736  1.00  0.00     0.114 A 
ENDBRANCH  25  26
ENDBRANCH  22  25
ENDBRANCH   3  21
TORSDOF 6
ENDMDL
