MODEL 1
REMARK VINA RESULT:      -9.4      0.000      0.000
REMARK  3 active torsions:
REMARK  status: ('A' for Active; 'I' for Inactive)
REMARK    1  A    between atoms: C_4  and  C_5 
REMARK    2  A    between atoms: C_11  and  C_12 
REMARK    3  A    between atoms: C_21  and  N_22 
ROOT
HETATM    1  C   UNL     1       8.106  23.876  56.311  1.00  0.00     0.098 A 
HETATM    2  N   UNL     1       8.940  23.779  57.362  1.00  0.00    -0.172 NA
HETATM    3  N   UNL     1       8.776  24.934  58.035  1.00  0.00    -0.256 N 
HETATM    4  H   UNL     1       9.309  25.086  58.884  1.00  0.00     0.191 HD
HETATM    5  C   UNL     1       7.882  25.765  57.445  1.00  0.00     0.175 A 
HETATM    6  C   UNL     1       7.443  25.136  56.311  1.00  0.00     0.036 A 
HETATM    7  C   UNL     1       6.494  25.829  55.368  1.00  0.00     0.076 C 
HETATM    8  C   UNL     1       5.992  27.119  56.059  1.00  0.00     0.063 C 
HETATM    9  C   UNL     1       4.810  27.823  55.413  1.00  0.00     0.020 C 
HETATM   10  N   UNL     1       3.829  28.406  54.878  1.00  0.00    -0.096 N 
HETATM   11  C   UNL     1       6.508  27.615  57.217  1.00  0.00     0.139 C 
HETATM   12  O   UNL     1       7.535  26.956  57.912  1.00  0.00    -0.279 OA
ENDROOT
BRANCH   7  13
HETATM   13  C   UNL     1       7.175  25.985  53.957  1.00  0.00     0.003 C 
HETATM   14  C   UNL     1       7.604  27.420  53.598  1.00  0.00     0.032 C 
HETATM   15  C   UNL     1       6.618  28.172  52.763  1.00  0.00    -0.030 C 
HETATM   16  C   UNL     1       5.639  27.584  52.066  1.00  0.00    -0.031 C 
HETATM   17  C   UNL     1       5.408  26.107  52.031  1.00  0.00     0.027 C 
HETATM   18  C   UNL     1       6.440  25.280  52.797  1.00  0.00     0.009 C 
ENDBRANCH   7  13
BRANCH  11  19
HETATM   19  N   UNL     1       6.093  28.763  57.850  1.00  0.00    -0.282 NA
HETATM   20  H   UNL     1       6.775  29.212  58.456  1.00  0.00     0.126 HD
HETATM   21  H   UNL     1       5.635  29.410  57.213  1.00  0.00     0.126 HD
ENDBRANCH  11  19
BRANCH   1  22
HETATM   22  C   UNL     1       8.007  22.804  55.325  1.00  0.00    -0.005 A 
HETATM   23  C   UNL     1       8.343  23.030  53.984  1.00  0.00     0.014 A 
HETATM   24  C   UNL     1       8.296  21.984  53.059  1.00  0.00     0.001 A 
HETATM   25  C   UNL     1       7.914  20.708  53.468  1.00  0.00     0.000 A 
HETATM   26  C   UNL     1       7.567  20.475  54.798  1.00  0.00     0.001 A 
HETATM   27  C   UNL     1       7.608  21.521  55.723  1.00  0.00     0.014 A 
ENDBRANCH   1  22
TORSDOF 3
ENDMDL
MODEL 2
REMARK VINA RESULT:      -8.5      2.855      4.493
REMARK  3 active torsions:
REMARK  status: ('A' for Active; 'I' for Inactive)
REMARK    1  A    between atoms: C_4  and  C_5 
REMARK    2  A    between atoms: C_11  and  C_12 
REMARK    3  A    between atoms: C_21  and  N_22 
ROOT
HETATM    1  C   UNL     1       6.325  27.207  54.039  1.00  0.00     0.098 A 
HETATM    2  N   UNL     1       6.896  27.851  55.074  1.00  0.00    -0.172 NA
HETATM    3  N   UNL     1       6.254  29.034  55.133  1.00  0.00    -0.256 N 
HETATM    4  H   UNL     1       6.516  29.698  55.853  1.00  0.00     0.191 HD
HETATM    5  C   UNL     1       5.310  29.170  54.171  1.00  0.00     0.175 A 
HETATM    6  C   UNL     1       5.339  28.025  53.421  1.00  0.00     0.036 A 
HETATM    7  C   UNL     1       4.461  27.882  52.204  1.00  0.00     0.076 C 
HETATM    8  C   UNL     1       3.461  29.063  52.196  1.00  0.00     0.063 C 
HETATM    9  C   UNL     1       2.299  28.965  51.222  1.00  0.00     0.020 C 
HETATM   10  N   UNL     1       1.334  28.884  50.414  1.00  0.00    -0.096 N 
HETATM   11  C   UNL     1       3.538  30.134  53.033  1.00  0.00     0.139 C 
HETATM   12  O   UNL     1       4.533  30.233  54.019  1.00  0.00    -0.279 OA
ENDROOT
BRANCH   7  13
HETATM   13  C   UNL     1       5.362  27.691  50.926  1.00  0.00     0.003 C 
HETATM   14  C   UNL     1       5.607  28.972  50.107  1.00  0.00     0.032 C 
HETATM   15  C   UNL     1       4.686  29.150  48.943  1.00  0.00    -0.030 C 
HETATM   16  C   UNL     1       3.968  28.154  48.410  1.00  0.00    -0.031 C 
HETATM   17  C   UNL     1       3.996  26.744  48.906  1.00  0.00     0.027 C 
HETATM   18  C   UNL     1       4.987  26.485  50.040  1.00  0.00     0.009 C 
ENDBRANCH   7  13
BRANCH  11  19
HETATM   19  N   UNL     1       2.674  31.203  53.044  1.00  0.00    -0.282 NA
HETATM   20  H   UNL     1       2.696  31.805  52.225  1.00  0.00     0.126 HD
HETATM   21  H   UNL     1       1.732  30.934  53.317  1.00  0.00     0.126 HD
ENDBRANCH  11  19
BRANCH   1  22
HETATM   22  C   UNL     1       6.768  25.872  53.646  1.00  0.00    -0.005 A 
HETATM   23  C   UNL     1       7.572  25.689  52.514  1.00  0.00     0.014 A 
HETATM   24  C   UNL     1       8.035  24.414  52.176  1.00  0.00     0.001 A 
HETATM   25  C   UNL     1       7.697  23.318  52.966  1.00  0.00     0.000 A 
HETATM   26  C   UNL     1       6.888  23.489  54.089  1.00  0.00     0.001 A 
HETATM   27  C   UNL     1       6.420  24.761  54.425  1.00  0.00     0.014 A 
ENDBRANCH   1  22
TORSDOF 3
ENDMDL
MODEL 3
REMARK VINA RESULT:      -8.5      2.222      5.369
REMARK  3 active torsions:
REMARK  status: ('A' for Active; 'I' for Inactive)
REMARK    1  A    between atoms: C_4  and  C_5 
REMARK    2  A    between atoms: C_11  and  C_12 
REMARK    3  A    between atoms: C_21  and  N_22 
ROOT
HETATM    1  C   UNL     1       7.684  26.429  57.399  1.00  0.00     0.098 A 
HETATM    2  N   UNL     1       8.014  25.763  58.521  1.00  0.00    -0.172 NA
HETATM    3  N   UNL     1       8.339  24.526  58.099  1.00  0.00    -0.256 N 
HETATM    4  H   UNL     1       8.631  23.836  58.783  1.00  0.00     0.191 HD
HETATM    5  C   UNL     1       8.216  24.378  56.758  1.00  0.00     0.175 A 
HETATM    6  C   UNL     1       7.768  25.574  56.265  1.00  0.00     0.036 A 
HETATM    7  C   UNL     1       7.443  25.727  54.802  1.00  0.00     0.076 C 
HETATM    8  C   UNL     1       7.951  24.464  54.065  1.00  0.00     0.063 C 
HETATM    9  C   UNL     1       7.988  24.529  52.547  1.00  0.00     0.020 C 
HETATM   10  N   UNL     1       8.020  24.583  51.288  1.00  0.00    -0.096 N 
HETATM   11  C   UNL     1       8.403  23.345  54.693  1.00  0.00     0.139 C 
HETATM   12  O   UNL     1       8.484  23.263  56.093  1.00  0.00    -0.279 OA
ENDROOT
BRANCH   7  13
HETATM   13  C   UNL     1       5.921  26.095  54.637  1.00  0.00     0.003 C 
HETATM   14  C   UNL     1       5.021  24.939  54.161  1.00  0.00     0.032 C 
HETATM   15  C   UNL     1       4.765  24.918  52.688  1.00  0.00    -0.030 C 
HETATM   16  C   UNL     1       4.959  25.974  51.889  1.00  0.00    -0.031 C 
HETATM   17  C   UNL     1       5.451  27.303  52.364  1.00  0.00     0.027 C 
HETATM   18  C   UNL     1       5.647  27.409  53.876  1.00  0.00     0.009 C 
ENDBRANCH   7  13
BRANCH  11  19
HETATM   19  N   UNL     1       8.850  22.204  54.069  1.00  0.00    -0.282 NA
HETATM   20  H   UNL     1       8.347  21.926  53.231  1.00  0.00     0.126 HD
HETATM   21  H   UNL     1       9.860  22.201  53.950  1.00  0.00     0.126 HD
ENDBRANCH  11  19
BRANCH   1  22
HETATM   22  C   UNL     1       7.256  27.824  57.449  1.00  0.00    -0.005 A 
HETATM   23  C   UNL     1       5.901  28.162  57.341  1.00  0.00     0.014 A 
HETATM   24  C   UNL     1       5.497  29.495  57.444  1.00  0.00     0.001 A 
HETATM   25  C   UNL     1       6.442  30.497  57.654  1.00  0.00     0.000 A 
HETATM   26  C   UNL     1       7.795  30.172  57.751  1.00  0.00     0.001 A 
HETATM   27  C   UNL     1       8.201  28.840  57.644  1.00  0.00     0.014 A 
ENDBRANCH   1  22
TORSDOF 3
ENDMDL
MODEL 4
REMARK VINA RESULT:      -8.4      9.633     12.413
REMARK  3 active torsions:
REMARK  status: ('A' for Active; 'I' for Inactive)
REMARK    1  A    between atoms: C_4  and  C_5 
REMARK    2  A    between atoms: C_11  and  C_12 
REMARK    3  A    between atoms: C_21  and  N_22 
ROOT
HETATM    1  C   UNL     1       6.181  33.067  60.956  1.00  0.00     0.098 A 
HETATM    2  N   UNL     1       5.488  32.823  59.828  1.00  0.00    -0.172 NA
HETATM    3  N   UNL     1       4.437  33.663  59.886  1.00  0.00    -0.256 N 
HETATM    4  H   UNL     1       3.767  33.662  59.126  1.00  0.00     0.191 HD
HETATM    5  C   UNL     1       4.429  34.419  61.011  1.00  0.00     0.175 A 
HETATM    6  C   UNL     1       5.522  34.049  61.748  1.00  0.00     0.036 A 
HETATM    7  C   UNL     1       5.766  34.644  63.110  1.00  0.00     0.076 C 
HETATM    8  C   UNL     1       4.775  35.817  63.303  1.00  0.00     0.063 C 
HETATM    9  C   UNL     1       5.033  36.741  64.482  1.00  0.00     0.020 C 
HETATM   10  N   UNL     1       5.248  37.508  65.459  1.00  0.00    -0.096 N 
HETATM   11  C   UNL     1       3.740  36.088  62.461  1.00  0.00     0.139 C 
HETATM   12  O   UNL     1       3.510  35.329  61.302  1.00  0.00    -0.279 OA
ENDROOT
BRANCH   7  13
HETATM   13  C   UNL     1       5.749  33.501  64.193  1.00  0.00     0.003 C 
HETATM   14  C   UNL     1       4.451  33.404  65.016  1.00  0.00     0.032 C 
HETATM   15  C   UNL     1       4.498  34.107  66.335  1.00  0.00    -0.030 C 
HETATM   16  C   UNL     1       5.636  34.468  66.940  1.00  0.00    -0.031 C 
HETATM   17  C   UNL     1       6.998  34.213  66.379  1.00  0.00     0.027 C 
HETATM   18  C   UNL     1       7.014  33.420  65.073  1.00  0.00     0.009 C 
ENDBRANCH   7  13
BRANCH  11  19
HETATM   19  N   UNL     1       2.837  37.115  62.610  1.00  0.00    -0.282 NA
HETATM   20  H   UNL     1       1.858  36.846  62.652  1.00  0.00     0.126 HD
HETATM   21  H   UNL     1       3.107  37.761  63.347  1.00  0.00     0.126 HD
ENDBRANCH  11  19
BRANCH   1  22
HETATM   22  C   UNL     1       7.403  32.331  61.265  1.00  0.00    -0.005 A 
HETATM   23  C   UNL     1       7.396  31.295  62.207  1.00  0.00     0.014 A 
HETATM   24  C   UNL     1       8.559  30.560  62.456  1.00  0.00     0.001 A 
HETATM   25  C   UNL     1       9.732  30.856  61.766  1.00  0.00     0.000 A 
HETATM   26  C   UNL     1       9.752  31.893  60.834  1.00  0.00     0.001 A 
HETATM   27  C   UNL     1       8.592  32.631  60.587  1.00  0.00     0.014 A 
ENDBRANCH   1  22
TORSDOF 3
ENDMDL
MODEL 5
REMARK VINA RESULT:      -8.3     10.379     12.495
REMARK  3 active torsions:
REMARK  status: ('A' for Active; 'I' for Inactive)
REMARK    1  A    between atoms: C_4  and  C_5 
REMARK    2  A    between atoms: C_11  and  C_12 
REMARK    3  A    between atoms: C_21  and  N_22 
ROOT
HETATM    1  C   UNL     1       4.558  32.665  62.475  1.00  0.00     0.098 A 
HETATM    2  N   UNL     1       3.933  31.473  62.449  1.00  0.00    -0.172 NA
HETATM    3  N   UNL     1       3.185  31.506  61.329  1.00  0.00    -0.256 N 
HETATM    4  H   UNL     1       2.620  30.698  61.094  1.00  0.00     0.191 HD
HETATM    5  C   UNL     1       3.301  32.675  60.652  1.00  0.00     0.175 A 
HETATM    6  C   UNL     1       4.157  33.467  61.370  1.00  0.00     0.036 A 
HETATM    7  C   UNL     1       4.441  34.881  60.934  1.00  0.00     0.076 C 
HETATM    8  C   UNL     1       3.839  35.075  59.522  1.00  0.00     0.063 C 
HETATM    9  C   UNL     1       4.254  36.329  58.770  1.00  0.00     0.020 C 
HETATM   10  N   UNL     1       4.599  37.369  58.146  1.00  0.00    -0.096 N 
HETATM   11  C   UNL     1       3.018  34.177  58.912  1.00  0.00     0.139 C 
HETATM   12  O   UNL     1       2.678  32.955  59.516  1.00  0.00    -0.279 OA
ENDROOT
BRANCH   7  13
HETATM   13  C   UNL     1       3.978  35.881  62.059  1.00  0.00     0.003 C 
HETATM   14  C   UNL     1       2.927  36.916  61.615  1.00  0.00     0.032 C 
HETATM   15  C   UNL     1       3.491  38.244  61.222  1.00  0.00    -0.030 C 
HETATM   16  C   UNL     1       4.718  38.655  61.561  1.00  0.00    -0.031 C 
HETATM   17  C   UNL     1       5.677  37.846  62.374  1.00  0.00     0.027 C 
HETATM   18  C   UNL     1       5.122  36.514  62.878  1.00  0.00     0.009 C 
ENDBRANCH   7  13
BRANCH  11  19
HETATM   19  N   UNL     1       2.459  34.324  57.665  1.00  0.00    -0.282 NA
HETATM   20  H   UNL     1       2.987  33.936  56.888  1.00  0.00     0.126 HD
HETATM   21  H   UNL     1       1.476  34.063  57.650  1.00  0.00     0.126 HD
ENDBRANCH  11  19
BRANCH   1  22
HETATM   22  C   UNL     1       5.466  33.016  63.563  1.00  0.00    -0.005 A 
HETATM   23  C   UNL     1       6.854  32.934  63.394  1.00  0.00     0.014 A 
HETATM   24  C   UNL     1       7.714  33.324  64.423  1.00  0.00     0.001 A 
HETATM   25  C   UNL     1       7.194  33.797  65.626  1.00  0.00     0.000 A 
HETATM   26  C   UNL     1       5.813  33.873  65.808  1.00  0.00     0.001 A 
HETATM   27  C   UNL     1       4.952  33.479  64.782  1.00  0.00     0.014 A 
ENDBRANCH   1  22
TORSDOF 3
ENDMDL
MODEL 6
REMARK VINA RESULT:      -8.3      2.878      6.389
REMARK  3 active torsions:
REMARK  status: ('A' for Active; 'I' for Inactive)
REMARK    1  A    between atoms: C_4  and  C_5 
REMARK    2  A    between atoms: C_11  and  C_12 
REMARK    3  A    between atoms: C_21  and  N_22 
ROOT
HETATM    1  C   UNL     1       3.795  28.572  50.925  1.00  0.00     0.098 A 
HETATM    2  N   UNL     1       2.654  29.283  50.985  1.00  0.00    -0.172 NA
HETATM    3  N   UNL     1       2.496  29.562  52.293  1.00  0.00    -0.256 N 
HETATM    4  H   UNL     1       1.692  30.105  52.584  1.00  0.00     0.191 HD
HETATM    5  C   UNL     1       3.484  29.046  53.065  1.00  0.00     0.175 A 
HETATM    6  C   UNL     1       4.332  28.372  52.227  1.00  0.00     0.036 A 
HETATM    7  C   UNL     1       5.504  27.603  52.779  1.00  0.00     0.076 C 
HETATM    8  C   UNL     1       5.647  27.961  54.278  1.00  0.00     0.063 C 
HETATM    9  C   UNL     1       6.931  27.525  54.963  1.00  0.00     0.020 C 
HETATM   10  N   UNL     1       7.997  27.164  55.532  1.00  0.00    -0.096 N 
HETATM   11  C   UNL     1       4.727  28.674  54.983  1.00  0.00     0.139 C 
HETATM   12  O   UNL     1       3.567  29.187  54.380  1.00  0.00    -0.279 OA
ENDROOT
BRANCH   7  13
HETATM   13  C   UNL     1       5.351  26.079  52.413  1.00  0.00     0.003 C 
HETATM   14  C   UNL     1       5.076  25.148  53.609  1.00  0.00     0.032 C 
HETATM   15  C   UNL     1       6.291  24.482  54.170  1.00  0.00    -0.030 C 
HETATM   16  C   UNL     1       7.449  24.377  53.507  1.00  0.00    -0.031 C 
HETATM   17  C   UNL     1       7.673  24.908  52.127  1.00  0.00     0.027 C 
HETATM   18  C   UNL     1       6.439  25.523  51.470  1.00  0.00     0.009 C 
ENDBRANCH   7  13
BRANCH  11  19
HETATM   19  N   UNL     1       4.818  28.999  56.316  1.00  0.00    -0.282 NA
HETATM   20  H   UNL     1       4.146  28.551  56.933  1.00  0.00     0.126 HD
HETATM   21  H   UNL     1       5.774  28.948  56.660  1.00  0.00     0.126 HD
ENDBRANCH  11  19
BRANCH   1  22
HETATM   22  C   UNL     1       4.303  28.068  49.652  1.00  0.00    -0.005 A 
HETATM   23  C   UNL     1       5.255  28.793  48.923  1.00  0.00     0.014 A 
HETATM   24  C   UNL     1       5.774  28.276  47.733  1.00  0.00     0.001 A 
HETATM   25  C   UNL     1       5.346  27.036  47.265  1.00  0.00     0.000 A 
HETATM   26  C   UNL     1       4.391  26.312  47.978  1.00  0.00     0.001 A 
HETATM   27  C   UNL     1       3.867  26.828  49.165  1.00  0.00     0.014 A 
ENDBRANCH   1  22
TORSDOF 3
ENDMDL
MODEL 7
REMARK VINA RESULT:      -8.0     11.122     12.757
REMARK  3 active torsions:
REMARK  status: ('A' for Active; 'I' for Inactive)
REMARK    1  A    between atoms: C_4  and  C_5 
REMARK    2  A    between atoms: C_11  and  C_12 
REMARK    3  A    between atoms: C_21  and  N_22 
ROOT
HETATM    1  C   UNL     1       3.790  33.889  63.367  1.00  0.00     0.098 A 
HETATM    2  N   UNL     1       2.945  33.771  64.407  1.00  0.00    -0.172 NA
HETATM    3  N   UNL     1       1.736  34.083  63.901  1.00  0.00    -0.256 N 
HETATM    4  H   UNL     1       0.927  34.056  64.511  1.00  0.00     0.191 HD
HETATM    5  C   UNL     1       1.784  34.405  62.585  1.00  0.00     0.175 A 
HETATM    6  C   UNL     1       3.096  34.322  62.202  1.00  0.00     0.036 A 
HETATM    7  C   UNL     1       3.514  34.703  60.806  1.00  0.00     0.076 C 
HETATM    8  C   UNL     1       2.232  34.898  59.961  1.00  0.00     0.063 C 
HETATM    9  C   UNL     1       2.416  35.003  58.456  1.00  0.00     0.020 C 
HETATM   10  N   UNL     1       2.569  35.089  57.208  1.00  0.00    -0.096 N 
HETATM   11  C   UNL     1       0.974  34.928  60.480  1.00  0.00     0.139 C 
HETATM   12  O   UNL     1       0.733  34.739  61.850  1.00  0.00    -0.279 OA
ENDROOT
BRANCH   7  13
HETATM   13  C   UNL     1       4.526  35.908  60.870  1.00  0.00     0.003 C 
HETATM   14  C   UNL     1       4.586  36.635  62.226  1.00  0.00     0.032 C 
HETATM   15  C   UNL     1       3.736  37.863  62.310  1.00  0.00    -0.030 C 
HETATM   16  C   UNL     1       3.260  38.506  61.238  1.00  0.00    -0.031 C 
HETATM   17  C   UNL     1       3.516  38.084  59.826  1.00  0.00     0.027 C 
HETATM   18  C   UNL     1       4.451  36.885  59.678  1.00  0.00     0.009 C 
ENDBRANCH   7  13
BRANCH  11  19
HETATM   19  N   UNL     1      -0.183  35.110  59.759  1.00  0.00    -0.282 NA
HETATM   20  H   UNL     1      -0.819  35.824  60.106  1.00  0.00     0.126 HD
HETATM   21  H   UNL     1      -0.008  35.182  58.760  1.00  0.00     0.126 HD
ENDBRANCH  11  19
BRANCH   1  22
HETATM   22  C   UNL     1       5.220  33.639  63.525  1.00  0.00    -0.005 A 
HETATM   23  C   UNL     1       5.907  34.100  64.656  1.00  0.00     0.014 A 
HETATM   24  C   UNL     1       7.263  33.809  64.825  1.00  0.00     0.001 A 
HETATM   25  C   UNL     1       7.940  33.059  63.866  1.00  0.00     0.000 A 
HETATM   26  C   UNL     1       7.268  32.605  62.731  1.00  0.00     0.001 A 
HETATM   27  C   UNL     1       5.913  32.899  62.559  1.00  0.00     0.014 A 
ENDBRANCH   1  22
TORSDOF 3
ENDMDL
MODEL 8
REMARK VINA RESULT:      -7.8      9.045     11.566
REMARK  3 active torsions:
REMARK  status: ('A' for Active; 'I' for Inactive)
REMARK    1  A    between atoms: C_4  and  C_5 
REMARK    2  A    between atoms: C_11  and  C_12 
REMARK    3  A    between atoms: C_21  and  N_22 
ROOT
HETATM    1  C   UNL     1       5.658  32.357  59.985  1.00  0.00     0.098 A 
HETATM    2  N   UNL     1       5.095  31.506  59.107  1.00  0.00    -0.172 NA
HETATM    3  N   UNL     1       3.871  32.018  58.875  1.00  0.00    -0.256 N 
HETATM    4  H   UNL     1       3.255  31.539  58.227  1.00  0.00     0.191 HD
HETATM    5  C   UNL     1       3.631  33.150  59.580  1.00  0.00     0.175 A 
HETATM    6  C   UNL     1       4.747  33.394  60.334  1.00  0.00     0.036 A 
HETATM    7  C   UNL     1       4.781  34.544  61.306  1.00  0.00     0.076 C 
HETATM    8  C   UNL     1       3.529  35.418  61.053  1.00  0.00     0.063 C 
HETATM    9  C   UNL     1       3.505  36.784  61.721  1.00  0.00     0.020 C 
HETATM   10  N   UNL     1       3.486  37.917  62.274  1.00  0.00    -0.096 N 
HETATM   11  C   UNL     1       2.498  35.058  60.242  1.00  0.00     0.139 C 
HETATM   12  O   UNL     1       2.508  33.853  59.522  1.00  0.00    -0.279 OA
ENDROOT
BRANCH   7  13
HETATM   13  C   UNL     1       4.992  33.993  62.766  1.00  0.00     0.003 C 
HETATM   14  C   UNL     1       3.700  33.590  63.502  1.00  0.00     0.032 C 
HETATM   15  C   UNL     1       3.147  34.644  64.408  1.00  0.00    -0.030 C 
HETATM   16  C   UNL     1       3.861  35.685  64.852  1.00  0.00    -0.031 C 
HETATM   17  C   UNL     1       5.295  35.925  64.503  1.00  0.00     0.027 C 
HETATM   18  C   UNL     1       5.938  34.833  63.649  1.00  0.00     0.009 C 
ENDBRANCH   7  13
BRANCH  11  19
HETATM   19  N   UNL     1       1.369  35.807  60.004  1.00  0.00    -0.282 NA
HETATM   20  H   UNL     1       1.482  36.603  59.383  1.00  0.00     0.126 HD
HETATM   21  H   UNL     1       0.566  35.228  59.773  1.00  0.00     0.126 HD
ENDBRANCH  11  19
BRANCH   1  22
HETATM   22  C   UNL     1       7.007  32.130  60.497  1.00  0.00    -0.005 A 
HETATM   23  C   UNL     1       8.126  32.325  59.677  1.00  0.00     0.014 A 
HETATM   24  C   UNL     1       9.414  32.157  60.191  1.00  0.00     0.001 A 
HETATM   25  C   UNL     1       9.591  31.794  61.524  1.00  0.00     0.000 A 
HETATM   26  C   UNL     1       8.483  31.587  62.345  1.00  0.00     0.001 A 
HETATM   27  C   UNL     1       7.195  31.749  61.832  1.00  0.00     0.014 A 
ENDBRANCH   1  22
TORSDOF 3
ENDMDL
MODEL 9
REMARK VINA RESULT:      -7.8     12.539     13.746
REMARK  3 active torsions:
REMARK  status: ('A' for Active; 'I' for Inactive)
REMARK    1  A    between atoms: C_4  and  C_5 
REMARK    2  A    between atoms: C_11  and  C_12 
REMARK    3  A    between atoms: C_21  and  N_22 
ROOT
HETATM    1  C   UNL     1       3.442  34.288  63.514  1.00  0.00     0.098 A 
HETATM    2  N   UNL     1       2.312  33.673  63.912  1.00  0.00    -0.172 NA
HETATM    3  N   UNL     1       1.395  34.018  62.988  1.00  0.00    -0.256 N 
HETATM    4  H   UNL     1       0.451  33.661  63.079  1.00  0.00     0.191 HD
HETATM    5  C   UNL     1       1.894  34.836  62.030  1.00  0.00     0.175 A 
HETATM    6  C   UNL     1       3.208  35.062  62.343  1.00  0.00     0.036 A 
HETATM    7  C   UNL     1       4.042  36.006  61.519  1.00  0.00     0.076 C 
HETATM    8  C   UNL     1       3.236  36.370  60.249  1.00  0.00     0.063 C 
HETATM    9  C   UNL     1       3.995  37.080  59.139  1.00  0.00     0.020 C 
HETATM   10  N   UNL     1       4.625  37.667  58.219  1.00  0.00    -0.096 N 
HETATM   11  C   UNL     1       1.928  36.049  60.057  1.00  0.00     0.139 C 
HETATM   12  O   UNL     1       1.200  35.309  61.004  1.00  0.00    -0.279 OA
ENDROOT
BRANCH   7  13
HETATM   13  C   UNL     1       4.538  37.196  62.423  1.00  0.00     0.003 C 
HETATM   14  C   UNL     1       3.784  38.525  62.221  1.00  0.00     0.032 C 
HETATM   15  C   UNL     1       4.452  39.481  61.286  1.00  0.00    -0.030 C 
HETATM   16  C   UNL     1       5.742  39.397  60.939  1.00  0.00    -0.031 C 
HETATM   17  C   UNL     1       6.675  38.342  61.441  1.00  0.00     0.027 C 
HETATM   18  C   UNL     1       6.068  37.387  62.468  1.00  0.00     0.009 C 
ENDBRANCH   7  13
BRANCH  11  19
HETATM   19  N   UNL     1       1.181  36.366  58.947  1.00  0.00    -0.282 NA
HETATM   20  H   UNL     1       0.928  37.345  58.842  1.00  0.00     0.126 HD
HETATM   21  H   UNL     1       1.562  35.957  58.097  1.00  0.00     0.126 HD
ENDBRANCH  11  19
BRANCH   1  22
HETATM   22  C   UNL     1       4.679  34.162  64.281  1.00  0.00    -0.005 A 
HETATM   23  C   UNL     1       4.681  34.340  65.670  1.00  0.00     0.014 A 
HETATM   24  C   UNL     1       5.859  34.164  66.401  1.00  0.00     0.001 A 
HETATM   25  C   UNL     1       7.039  33.811  65.750  1.00  0.00     0.000 A 
HETATM   26  C   UNL     1       7.048  33.641  64.365  1.00  0.00     0.001 A 
HETATM   27  C   UNL     1       5.873  33.821  63.632  1.00  0.00     0.014 A 
ENDBRANCH   1  22
TORSDOF 3
ENDMDL
MODEL 10
REMARK VINA RESULT:      -7.7      2.459      6.254
REMARK  3 active torsions:
REMARK  status: ('A' for Active; 'I' for Inactive)
REMARK    1  A    between atoms: C_4  and  C_5 
REMARK    2  A    between atoms: C_11  and  C_12 
REMARK    3  A    between atoms: C_21  and  N_22 
ROOT
HETATM    1  C   UNL     1       4.061  29.521  52.323  1.00  0.00     0.098 A 
HETATM    2  N   UNL     1       3.080  30.401  52.598  1.00  0.00    -0.172 NA
HETATM    3  N   UNL     1       3.004  30.416  53.943  1.00  0.00    -0.256 N 
HETATM    4  H   UNL     1       2.325  31.023  54.388  1.00  0.00     0.191 HD
HETATM    5  C   UNL     1       3.887  29.572  54.530  1.00  0.00     0.175 A 
HETATM    6  C   UNL     1       4.573  28.950  53.522  1.00  0.00     0.036 A 
HETATM    7  C   UNL     1       5.584  27.876  53.831  1.00  0.00     0.076 C 
HETATM    8  C   UNL     1       5.821  27.870  55.360  1.00  0.00     0.063 C 
HETATM    9  C   UNL     1       7.010  27.067  55.862  1.00  0.00     0.020 C 
HETATM   10  N   UNL     1       7.997  26.402  56.279  1.00  0.00    -0.096 N 
HETATM   11  C   UNL     1       5.071  28.573  56.251  1.00  0.00     0.139 C 
HETATM   12  O   UNL     1       4.020  29.409  55.839  1.00  0.00    -0.279 OA
ENDROOT
BRANCH   7  13
HETATM   13  C   UNL     1       5.132  26.522  53.166  1.00  0.00     0.003 C 
HETATM   14  C   UNL     1       5.054  25.321  54.127  1.00  0.00     0.032 C 
HETATM   15  C   UNL     1       6.270  24.451  54.134  1.00  0.00    -0.030 C 
HETATM   16  C   UNL     1       7.188  24.457  53.160  1.00  0.00    -0.031 C 
HETATM   17  C   UNL     1       7.114  25.327  51.946  1.00  0.00     0.027 C 
HETATM   18  C   UNL     1       5.848  26.175  51.843  1.00  0.00     0.009 C 
ENDBRANCH   7  13
BRANCH  11  19
HETATM   19  N   UNL     1       5.248  28.580  57.615  1.00  0.00    -0.282 NA
HETATM   20  H   UNL     1       5.981  27.974  57.974  1.00  0.00     0.126 HD
HETATM   21  H   UNL     1       5.287  29.523  57.993  1.00  0.00     0.126 HD
ENDBRANCH  11  19
BRANCH   1  22
HETATM   22  C   UNL     1       4.437  29.218  50.946  1.00  0.00    -0.005 A 
HETATM   23  C   UNL     1       5.664  29.650  50.427  1.00  0.00     0.014 A 
HETATM   24  C   UNL     1       6.039  29.309  49.125  1.00  0.00     0.001 A 
HETATM   25  C   UNL     1       5.191  28.536  48.335  1.00  0.00     0.000 A 
HETATM   26  C   UNL     1       3.962  28.110  48.839  1.00  0.00     0.001 A 
HETATM   27  C   UNL     1       3.584  28.454  50.138  1.00  0.00     0.014 A 
ENDBRANCH   1  22
TORSDOF 3
ENDMDL
