MODEL 1
REMARK VINA RESULT:     -10.2      0.000      0.000
REMARK  7 active torsions:
REMARK  status: ('A' for Active; 'I' for Inactive)
REMARK    1  A    between atoms: C_2  and  C_3 
REMARK    2  A    between atoms: C_6  and  C_7 
REMARK    3  A    between atoms: N_8  and  N_9 
REMARK    4  A    between atoms: C_20  and  C_21 
REMARK       I    between atoms: C_21  and  N_22 
REMARK    5  A    between atoms: N_22  and  C_23 
REMARK    6  A    between atoms: C_23  and  C_24 
REMARK    7  A    between atoms: C_30  and  N_31 
ROOT
HETATM    1  N   UNL     1       7.686  28.996  56.959  1.00  0.00    -0.202 N 
HETATM    2  C   UNL     1       7.780  29.842  58.049  1.00  0.00     0.183 A 
HETATM    3  C   UNL     1       6.798  30.813  57.901  1.00  0.00     0.124 A 
HETATM    4  N   UNL     1       6.548  31.702  58.895  1.00  0.00    -0.242 NA
HETATM    5  C   UNL     1       7.332  31.587  59.977  1.00  0.00     0.086 A 
HETATM    6  C   UNL     1       8.355  30.611  60.083  1.00  0.00     0.088 A 
HETATM    7  N   UNL     1       8.594  29.703  59.123  1.00  0.00    -0.225 NA
HETATM    8  C   UNL     1       7.120  32.456  61.040  1.00  0.00     0.034 A 
HETATM    9  C   UNL     1       7.898  32.398  62.198  1.00  0.00     0.002 A 
HETATM   10  C   UNL     1       8.914  31.458  62.292  1.00  0.00     0.002 A 
HETATM   11  C   UNL     1       9.131  30.574  61.234  1.00  0.00     0.034 A 
HETATM   12  C   UNL     1       6.153  30.609  56.647  1.00  0.00     0.104 C 
HETATM   13  C   UNL     1       6.851  29.586  56.017  1.00  0.00     0.123 C 
ENDROOT
BRANCH   1  14
HETATM   14  N   UNL     1       8.163  27.711  56.800  1.00  0.00    -0.176 NA
HETATM   15  C   UNL     1       7.227  26.827  56.955  1.00  0.00     0.150 C 
BRANCH  15  16
HETATM   16  C   UNL     1       7.409  25.400  56.650  1.00  0.00    -0.017 A 
HETATM   17  C   UNL     1       8.233  24.575  57.411  1.00  0.00     0.013 A 
HETATM   18  C   UNL     1       8.465  23.258  56.997  1.00  0.00     0.009 A 
HETATM   19  C   UNL     1       7.891  22.748  55.815  1.00  0.00    -0.051 A 
HETATM   20  C   UNL     1       7.052  23.605  55.077  1.00  0.00     0.009 A 
HETATM   21  C   UNL     1       6.805  24.913  55.491  1.00  0.00     0.013 A 
BRANCH  19  22
HETATM   22  C   UNL     1       8.176  21.330  55.288  1.00  0.00    -0.024 C 
HETATM   23  C   UNL     1       7.884  21.155  53.783  1.00  0.00     0.019 C 
HETATM   24  C   UNL     1       7.290  20.322  56.052  1.00  0.00     0.019 C 
HETATM   25  C   UNL     1       9.661  20.970  55.511  1.00  0.00     0.019 C 
ENDBRANCH  19  22
ENDBRANCH  15  16
ENDBRANCH   1  14
BRANCH  13  26
HETATM   26  N   UNL     1       6.722  29.040  54.769  1.00  0.00    -0.286 NA
HETATM   27  H   UNL     1       7.533  28.494  54.455  1.00  0.00     0.125 HD
HETATM   28  H   UNL     1       6.412  29.659  54.018  1.00  0.00     0.125 HD
ENDBRANCH  13  26
BRANCH  12  29
HETATM   29  C   UNL     1       4.941  31.270  56.178  1.00  0.00     0.257 C 
HETATM   30  N   UNL     1       4.176  31.830  57.185  1.00  0.00    -0.354 N 
HETATM   31  H   UNL     1       4.596  31.793  58.111  1.00  0.00     0.162 HD
HETATM   32  O   UNL     1       4.675  31.407  54.992  1.00  0.00    -0.267 OA
BRANCH  30  33
HETATM   33  C   UNL     1       3.259  32.927  56.938  1.00  0.00     0.155 C 
BRANCH  33  34
HETATM   34  C   UNL     1       3.099  33.934  58.081  1.00  0.00     0.139 C 
HETATM   35  O   UNL     1       2.681  33.219  59.270  1.00  0.00    -0.384 OA
HETATM   36  C   UNL     1       3.509  33.629  60.366  1.00  0.00     0.168 C 
HETATM   37  C   UNL     1       4.171  34.917  59.941  1.00  0.00     0.029 C 
HETATM   38  C   UNL     1       4.365  34.685  58.465  1.00  0.00     0.035 C 
ENDBRANCH  33  34
ENDBRANCH  30  33
ENDBRANCH  12  29
TORSDOF 7
ENDMDL
MODEL 2
REMARK VINA RESULT:     -10.1      1.719      3.387
REMARK  7 active torsions:
REMARK  status: ('A' for Active; 'I' for Inactive)
REMARK    1  A    between atoms: C_2  and  C_3 
REMARK    2  A    between atoms: C_6  and  C_7 
REMARK    3  A    between atoms: N_8  and  N_9 
REMARK    4  A    between atoms: C_20  and  C_21 
REMARK       I    between atoms: C_21  and  N_22 
REMARK    5  A    between atoms: N_22  and  C_23 
REMARK    6  A    between atoms: C_23  and  C_24 
REMARK    7  A    between atoms: C_30  and  N_31 
ROOT
HETATM    1  N   UNL     1       7.656  28.980  56.955  1.00  0.00    -0.202 N 
HETATM    2  C   UNL     1       7.733  29.843  58.033  1.00  0.00     0.183 A 
HETATM    3  C   UNL     1       6.730  30.792  57.872  1.00  0.00     0.124 A 
HETATM    4  N   UNL     1       6.461  31.689  58.854  1.00  0.00    -0.242 NA
HETATM    5  C   UNL     1       7.247  31.605  59.937  1.00  0.00     0.086 A 
HETATM    6  C   UNL     1       8.291  30.653  60.056  1.00  0.00     0.088 A 
HETATM    7  N   UNL     1       8.549  29.737  59.109  1.00  0.00    -0.225 NA
HETATM    8  C   UNL     1       7.018  32.484  60.988  1.00  0.00     0.034 A 
HETATM    9  C   UNL     1       7.797  32.459  62.146  1.00  0.00     0.002 A 
HETATM   10  C   UNL     1       8.832  31.542  62.253  1.00  0.00     0.002 A 
HETATM   11  C   UNL     1       9.068  30.648  61.208  1.00  0.00     0.034 A 
HETATM   12  C   UNL     1       6.089  30.556  56.621  1.00  0.00     0.104 C 
HETATM   13  C   UNL     1       6.808  29.540  56.005  1.00  0.00     0.123 C 
ENDROOT
BRANCH   1  14
HETATM   14  N   UNL     1       8.160  27.704  56.814  1.00  0.00    -0.176 NA
HETATM   15  C   UNL     1       7.243  26.803  56.980  1.00  0.00     0.150 C 
BRANCH  15  16
HETATM   16  C   UNL     1       7.455  25.376  56.694  1.00  0.00    -0.017 A 
HETATM   17  C   UNL     1       8.432  24.625  57.340  1.00  0.00     0.013 A 
HETATM   18  C   UNL     1       8.671  23.306  56.935  1.00  0.00     0.009 A 
HETATM   19  C   UNL     1       7.950  22.721  55.874  1.00  0.00    -0.051 A 
HETATM   20  C   UNL     1       6.959  23.505  55.252  1.00  0.00     0.009 A 
HETATM   21  C   UNL     1       6.707  24.814  55.660  1.00  0.00     0.013 A 
BRANCH  19  22
HETATM   22  C   UNL     1       8.228  21.300  55.354  1.00  0.00    -0.024 C 
HETATM   23  C   UNL     1       9.654  20.793  55.661  1.00  0.00     0.019 C 
HETATM   24  C   UNL     1       8.051  21.282  53.820  1.00  0.00     0.019 C 
HETATM   25  C   UNL     1       7.240  20.299  55.991  1.00  0.00     0.019 C 
ENDBRANCH  19  22
ENDBRANCH  15  16
ENDBRANCH   1  14
BRANCH  13  26
HETATM   26  N   UNL     1       6.691  28.974  54.765  1.00  0.00    -0.286 NA
HETATM   27  H   UNL     1       6.522  29.643  54.004  1.00  0.00     0.125 HD
HETATM   28  H   UNL     1       6.056  28.180  54.673  1.00  0.00     0.125 HD
ENDBRANCH  13  26
BRANCH  12  29
HETATM   29  C   UNL     1       4.864  31.185  56.144  1.00  0.00     0.257 C 
HETATM   30  N   UNL     1       4.856  31.452  54.788  1.00  0.00    -0.354 N 
HETATM   31  H   UNL     1       5.660  31.095  54.277  1.00  0.00     0.162 HD
HETATM   32  O   UNL     1       3.888  31.368  56.860  1.00  0.00    -0.267 OA
BRANCH  30  33
HETATM   33  C   UNL     1       3.622  31.581  54.034  1.00  0.00     0.155 C 
BRANCH  33  34
HETATM   34  C   UNL     1       3.435  30.588  52.883  1.00  0.00     0.139 C 
HETATM   35  O   UNL     1       4.492  30.800  51.914  1.00  0.00    -0.384 OA
HETATM   36  C   UNL     1       5.071  29.532  51.583  1.00  0.00     0.168 C 
HETATM   37  C   UNL     1       4.088  28.482  52.037  1.00  0.00     0.029 C 
HETATM   38  C   UNL     1       3.514  29.120  53.276  1.00  0.00     0.035 C 
ENDBRANCH  33  34
ENDBRANCH  30  33
ENDBRANCH  12  29
TORSDOF 7
ENDMDL
MODEL 3
REMARK VINA RESULT:     -10.0      4.267      9.476
REMARK  7 active torsions:
REMARK  status: ('A' for Active; 'I' for Inactive)
REMARK    1  A    between atoms: C_2  and  C_3 
REMARK    2  A    between atoms: C_6  and  C_7 
REMARK    3  A    between atoms: N_8  and  N_9 
REMARK    4  A    between atoms: C_20  and  C_21 
REMARK       I    between atoms: C_21  and  N_22 
REMARK    5  A    between atoms: N_22  and  C_23 
REMARK    6  A    between atoms: C_23  and  C_24 
REMARK    7  A    between atoms: C_30  and  N_31 
ROOT
HETATM    1  N   UNL     1       5.381  27.331  54.804  1.00  0.00    -0.202 N 
HETATM    2  C   UNL     1       5.852  26.071  54.482  1.00  0.00     0.183 A 
HETATM    3  C   UNL     1       5.908  25.995  53.096  1.00  0.00     0.124 A 
HETATM    4  N   UNL     1       6.474  24.924  52.484  1.00  0.00    -0.242 NA
HETATM    5  C   UNL     1       6.923  23.965  53.306  1.00  0.00     0.086 A 
HETATM    6  C   UNL     1       6.815  24.052  54.718  1.00  0.00     0.088 A 
HETATM    7  N   UNL     1       6.288  25.118  55.341  1.00  0.00    -0.225 NA
HETATM    8  C   UNL     1       7.529  22.847  52.747  1.00  0.00     0.034 A 
HETATM    9  C   UNL     1       8.018  21.807  53.539  1.00  0.00     0.002 A 
HETATM   10  C   UNL     1       7.892  21.882  54.919  1.00  0.00     0.002 A 
HETATM   11  C   UNL     1       7.293  23.004  55.494  1.00  0.00     0.034 A 
HETATM   12  C   UNL     1       5.370  27.201  52.560  1.00  0.00     0.104 C 
HETATM   13  C   UNL     1       4.892  27.925  53.645  1.00  0.00     0.123 C 
ENDROOT
BRANCH   1  14
HETATM   14  N   UNL     1       5.476  28.028  55.990  1.00  0.00    -0.176 NA
HETATM   15  C   UNL     1       6.688  28.427  56.219  1.00  0.00     0.150 C 
BRANCH  15  16
HETATM   16  C   UNL     1       7.039  29.355  57.305  1.00  0.00    -0.017 A 
HETATM   17  C   UNL     1       8.188  29.199  58.074  1.00  0.00     0.013 A 
HETATM   18  C   UNL     1       8.403  30.039  59.174  1.00  0.00     0.009 A 
HETATM   19  C   UNL     1       7.473  31.035  59.531  1.00  0.00    -0.051 A 
HETATM   20  C   UNL     1       6.328  31.175  58.722  1.00  0.00     0.009 A 
HETATM   21  C   UNL     1       6.115  30.351  57.617  1.00  0.00     0.013 A 
BRANCH  19  22
HETATM   22  C   UNL     1       7.637  31.931  60.771  1.00  0.00    -0.024 C 
HETATM   23  C   UNL     1       7.609  31.157  62.106  1.00  0.00     0.019 C 
HETATM   24  C   UNL     1       6.484  32.958  60.806  1.00  0.00     0.019 C 
HETATM   25  C   UNL     1       8.984  32.683  60.706  1.00  0.00     0.019 C 
ENDBRANCH  19  22
ENDBRANCH  15  16
ENDBRANCH   1  14
BRANCH  13  26
HETATM   26  N   UNL     1       4.209  29.109  53.710  1.00  0.00    -0.286 NA
HETATM   27  H   UNL     1       3.187  29.013  53.707  1.00  0.00     0.125 HD
HETATM   28  H   UNL     1       4.488  29.845  53.061  1.00  0.00     0.125 HD
ENDBRANCH  13  26
BRANCH  12  29
HETATM   29  C   UNL     1       5.417  27.625  51.167  1.00  0.00     0.257 C 
HETATM   30  N   UNL     1       5.385  26.585  50.256  1.00  0.00    -0.354 N 
HETATM   31  H   UNL     1       5.240  25.664  50.664  1.00  0.00     0.162 HD
HETATM   32  O   UNL     1       5.384  28.801  50.828  1.00  0.00    -0.267 OA
BRANCH  30  33
HETATM   33  C   UNL     1       4.916  26.765  48.895  1.00  0.00     0.155 C 
BRANCH  33  34
HETATM   34  C   UNL     1       3.398  26.859  48.717  1.00  0.00     0.139 C 
HETATM   35  O   UNL     1       3.056  28.228  48.386  1.00  0.00    -0.384 OA
HETATM   36  C   UNL     1       2.179  28.220  47.252  1.00  0.00     0.168 C 
HETATM   37  C   UNL     1       1.641  26.814  47.139  1.00  0.00     0.029 C 
HETATM   38  C   UNL     1       2.823  26.000  47.600  1.00  0.00     0.035 C 
ENDBRANCH  33  34
ENDBRANCH  30  33
ENDBRANCH  12  29
TORSDOF 7
ENDMDL
MODEL 4
REMARK VINA RESULT:      -9.9      4.855      8.765
REMARK  7 active torsions:
REMARK  status: ('A' for Active; 'I' for Inactive)
REMARK    1  A    between atoms: C_2  and  C_3 
REMARK    2  A    between atoms: C_6  and  C_7 
REMARK    3  A    between atoms: N_8  and  N_9 
REMARK    4  A    between atoms: C_20  and  C_21 
REMARK       I    between atoms: C_21  and  N_22 
REMARK    5  A    between atoms: N_22  and  C_23 
REMARK    6  A    between atoms: C_23  and  C_24 
REMARK    7  A    between atoms: C_30  and  N_31 
ROOT
HETATM    1  N   UNL     1       7.336  26.268  53.216  1.00  0.00    -0.202 N 
HETATM    2  C   UNL     1       7.639  24.982  53.623  1.00  0.00     0.183 A 
HETATM    3  C   UNL     1       7.751  25.004  55.008  1.00  0.00     0.124 A 
HETATM    4  N   UNL     1       7.897  23.852  55.709  1.00  0.00    -0.242 NA
HETATM    5  C   UNL     1       7.961  22.735  54.970  1.00  0.00     0.086 A 
HETATM    6  C   UNL     1       7.886  22.747  53.554  1.00  0.00     0.088 A 
HETATM    7  N   UNL     1       7.708  23.874  52.846  1.00  0.00    -0.225 NA
HETATM    8  C   UNL     1       8.095  21.517  55.625  1.00  0.00     0.034 A 
HETATM    9  C   UNL     1       8.171  20.313  54.922  1.00  0.00     0.002 A 
HETATM   10  C   UNL     1       8.120  20.328  53.536  1.00  0.00     0.002 A 
HETATM   11  C   UNL     1       7.977  21.543  52.866  1.00  0.00     0.034 A 
HETATM   12  C   UNL     1       7.605  26.352  55.446  1.00  0.00     0.104 C 
HETATM   13  C   UNL     1       7.529  27.126  54.294  1.00  0.00     0.123 C 
ENDROOT
BRANCH   1  14
HETATM   14  N   UNL     1       6.784  26.708  52.032  1.00  0.00    -0.176 NA
HETATM   15  C   UNL     1       5.511  26.470  51.975  1.00  0.00     0.150 C 
BRANCH  15  16
HETATM   16  C   UNL     1       4.637  27.004  50.919  1.00  0.00    -0.017 A 
HETATM   17  C   UNL     1       4.508  26.388  49.678  1.00  0.00     0.013 A 
HETATM   18  C   UNL     1       3.761  27.011  48.671  1.00  0.00     0.009 A 
HETATM   19  C   UNL     1       3.144  28.260  48.881  1.00  0.00    -0.051 A 
HETATM   20  C   UNL     1       3.282  28.848  50.154  1.00  0.00     0.009 A 
HETATM   21  C   UNL     1       4.013  28.226  51.165  1.00  0.00     0.013 A 
BRANCH  19  22
HETATM   22  C   UNL     1       2.373  29.011  47.781  1.00  0.00    -0.024 C 
HETATM   23  C   UNL     1       3.277  29.836  46.841  1.00  0.00     0.019 C 
HETATM   24  C   UNL     1       1.376  29.988  48.441  1.00  0.00     0.019 C 
HETATM   25  C   UNL     1       1.594  28.009  46.902  1.00  0.00     0.019 C 
ENDBRANCH  19  22
ENDBRANCH  15  16
ENDBRANCH   1  14
BRANCH  13  26
HETATM   26  N   UNL     1       7.467  28.481  54.119  1.00  0.00    -0.286 NA
HETATM   27  H   UNL     1       8.347  28.977  54.303  1.00  0.00     0.125 HD
HETATM   28  H   UNL     1       6.694  28.975  54.567  1.00  0.00     0.125 HD
ENDBRANCH  13  26
BRANCH  12  29
HETATM   29  C   UNL     1       7.458  26.804  56.824  1.00  0.00     0.257 C 
HETATM   30  N   UNL     1       8.003  28.049  57.073  1.00  0.00    -0.354 N 
HETATM   31  H   UNL     1       8.354  28.534  56.250  1.00  0.00     0.162 HD
HETATM   32  O   UNL     1       6.819  26.182  57.663  1.00  0.00    -0.267 OA
BRANCH  30  33
HETATM   33  C   UNL     1       7.546  28.888  58.166  1.00  0.00     0.155 C 
BRANCH  33  34
HETATM   34  C   UNL     1       8.127  30.305  58.210  1.00  0.00     0.139 C 
HETATM   35  O   UNL     1       8.046  30.794  59.571  1.00  0.00    -0.384 OA
HETATM   36  C   UNL     1       9.319  31.343  59.936  1.00  0.00     0.168 C 
HETATM   37  C   UNL     1      10.070  31.572  58.648  1.00  0.00     0.029 C 
HETATM   38  C   UNL     1       9.590  30.417  57.808  1.00  0.00     0.035 C 
ENDBRANCH  33  34
ENDBRANCH  30  33
ENDBRANCH  12  29
TORSDOF 7
ENDMDL
MODEL 5
REMARK VINA RESULT:      -9.7      1.471      2.108
REMARK  7 active torsions:
REMARK  status: ('A' for Active; 'I' for Inactive)
REMARK    1  A    between atoms: C_2  and  C_3 
REMARK    2  A    between atoms: C_6  and  C_7 
REMARK    3  A    between atoms: N_8  and  N_9 
REMARK    4  A    between atoms: C_20  and  C_21 
REMARK       I    between atoms: C_21  and  N_22 
REMARK    5  A    between atoms: N_22  and  C_23 
REMARK    6  A    between atoms: C_23  and  C_24 
REMARK    7  A    between atoms: C_30  and  N_31 
ROOT
HETATM    1  N   UNL     1       7.504  29.115  56.834  1.00  0.00    -0.202 N 
HETATM    2  C   UNL     1       7.649  29.910  57.957  1.00  0.00     0.183 A 
HETATM    3  C   UNL     1       6.550  30.759  58.004  1.00  0.00     0.124 A 
HETATM    4  N   UNL     1       6.339  31.558  59.080  1.00  0.00    -0.242 NA
HETATM    5  C   UNL     1       7.272  31.485  60.040  1.00  0.00     0.086 A 
HETATM    6  C   UNL     1       8.406  30.639  59.945  1.00  0.00     0.088 A 
HETATM    7  N   UNL     1       8.614  29.818  58.903  1.00  0.00    -0.225 NA
HETATM    8  C   UNL     1       7.111  32.266  61.178  1.00  0.00     0.034 A 
HETATM    9  C   UNL     1       8.042  32.245  62.218  1.00  0.00     0.002 A 
HETATM   10  C   UNL     1       9.162  31.434  62.114  1.00  0.00     0.002 A 
HETATM   11  C   UNL     1       9.333  30.639  60.981  1.00  0.00     0.034 A 
HETATM   12  C   UNL     1       5.766  30.541  56.834  1.00  0.00     0.104 C 
HETATM   13  C   UNL     1       6.484  29.646  56.051  1.00  0.00     0.123 C 
ENDROOT
BRANCH   1  14
HETATM   14  N   UNL     1       8.099  27.910  56.528  1.00  0.00    -0.176 NA
HETATM   15  C   UNL     1       7.272  26.919  56.652  1.00  0.00     0.150 C 
BRANCH  15  16
HETATM   16  C   UNL     1       7.580  25.552  56.204  1.00  0.00    -0.017 A 
HETATM   17  C   UNL     1       7.140  25.053  54.982  1.00  0.00     0.013 A 
HETATM   18  C   UNL     1       7.356  23.706  54.667  1.00  0.00     0.009 A 
HETATM   19  C   UNL     1       7.999  22.835  55.568  1.00  0.00    -0.051 A 
HETATM   20  C   UNL     1       8.444  23.376  56.790  1.00  0.00     0.009 A 
HETATM   21  C   UNL     1       8.245  24.720  57.104  1.00  0.00     0.013 A 
BRANCH  19  22
HETATM   22  C   UNL     1       8.194  21.334  55.291  1.00  0.00    -0.024 C 
HETATM   23  C   UNL     1       7.299  20.420  56.155  1.00  0.00     0.019 C 
HETATM   24  C   UNL     1       9.662  20.954  55.581  1.00  0.00     0.019 C 
HETATM   25  C   UNL     1       7.872  21.022  53.813  1.00  0.00     0.019 C 
ENDBRANCH  19  22
ENDBRANCH  15  16
ENDBRANCH   1  14
BRANCH  13  26
HETATM   26  N   UNL     1       6.248  29.153  54.796  1.00  0.00    -0.286 NA
HETATM   27  H   UNL     1       7.057  28.700  54.356  1.00  0.00     0.125 HD
HETATM   28  H   UNL     1       5.796  29.777  54.127  1.00  0.00     0.125 HD
ENDBRANCH  13  26
BRANCH  12  29
HETATM   29  C   UNL     1       4.434  31.071  56.574  1.00  0.00     0.257 C 
HETATM   30  N   UNL     1       4.234  31.484  55.270  1.00  0.00    -0.354 N 
HETATM   31  H   UNL     1       5.004  31.283  54.635  1.00  0.00     0.162 HD
HETATM   32  O   UNL     1       3.538  31.058  57.408  1.00  0.00    -0.267 OA
BRANCH  30  33
HETATM   33  C   UNL     1       2.912  31.550  54.675  1.00  0.00     0.155 C 
BRANCH  33  34
HETATM   34  C   UNL     1       2.298  32.949  54.563  1.00  0.00     0.139 C 
HETATM   35  O   UNL     1       1.634  33.262  55.813  1.00  0.00    -0.384 OA
HETATM   36  C   UNL     1       2.042  34.570  56.233  1.00  0.00     0.168 C 
HETATM   37  C   UNL     1       2.641  35.240  55.021  1.00  0.00     0.029 C 
HETATM   38  C   UNL     1       3.293  34.075  54.322  1.00  0.00     0.035 C 
ENDBRANCH  33  34
ENDBRANCH  30  33
ENDBRANCH  12  29
TORSDOF 7
ENDMDL
MODEL 6
REMARK VINA RESULT:      -9.7      4.658      8.269
REMARK  7 active torsions:
REMARK  status: ('A' for Active; 'I' for Inactive)
REMARK    1  A    between atoms: C_2  and  C_3 
REMARK    2  A    between atoms: C_6  and  C_7 
REMARK    3  A    between atoms: N_8  and  N_9 
REMARK    4  A    between atoms: C_20  and  C_21 
REMARK       I    between atoms: C_21  and  N_22 
REMARK    5  A    between atoms: N_22  and  C_23 
REMARK    6  A    between atoms: C_23  and  C_24 
REMARK    7  A    between atoms: C_30  and  N_31 
ROOT
HETATM    1  N   UNL     1       5.493  27.377  55.630  1.00  0.00    -0.202 N 
HETATM    2  C   UNL     1       6.034  28.208  56.594  1.00  0.00     0.183 A 
HETATM    3  C   UNL     1       7.028  27.488  57.246  1.00  0.00     0.124 A 
HETATM    4  N   UNL     1       7.841  28.093  58.149  1.00  0.00    -0.242 NA
HETATM    5  C   UNL     1       7.584  29.389  58.374  1.00  0.00     0.086 A 
HETATM    6  C   UNL     1       6.535  30.088  57.723  1.00  0.00     0.088 A 
HETATM    7  N   UNL     1       5.742  29.514  56.804  1.00  0.00    -0.225 NA
HETATM    8  C   UNL     1       8.388  30.075  59.276  1.00  0.00     0.034 A 
HETATM    9  C   UNL     1       8.179  31.425  59.564  1.00  0.00     0.002 A 
HETATM   10  C   UNL     1       7.139  32.101  58.944  1.00  0.00     0.002 A 
HETATM   11  C   UNL     1       6.328  31.427  58.030  1.00  0.00     0.034 A 
HETATM   12  C   UNL     1       7.029  26.160  56.731  1.00  0.00     0.104 C 
HETATM   13  C   UNL     1       5.947  26.083  55.862  1.00  0.00     0.123 C 
ENDROOT
BRANCH   1  14
HETATM   14  N   UNL     1       4.756  27.696  54.509  1.00  0.00    -0.176 NA
HETATM   15  C   UNL     1       5.479  27.663  53.433  1.00  0.00     0.150 C 
BRANCH  15  16
HETATM   16  C   UNL     1       4.913  27.767  52.079  1.00  0.00    -0.017 A 
HETATM   17  C   UNL     1       3.917  28.684  51.757  1.00  0.00     0.013 A 
HETATM   18  C   UNL     1       3.329  28.650  50.486  1.00  0.00     0.009 A 
HETATM   19  C   UNL     1       3.715  27.696  49.524  1.00  0.00    -0.051 A 
HETATM   20  C   UNL     1       4.736  26.792  49.879  1.00  0.00     0.009 A 
HETATM   21  C   UNL     1       5.335  26.830  51.137  1.00  0.00     0.013 A 
BRANCH  19  22
HETATM   22  C   UNL     1       3.048  27.579  48.143  1.00  0.00    -0.024 C 
HETATM   23  C   UNL     1       3.457  26.315  47.358  1.00  0.00     0.019 C 
HETATM   24  C   UNL     1       3.443  28.803  47.288  1.00  0.00     0.019 C 
HETATM   25  C   UNL     1       1.512  27.543  48.298  1.00  0.00     0.019 C 
ENDBRANCH  19  22
ENDBRANCH  15  16
ENDBRANCH   1  14
BRANCH  13  26
HETATM   26  N   UNL     1       5.428  25.031  55.158  1.00  0.00    -0.286 NA
HETATM   27  H   UNL     1       5.962  24.159  55.236  1.00  0.00     0.125 HD
HETATM   28  H   UNL     1       5.183  25.200  54.181  1.00  0.00     0.125 HD
ENDBRANCH  13  26
BRANCH  12  29
HETATM   29  C   UNL     1       8.030  25.133  56.987  1.00  0.00     0.257 C 
HETATM   30  N   UNL     1       7.528  23.845  57.002  1.00  0.00    -0.354 N 
HETATM   31  H   UNL     1       6.548  23.765  56.742  1.00  0.00     0.162 HD
HETATM   32  O   UNL     1       9.225  25.377  57.081  1.00  0.00    -0.267 OA
BRANCH  30  33
HETATM   33  C   UNL     1       8.361  22.688  56.727  1.00  0.00     0.155 C 
BRANCH  33  34
HETATM   34  C   UNL     1       7.951  21.840  55.519  1.00  0.00     0.139 C 
HETATM   35  O   UNL     1       7.236  22.685  54.584  1.00  0.00    -0.384 OA
HETATM   36  C   UNL     1       7.781  22.481  53.274  1.00  0.00     0.168 C 
HETATM   37  C   UNL     1       8.561  21.191  53.332  1.00  0.00     0.029 C 
HETATM   38  C   UNL     1       9.105  21.229  54.737  1.00  0.00     0.035 C 
ENDBRANCH  33  34
ENDBRANCH  30  33
ENDBRANCH  12  29
TORSDOF 7
ENDMDL
MODEL 7
REMARK VINA RESULT:      -9.6      4.836      8.642
REMARK  7 active torsions:
REMARK  status: ('A' for Active; 'I' for Inactive)
REMARK    1  A    between atoms: C_2  and  C_3 
REMARK    2  A    between atoms: C_6  and  C_7 
REMARK    3  A    between atoms: N_8  and  N_9 
REMARK    4  A    between atoms: C_20  and  C_21 
REMARK       I    between atoms: C_21  and  N_22 
REMARK    5  A    between atoms: N_22  and  C_23 
REMARK    6  A    between atoms: C_23  and  C_24 
REMARK    7  A    between atoms: C_30  and  N_31 
ROOT
HETATM    1  N   UNL     1       7.287  26.280  53.064  1.00  0.00    -0.202 N 
HETATM    2  C   UNL     1       7.585  25.022  53.553  1.00  0.00     0.183 A 
HETATM    3  C   UNL     1       7.723  25.138  54.931  1.00  0.00     0.124 A 
HETATM    4  N   UNL     1       7.872  24.035  55.707  1.00  0.00    -0.242 NA
HETATM    5  C   UNL     1       7.910  22.870  55.045  1.00  0.00     0.086 A 
HETATM    6  C   UNL     1       7.807  22.785  53.633  1.00  0.00     0.088 A 
HETATM    7  N   UNL     1       7.627  23.862  52.853  1.00  0.00    -0.225 NA
HETATM    8  C   UNL     1       8.044  21.698  55.780  1.00  0.00     0.034 A 
HETATM    9  C   UNL     1       8.094  20.448  55.161  1.00  0.00     0.002 A 
HETATM   10  C   UNL     1       8.016  20.367  53.778  1.00  0.00     0.002 A 
HETATM   11  C   UNL     1       7.872  21.536  53.029  1.00  0.00     0.034 A 
HETATM   12  C   UNL     1       7.600  26.515  55.277  1.00  0.00     0.104 C 
HETATM   13  C   UNL     1       7.510  27.208  54.076  1.00  0.00     0.123 C 
ENDROOT
BRANCH   1  14
HETATM   14  N   UNL     1       6.717  26.644  51.862  1.00  0.00    -0.176 NA
HETATM   15  C   UNL     1       5.424  26.544  51.892  1.00  0.00     0.150 C 
BRANCH  15  16
HETATM   16  C   UNL     1       4.552  27.051  50.821  1.00  0.00    -0.017 A 
HETATM   17  C   UNL     1       4.476  26.443  49.573  1.00  0.00     0.013 A 
HETATM   18  C   UNL     1       3.726  27.044  48.555  1.00  0.00     0.009 A 
HETATM   19  C   UNL     1       3.052  28.264  48.762  1.00  0.00    -0.051 A 
HETATM   20  C   UNL     1       3.138  28.845  50.042  1.00  0.00     0.009 A 
HETATM   21  C   UNL     1       3.872  28.244  51.064  1.00  0.00     0.013 A 
BRANCH  19  22
HETATM   22  C   UNL     1       2.274  28.992  47.651  1.00  0.00    -0.024 C 
HETATM   23  C   UNL     1       1.240  30.008  48.179  1.00  0.00     0.019 C 
HETATM   24  C   UNL     1       1.510  27.950  46.805  1.00  0.00     0.019 C 
HETATM   25  C   UNL     1       3.252  29.766  46.740  1.00  0.00     0.019 C 
ENDBRANCH  19  22
ENDBRANCH  15  16
ENDBRANCH   1  14
BRANCH  13  26
HETATM   26  N   UNL     1       7.458  28.549  53.809  1.00  0.00    -0.286 NA
HETATM   27  H   UNL     1       7.243  29.139  54.622  1.00  0.00     0.125 HD
HETATM   28  H   UNL     1       6.896  28.844  53.010  1.00  0.00     0.125 HD
ENDBRANCH  13  26
BRANCH  12  29
HETATM   29  C   UNL     1       7.484  27.061  56.623  1.00  0.00     0.257 C 
HETATM   30  N   UNL     1       7.739  28.418  56.707  1.00  0.00    -0.354 N 
HETATM   31  H   UNL     1       7.884  28.881  55.813  1.00  0.00     0.162 HD
HETATM   32  O   UNL     1       7.095  26.401  57.578  1.00  0.00    -0.267 OA
BRANCH  30  33
HETATM   33  C   UNL     1       7.204  29.239  57.777  1.00  0.00     0.155 C 
BRANCH  33  34
HETATM   34  C   UNL     1       6.109  30.231  57.375  1.00  0.00     0.139 C 
HETATM   35  O   UNL     1       6.113  30.363  55.932  1.00  0.00    -0.384 OA
HETATM   36  C   UNL     1       4.768  30.229  55.456  1.00  0.00     0.168 C 
HETATM   37  C   UNL     1       3.870  30.432  56.651  1.00  0.00     0.029 C 
HETATM   38  C   UNL     1       4.693  29.821  57.755  1.00  0.00     0.035 C 
ENDBRANCH  33  34
ENDBRANCH  30  33
ENDBRANCH  12  29
TORSDOF 7
ENDMDL
MODEL 8
REMARK VINA RESULT:      -9.4      1.566      2.275
REMARK  7 active torsions:
REMARK  status: ('A' for Active; 'I' for Inactive)
REMARK    1  A    between atoms: C_2  and  C_3 
REMARK    2  A    between atoms: C_6  and  C_7 
REMARK    3  A    between atoms: N_8  and  N_9 
REMARK    4  A    between atoms: C_20  and  C_21 
REMARK       I    between atoms: C_21  and  N_22 
REMARK    5  A    between atoms: N_22  and  C_23 
REMARK    6  A    between atoms: C_23  and  C_24 
REMARK    7  A    between atoms: C_30  and  N_31 
ROOT
HETATM    1  N   UNL     1       5.180  28.619  55.194  1.00  0.00    -0.202 N 
HETATM    2  C   UNL     1       5.766  29.440  56.140  1.00  0.00     0.183 A 
HETATM    3  C   UNL     1       5.117  30.667  56.078  1.00  0.00     0.124 A 
HETATM    4  N   UNL     1       5.376  31.634  56.994  1.00  0.00    -0.242 NA
HETATM    5  C   UNL     1       6.309  31.324  57.906  1.00  0.00     0.086 A 
HETATM    6  C   UNL     1       6.986  30.078  57.918  1.00  0.00     0.088 A 
HETATM    7  N   UNL     1       6.719  29.098  57.041  1.00  0.00    -0.225 NA
HETATM    8  C   UNL     1       6.614  32.263  58.884  1.00  0.00     0.034 A 
HETATM    9  C   UNL     1       7.576  32.013  59.864  1.00  0.00     0.002 A 
HETATM   10  C   UNL     1       8.254  30.803  59.862  1.00  0.00     0.002 A 
HETATM   11  C   UNL     1       7.952  29.847  58.891  1.00  0.00     0.034 A 
HETATM   12  C   UNL     1       4.177  30.622  55.009  1.00  0.00     0.104 C 
HETATM   13  C   UNL     1       4.373  29.401  54.374  1.00  0.00     0.123 C 
ENDROOT
BRANCH   1  14
HETATM   14  N   UNL     1       5.198  27.244  55.092  1.00  0.00    -0.176 NA
HETATM   15  C   UNL     1       6.303  26.814  54.567  1.00  0.00     0.150 C 
BRANCH  15  16
HETATM   16  C   UNL     1       6.672  25.390  54.520  1.00  0.00    -0.017 A 
HETATM   17  C   UNL     1       6.650  24.578  55.650  1.00  0.00     0.013 A 
HETATM   18  C   UNL     1       7.133  23.267  55.568  1.00  0.00     0.009 A 
HETATM   19  C   UNL     1       7.656  22.750  54.366  1.00  0.00    -0.051 A 
HETATM   20  C   UNL     1       7.649  23.595  53.238  1.00  0.00     0.009 A 
HETATM   21  C   UNL     1       7.157  24.897  53.309  1.00  0.00     0.013 A 
BRANCH  19  22
HETATM   22  C   UNL     1       8.259  21.339  54.251  1.00  0.00    -0.024 C 
HETATM   23  C   UNL     1       7.893  20.610  52.940  1.00  0.00     0.019 C 
HETATM   24  C   UNL     1       7.744  20.474  55.422  1.00  0.00     0.019 C 
HETATM   25  C   UNL     1       9.800  21.415  54.316  1.00  0.00     0.019 C 
ENDBRANCH  19  22
ENDBRANCH  15  16
ENDBRANCH   1  14
BRANCH  13  26
HETATM   26  N   UNL     1       3.810  28.868  53.247  1.00  0.00    -0.286 NA
HETATM   27  H   UNL     1       4.187  29.235  52.366  1.00  0.00     0.125 HD
HETATM   28  H   UNL     1       2.790  28.844  53.202  1.00  0.00     0.125 HD
ENDBRANCH  13  26
BRANCH  12  29
HETATM   29  C   UNL     1       3.150  31.613  54.716  1.00  0.00     0.257 C 
HETATM   30  N   UNL     1       2.741  32.346  55.815  1.00  0.00    -0.354 N 
HETATM   31  H   UNL     1       3.269  32.170  56.667  1.00  0.00     0.162 HD
HETATM   32  O   UNL     1       2.756  31.848  53.581  1.00  0.00    -0.267 OA
BRANCH  30  33
HETATM   33  C   UNL     1       2.151  33.666  55.687  1.00  0.00     0.155 C 
BRANCH  33  34
HETATM   34  C   UNL     1       2.567  34.690  56.747  1.00  0.00     0.139 C 
HETATM   35  O   UNL     1       2.254  34.152  58.056  1.00  0.00    -0.384 OA
HETATM   36  C   UNL     1       3.401  34.307  58.901  1.00  0.00     0.168 C 
HETATM   37  C   UNL     1       4.290  35.327  58.232  1.00  0.00     0.029 C 
HETATM   38  C   UNL     1       4.051  35.026  56.775  1.00  0.00     0.035 C 
ENDBRANCH  33  34
ENDBRANCH  30  33
ENDBRANCH  12  29
TORSDOF 7
ENDMDL
MODEL 9
REMARK VINA RESULT:      -9.4      2.437      5.366
REMARK  7 active torsions:
REMARK  status: ('A' for Active; 'I' for Inactive)
REMARK    1  A    between atoms: C_2  and  C_3 
REMARK    2  A    between atoms: C_6  and  C_7 
REMARK    3  A    between atoms: N_8  and  N_9 
REMARK    4  A    between atoms: C_20  and  C_21 
REMARK       I    between atoms: C_21  and  N_22 
REMARK    5  A    between atoms: N_22  and  C_23 
REMARK    6  A    between atoms: C_23  and  C_24 
REMARK    7  A    between atoms: C_30  and  N_31 
ROOT
HETATM    1  N   UNL     1       5.816  28.981  55.724  1.00  0.00    -0.202 N 
HETATM    2  C   UNL     1       4.936  29.695  54.932  1.00  0.00     0.183 A 
HETATM    3  C   UNL     1       4.666  30.888  55.590  1.00  0.00     0.124 A 
HETATM    4  N   UNL     1       3.945  31.865  54.985  1.00  0.00    -0.242 NA
HETATM    5  C   UNL     1       3.501  31.571  53.754  1.00  0.00     0.086 A 
HETATM    6  C   UNL     1       3.758  30.327  53.123  1.00  0.00     0.088 A 
HETATM    7  N   UNL     1       4.497  29.362  53.694  1.00  0.00    -0.225 NA
HETATM    8  C   UNL     1       2.768  32.532  53.069  1.00  0.00     0.034 A 
HETATM    9  C   UNL     1       2.271  32.297  51.787  1.00  0.00     0.002 A 
HETATM   10  C   UNL     1       2.503  31.072  51.179  1.00  0.00     0.002 A 
HETATM   11  C   UNL     1       3.245  30.100  51.852  1.00  0.00     0.034 A 
HETATM   12  C   UNL     1       5.322  30.859  56.855  1.00  0.00     0.104 C 
HETATM   13  C   UNL     1       5.875  29.590  56.973  1.00  0.00     0.123 C 
ENDROOT
BRANCH   1  14
HETATM   14  N   UNL     1       6.654  27.938  55.387  1.00  0.00    -0.176 NA
HETATM   15  C   UNL     1       6.101  26.786  55.607  1.00  0.00     0.150 C 
BRANCH  15  16
HETATM   16  C   UNL     1       6.686  25.512  55.160  1.00  0.00    -0.017 A 
HETATM   17  C   UNL     1       6.340  24.919  53.950  1.00  0.00     0.013 A 
HETATM   18  C   UNL     1       6.834  23.647  53.638  1.00  0.00     0.009 A 
HETATM   19  C   UNL     1       7.668  22.943  54.529  1.00  0.00    -0.051 A 
HETATM   20  C   UNL     1       8.010  23.580  55.739  1.00  0.00     0.009 A 
HETATM   21  C   UNL     1       7.533  24.852  56.050  1.00  0.00     0.013 A 
BRANCH  19  22
HETATM   22  C   UNL     1       8.175  21.516  54.255  1.00  0.00    -0.024 C 
HETATM   23  C   UNL     1       7.611  20.894  52.960  1.00  0.00     0.019 C 
HETATM   24  C   UNL     1       7.762  20.601  55.428  1.00  0.00     0.019 C 
HETATM   25  C   UNL     1       9.714  21.516  54.130  1.00  0.00     0.019 C 
ENDBRANCH  19  22
ENDBRANCH  15  16
ENDBRANCH   1  14
BRANCH  13  26
HETATM   26  N   UNL     1       6.540  28.987  58.006  1.00  0.00    -0.286 NA
HETATM   27  H   UNL     1       6.546  29.523  58.881  1.00  0.00     0.125 HD
HETATM   28  H   UNL     1       7.477  28.632  57.813  1.00  0.00     0.125 HD
ENDBRANCH  13  26
BRANCH  12  29
HETATM   29  C   UNL     1       5.470  31.976  57.779  1.00  0.00     0.257 C 
HETATM   30  N   UNL     1       5.498  31.608  59.111  1.00  0.00    -0.354 N 
HETATM   31  H   UNL     1       5.506  30.604  59.278  1.00  0.00     0.162 HD
HETATM   32  O   UNL     1       5.655  33.127  57.407  1.00  0.00    -0.267 OA
BRANCH  30  33
HETATM   33  C   UNL     1       6.128  32.432  60.127  1.00  0.00     0.155 C 
BRANCH  33  34
HETATM   34  C   UNL     1       7.216  31.749  60.962  1.00  0.00     0.139 C 
HETATM   35  O   UNL     1       7.854  30.735  60.147  1.00  0.00    -0.384 OA
HETATM   36  C   UNL     1       9.275  30.888  60.256  1.00  0.00     0.168 C 
HETATM   37  C   UNL     1       9.520  31.740  61.477  1.00  0.00     0.029 C 
HETATM   38  C   UNL     1       8.331  32.665  61.444  1.00  0.00     0.035 C 
ENDBRANCH  33  34
ENDBRANCH  30  33
ENDBRANCH  12  29
TORSDOF 7
ENDMDL
MODEL 10
REMARK VINA RESULT:      -9.2      4.554      9.845
REMARK  7 active torsions:
REMARK  status: ('A' for Active; 'I' for Inactive)
REMARK    1  A    between atoms: C_2  and  C_3 
REMARK    2  A    between atoms: C_6  and  C_7 
REMARK    3  A    between atoms: N_8  and  N_9 
REMARK    4  A    between atoms: C_20  and  C_21 
REMARK       I    between atoms: C_21  and  N_22 
REMARK    5  A    between atoms: N_22  and  C_23 
REMARK    6  A    between atoms: C_23  and  C_24 
REMARK    7  A    between atoms: C_30  and  N_31 
ROOT
HETATM    1  N   UNL     1       4.248  28.160  54.063  1.00  0.00    -0.202 N 
HETATM    2  C   UNL     1       5.008  27.057  53.719  1.00  0.00     0.183 A 
HETATM    3  C   UNL     1       5.370  27.207  52.386  1.00  0.00     0.124 A 
HETATM    4  N   UNL     1       6.247  26.349  51.806  1.00  0.00    -0.242 NA
HETATM    5  C   UNL     1       6.685  25.358  52.595  1.00  0.00     0.086 A 
HETATM    6  C   UNL     1       6.266  25.206  53.942  1.00  0.00     0.088 A 
HETATM    7  N   UNL     1       5.425  26.064  54.541  1.00  0.00    -0.225 NA
HETATM    8  C   UNL     1       7.598  24.451  52.071  1.00  0.00     0.034 A 
HETATM    9  C   UNL     1       8.097  23.392  52.831  1.00  0.00     0.002 A 
HETATM   10  C   UNL     1       7.668  23.230  54.140  1.00  0.00     0.002 A 
HETATM   11  C   UNL     1       6.759  24.139  54.683  1.00  0.00     0.034 A 
HETATM   12  C   UNL     1       4.739  28.380  51.881  1.00  0.00     0.104 C 
HETATM   13  C   UNL     1       3.912  28.841  52.898  1.00  0.00     0.123 C 
ENDROOT
BRANCH   1  14
HETATM   14  N   UNL     1       3.954  28.670  55.310  1.00  0.00    -0.176 NA
HETATM   15  C   UNL     1       4.949  29.339  55.804  1.00  0.00     0.150 C 
BRANCH  15  16
HETATM   16  C   UNL     1       4.846  30.153  57.026  1.00  0.00    -0.017 A 
HETATM   17  C   UNL     1       3.623  30.464  57.611  1.00  0.00     0.013 A 
HETATM   18  C   UNL     1       3.581  31.345  58.698  1.00  0.00     0.009 A 
HETATM   19  C   UNL     1       4.753  31.939  59.208  1.00  0.00    -0.051 A 
HETATM   20  C   UNL     1       5.975  31.591  58.601  1.00  0.00     0.009 A 
HETATM   21  C   UNL     1       6.025  30.703  57.527  1.00  0.00     0.013 A 
BRANCH  19  22
HETATM   22  C   UNL     1       4.743  32.965  60.355  1.00  0.00    -0.024 C 
HETATM   23  C   UNL     1       6.100  33.105  61.076  1.00  0.00     0.019 C 
HETATM   24  C   UNL     1       3.701  32.532  61.409  1.00  0.00     0.019 C 
HETATM   25  C   UNL     1       4.366  34.361  59.813  1.00  0.00     0.019 C 
ENDBRANCH  19  22
ENDBRANCH  15  16
ENDBRANCH   1  14
BRANCH  13  26
HETATM   26  N   UNL     1       3.018  29.877  52.936  1.00  0.00    -0.286 NA
HETATM   27  H   UNL     1       3.265  30.631  53.587  1.00  0.00     0.125 HD
HETATM   28  H   UNL     1       2.032  29.637  53.043  1.00  0.00     0.125 HD
ENDBRANCH  13  26
BRANCH  12  29
HETATM   29  C   UNL     1       4.999  29.019  50.597  1.00  0.00     0.257 C 
HETATM   30  N   UNL     1       5.580  28.187  49.658  1.00  0.00    -0.354 N 
HETATM   31  H   UNL     1       5.669  27.214  49.945  1.00  0.00     0.162 HD
HETATM   32  O   UNL     1       4.642  30.160  50.337  1.00  0.00    -0.267 OA
BRANCH  30  33
HETATM   33  C   UNL     1       5.456  28.426  48.232  1.00  0.00     0.155 C 
BRANCH  33  34
HETATM   34  C   UNL     1       4.537  27.466  47.470  1.00  0.00     0.139 C 
HETATM   35  O   UNL     1       4.624  26.158  48.087  1.00  0.00    -0.384 OA
HETATM   36  C   UNL     1       3.296  25.663  48.301  1.00  0.00     0.168 C 
HETATM   37  C   UNL     1       2.385  26.494  47.429  1.00  0.00     0.029 C 
HETATM   38  C   UNL     1       3.061  27.839  47.481  1.00  0.00     0.035 C 
ENDBRANCH  33  34
ENDBRANCH  30  33
ENDBRANCH  12  29
TORSDOF 7
ENDMDL
