MODEL 1
REMARK VINA RESULT:     -10.5      0.000      0.000
REMARK  3 active torsions:
REMARK  status: ('A' for Active; 'I' for Inactive)
REMARK    1  A    between atoms: C_2  and  C_3 
REMARK    2  A    between atoms: C_12  and  C_13 
REMARK    3  A    between atoms: C_16  and  O_17 
ROOT
HETATM    1  C   UNL     1       7.556  23.687  52.782  1.00  0.00    -0.007 C 
HETATM    2  C   UNL     1       6.034  23.786  52.530  1.00  0.00     0.009 C 
HETATM    3  C   UNL     1       5.244  24.632  53.547  1.00  0.00     0.056 C 
HETATM    4  C   UNL     1       5.894  25.982  53.922  1.00  0.00     0.129 C 
HETATM    5  N   UNL     1       5.604  27.086  52.967  1.00  0.00    -0.223 N 
HETATM    6  C   UNL     1       5.699  28.421  53.391  1.00  0.00     0.142 C 
HETATM    7  N   UNL     1       5.811  29.380  52.422  1.00  0.00    -0.305 N 
HETATM    8  C   UNL     1       5.581  29.082  51.105  1.00  0.00     0.278 C 
HETATM    9  O   UNL     1       5.839  29.855  50.198  1.00  0.00    -0.265 OA
HETATM   10  C   UNL     1       4.914  27.721  50.872  1.00  0.00     0.155 C 
HETATM   11  N   UNL     1       5.027  26.762  51.759  1.00  0.00    -0.162 NA
HETATM   12  C   UNL     1       5.642  28.754  54.701  1.00  0.00     0.036 C 
HETATM   13  C   UNL     1       5.310  27.617  55.633  1.00  0.00     0.044 C 
HETATM   14  N   UNL     1       5.355  26.389  55.254  1.00  0.00    -0.361 N 
HETATM   15  H   UNL     1       5.090  25.651  55.903  1.00  0.00     0.162 HD
HETATM   16  C   UNL     1       5.737  30.087  55.266  1.00  0.00     0.017 C 
HETATM   17  C   UNL     1       5.447  30.308  56.556  1.00  0.00     0.001 C 
HETATM   18  C   UNL     1       5.003  29.246  57.426  1.00  0.00     0.002 C 
HETATM   19  C   UNL     1       4.923  27.969  57.027  1.00  0.00     0.030 C 
HETATM   20  C   UNL     1       7.423  25.848  54.127  1.00  0.00     0.056 C 
HETATM   21  C   UNL     1       8.107  25.106  52.993  1.00  0.00     0.009 C 
HETATM   22  H   UNL     1       6.076  30.336  52.613  1.00  0.00     0.170 HD
ENDROOT
BRANCH   1  23
HETATM   23  C   UNL     1       8.014  22.575  53.816  1.00  0.00    -0.048 C 
HETATM   24  C   UNL     1       7.710  21.186  53.200  1.00  0.00     0.015 C 
HETATM   25  C   UNL     1       7.301  22.621  55.179  1.00  0.00     0.015 C 
HETATM   26  C   UNL     1       9.534  22.620  54.084  1.00  0.00     0.015 C 
ENDBRANCH   1  23
BRANCH  10  27
HETATM   27  C   UNL     1       4.034  27.526  49.679  1.00  0.00     0.000 A 
HETATM   28  C   UNL     1       4.294  26.481  48.788  1.00  0.00     0.017 A 
HETATM   29  C   UNL     1       3.399  26.203  47.749  1.00  0.00     0.037 A 
HETATM   30  C   UNL     1       2.229  26.950  47.592  1.00  0.00     0.068 A 
HETATM   31  C   UNL     1       1.975  28.003  48.466  1.00  0.00     0.037 A 
HETATM   32  C   UNL     1       2.868  28.286  49.508  1.00  0.00     0.017 A 
BRANCH  30  33
HETATM   33  O   UNL     1       1.423  26.554  46.562  1.00  0.00    -0.356 OA
HETATM   34  C   UNL     1       0.343  27.417  46.220  1.00  0.00     0.210 C 
ENDBRANCH  30  33
ENDBRANCH  10  27
TORSDOF 3
ENDMDL
MODEL 2
REMARK VINA RESULT:      -9.4      6.528     11.508
REMARK  3 active torsions:
REMARK  status: ('A' for Active; 'I' for Inactive)
REMARK    1  A    between atoms: C_2  and  C_3 
REMARK    2  A    between atoms: C_12  and  C_13 
REMARK    3  A    between atoms: C_16  and  O_17 
ROOT
HETATM    1  C   UNL     1       3.780  33.537  56.639  1.00  0.00    -0.007 C 
HETATM    2  C   UNL     1       3.506  33.003  58.063  1.00  0.00     0.009 C 
HETATM    3  C   UNL     1       3.754  31.496  58.268  1.00  0.00     0.056 C 
HETATM    4  C   UNL     1       5.063  30.957  57.650  1.00  0.00     0.129 C 
HETATM    5  N   UNL     1       6.265  31.144  58.507  1.00  0.00    -0.223 N 
HETATM    6  C   UNL     1       7.387  30.319  58.330  1.00  0.00     0.142 C 
HETATM    7  N   UNL     1       8.577  30.759  58.842  1.00  0.00    -0.305 N 
HETATM    8  C   UNL     1       8.622  31.820  59.707  1.00  0.00     0.278 C 
HETATM    9  O   UNL     1       9.667  32.352  60.045  1.00  0.00    -0.265 OA
HETATM   10  C   UNL     1       7.257  32.242  60.263  1.00  0.00     0.155 C 
HETATM   11  N   UNL     1       6.156  31.970  59.604  1.00  0.00    -0.162 NA
HETATM   12  C   UNL     1       7.293  29.118  57.714  1.00  0.00     0.036 C 
HETATM   13  C   UNL     1       5.888  28.678  57.388  1.00  0.00     0.044 C 
HETATM   14  N   UNL     1       4.891  29.489  57.436  1.00  0.00    -0.361 N 
HETATM   15  H   UNL     1       3.952  29.146  57.243  1.00  0.00     0.162 HD
HETATM   16  C   UNL     1       8.371  28.181  57.460  1.00  0.00     0.017 C 
HETATM   17  C   UNL     1       8.113  26.935  57.040  1.00  0.00     0.001 C 
HETATM   18  C   UNL     1       6.763  26.463  56.850  1.00  0.00     0.002 C 
HETATM   19  C   UNL     1       5.691  27.253  57.008  1.00  0.00     0.030 C 
HETATM   20  C   UNL     1       5.320  31.546  56.242  1.00  0.00     0.056 C 
HETATM   21  C   UNL     1       5.171  33.056  56.198  1.00  0.00     0.009 C 
HETATM   22  H   UNL     1       9.469  30.347  58.609  1.00  0.00     0.170 HD
ENDROOT
BRANCH   1  23
HETATM   23  C   UNL     1       2.595  33.367  55.597  1.00  0.00    -0.048 C 
HETATM   24  C   UNL     1       1.467  34.358  55.980  1.00  0.00     0.015 C 
HETATM   25  C   UNL     1       1.960  31.966  55.559  1.00  0.00     0.015 C 
HETATM   26  C   UNL     1       3.030  33.721  54.159  1.00  0.00     0.015 C 
ENDBRANCH   1  23
BRANCH  10  27
HETATM   27  C   UNL     1       7.175  32.866  61.618  1.00  0.00     0.000 A 
HETATM   28  C   UNL     1       6.216  33.853  61.871  1.00  0.00     0.017 A 
HETATM   29  C   UNL     1       6.037  34.342  63.169  1.00  0.00     0.037 A 
HETATM   30  C   UNL     1       6.795  33.848  64.234  1.00  0.00     0.068 A 
HETATM   31  C   UNL     1       7.763  32.879  63.983  1.00  0.00     0.037 A 
HETATM   32  C   UNL     1       7.947  32.386  62.685  1.00  0.00     0.017 A 
BRANCH  30  33
HETATM   33  O   UNL     1       6.497  34.383  65.455  1.00  0.00    -0.356 OA
HETATM   34  C   UNL     1       5.264  33.988  66.047  1.00  0.00     0.210 C 
ENDBRANCH  30  33
ENDBRANCH  10  27
TORSDOF 3
ENDMDL
MODEL 3
REMARK VINA RESULT:      -9.3      3.141      7.441
REMARK  3 active torsions:
REMARK  status: ('A' for Active; 'I' for Inactive)
REMARK    1  A    between atoms: C_2  and  C_3 
REMARK    2  A    between atoms: C_12  and  C_13 
REMARK    3  A    between atoms: C_16  and  O_17 
ROOT
HETATM    1  C   UNL     1       7.409  23.923  55.589  1.00  0.00    -0.007 C 
HETATM    2  C   UNL     1       8.300  25.174  55.416  1.00  0.00     0.009 C 
HETATM    3  C   UNL     1       7.983  26.054  54.192  1.00  0.00     0.056 C 
HETATM    4  C   UNL     1       6.482  26.332  53.956  1.00  0.00     0.129 C 
HETATM    5  N   UNL     1       5.937  27.463  54.755  1.00  0.00    -0.223 N 
HETATM    6  C   UNL     1       4.781  28.132  54.323  1.00  0.00     0.142 C 
HETATM    7  N   UNL     1       4.104  28.877  55.249  1.00  0.00    -0.305 N 
HETATM    8  C   UNL     1       4.664  29.168  56.465  1.00  0.00     0.278 C 
HETATM    9  O   UNL     1       4.033  29.673  57.378  1.00  0.00    -0.265 OA
HETATM   10  C   UNL     1       6.164  28.863  56.560  1.00  0.00     0.155 C 
HETATM   11  N   UNL     1       6.713  27.970  55.773  1.00  0.00    -0.162 NA
HETATM   12  C   UNL     1       4.371  28.079  53.035  1.00  0.00     0.036 C 
HETATM   13  C   UNL     1       5.326  27.393  52.091  1.00  0.00     0.044 C 
HETATM   14  N   UNL     1       6.307  26.678  52.514  1.00  0.00    -0.361 N 
HETATM   15  H   UNL     1       6.951  26.259  51.846  1.00  0.00     0.162 HD
HETATM   16  C   UNL     1       3.196  28.713  52.466  1.00  0.00     0.017 C 
HETATM   17  C   UNL     1       3.020  28.766  51.139  1.00  0.00     0.001 C 
HETATM   18  C   UNL     1       3.994  28.226  50.222  1.00  0.00     0.002 C 
HETATM   19  C   UNL     1       5.093  27.577  50.632  1.00  0.00     0.030 C 
HETATM   20  C   UNL     1       5.620  25.065  54.178  1.00  0.00     0.056 C 
HETATM   21  C   UNL     1       5.938  24.355  55.481  1.00  0.00     0.009 C 
HETATM   22  H   UNL     1       3.172  29.236  55.101  1.00  0.00     0.170 HD
ENDROOT
BRANCH   1  23
HETATM   23  C   UNL     1       7.846  22.643  54.759  1.00  0.00    -0.048 C 
HETATM   24  C   UNL     1       9.393  22.556  54.782  1.00  0.00     0.015 C 
HETATM   25  C   UNL     1       7.424  22.653  53.279  1.00  0.00     0.015 C 
HETATM   26  C   UNL     1       7.317  21.335  55.386  1.00  0.00     0.015 C 
ENDBRANCH   1  23
BRANCH  10  27
HETATM   27  C   UNL     1       7.023  29.672  57.477  1.00  0.00     0.000 A 
HETATM   28  C   UNL     1       8.389  29.390  57.577  1.00  0.00     0.017 A 
HETATM   29  C   UNL     1       9.227  30.227  58.322  1.00  0.00     0.037 A 
HETATM   30  C   UNL     1       8.722  31.361  58.964  1.00  0.00     0.068 A 
HETATM   31  C   UNL     1       7.359  31.635  58.881  1.00  0.00     0.037 A 
HETATM   32  C   UNL     1       6.516  30.800  58.137  1.00  0.00     0.017 A 
BRANCH  30  33
HETATM   33  O   UNL     1       9.650  32.113  59.626  1.00  0.00    -0.356 OA
HETATM   34  C   UNL     1       9.651  32.031  61.047  1.00  0.00     0.210 C 
ENDBRANCH  30  33
ENDBRANCH  10  27
TORSDOF 3
ENDMDL
MODEL 4
REMARK VINA RESULT:      -9.0      3.081      7.242
REMARK  3 active torsions:
REMARK  status: ('A' for Active; 'I' for Inactive)
REMARK    1  A    between atoms: C_2  and  C_3 
REMARK    2  A    between atoms: C_12  and  C_13 
REMARK    3  A    between atoms: C_16  and  O_17 
ROOT
HETATM    1  C   UNL     1       3.881  27.922  51.109  1.00  0.00    -0.007 C 
HETATM    2  C   UNL     1       5.372  27.811  51.504  1.00  0.00     0.009 C 
HETATM    3  C   UNL     1       5.862  28.832  52.549  1.00  0.00     0.056 C 
HETATM    4  C   UNL     1       4.920  29.036  53.756  1.00  0.00     0.129 C 
HETATM    5  N   UNL     1       5.090  28.031  54.841  1.00  0.00    -0.223 N 
HETATM    6  C   UNL     1       4.687  28.338  56.150  1.00  0.00     0.142 C 
HETATM    7  N   UNL     1       4.495  27.292  57.009  1.00  0.00    -0.305 N 
HETATM    8  C   UNL     1       4.924  26.030  56.691  1.00  0.00     0.278 C 
HETATM    9  O   UNL     1       4.620  25.045  57.342  1.00  0.00    -0.265 OA
HETATM   10  C   UNL     1       5.869  25.969  55.484  1.00  0.00     0.155 C 
HETATM   11  N   UNL     1       5.849  26.913  54.574  1.00  0.00    -0.162 NA
HETATM   12  C   UNL     1       4.532  29.618  56.561  1.00  0.00     0.036 C 
HETATM   13  C   UNL     1       4.977  30.664  55.570  1.00  0.00     0.044 C 
HETATM   14  N   UNL     1       5.218  30.378  54.340  1.00  0.00    -0.361 N 
HETATM   15  H   UNL     1       5.550  31.105  53.709  1.00  0.00     0.162 HD
HETATM   16  C   UNL     1       4.113  30.066  57.876  1.00  0.00     0.017 C 
HETATM   17  C   UNL     1       4.210  31.357  58.224  1.00  0.00     0.001 C 
HETATM   18  C   UNL     1       4.756  32.345  57.326  1.00  0.00     0.002 C 
HETATM   19  C   UNL     1       5.131  32.056  56.072  1.00  0.00     0.030 C 
HETATM   20  C   UNL     1       3.435  29.102  53.324  1.00  0.00     0.056 C 
HETATM   21  C   UNL     1       3.040  27.968  52.395  1.00  0.00     0.009 C 
HETATM   22  H   UNL     1       4.027  27.381  57.900  1.00  0.00     0.170 HD
ENDROOT
BRANCH   1  23
HETATM   23  C   UNL     1       3.540  28.990  49.987  1.00  0.00    -0.048 C 
HETATM   24  C   UNL     1       3.949  28.398  48.615  1.00  0.00     0.015 C 
HETATM   25  C   UNL     1       4.275  30.335  50.126  1.00  0.00     0.015 C 
HETATM   26  C   UNL     1       2.028  29.291  49.910  1.00  0.00     0.015 C 
ENDBRANCH   1  23
BRANCH  10  27
HETATM   27  C   UNL     1       6.896  24.886  55.407  1.00  0.00     0.000 A 
HETATM   28  C   UNL     1       7.833  24.744  56.435  1.00  0.00     0.017 A 
HETATM   29  C   UNL     1       8.708  23.652  56.443  1.00  0.00     0.037 A 
HETATM   30  C   UNL     1       8.651  22.680  55.440  1.00  0.00     0.068 A 
HETATM   31  C   UNL     1       7.731  22.827  54.406  1.00  0.00     0.037 A 
HETATM   32  C   UNL     1       6.854  23.920  54.392  1.00  0.00     0.017 A 
BRANCH  30  33
HETATM   33  O   UNL     1       9.533  21.647  55.585  1.00  0.00    -0.356 OA
HETATM   34  C   UNL     1       8.981  20.361  55.844  1.00  0.00     0.210 C 
ENDBRANCH  30  33
ENDBRANCH  10  27
TORSDOF 3
ENDMDL
MODEL 5
REMARK VINA RESULT:      -8.6      3.303      7.462
REMARK  3 active torsions:
REMARK  status: ('A' for Active; 'I' for Inactive)
REMARK    1  A    between atoms: C_2  and  C_3 
REMARK    2  A    between atoms: C_12  and  C_13 
REMARK    3  A    between atoms: C_16  and  O_17 
ROOT
HETATM    1  C   UNL     1       8.812  29.334  57.927  1.00  0.00    -0.007 C 
HETATM    2  C   UNL     1       7.803  28.188  58.171  1.00  0.00     0.009 C 
HETATM    3  C   UNL     1       6.439  28.341  57.471  1.00  0.00     0.056 C 
HETATM    4  C   UNL     1       6.505  28.799  55.998  1.00  0.00     0.129 C 
HETATM    5  N   UNL     1       6.739  27.697  55.026  1.00  0.00    -0.223 N 
HETATM    6  C   UNL     1       6.356  27.853  53.684  1.00  0.00     0.142 C 
HETATM    7  N   UNL     1       6.924  27.012  52.767  1.00  0.00    -0.305 N 
HETATM    8  C   UNL     1       7.629  25.907  53.166  1.00  0.00     0.278 C 
HETATM    9  O   UNL     1       8.294  25.235  52.396  1.00  0.00    -0.265 OA
HETATM   10  C   UNL     1       7.460  25.550  54.648  1.00  0.00     0.155 C 
HETATM   11  N   UNL     1       7.115  26.467  55.519  1.00  0.00    -0.162 NA
HETATM   12  C   UNL     1       5.432  28.770  53.313  1.00  0.00     0.036 C 
HETATM   13  C   UNL     1       4.746  29.479  54.454  1.00  0.00     0.044 C 
HETATM   14  N   UNL     1       5.192  29.424  55.658  1.00  0.00    -0.361 N 
HETATM   15  H   UNL     1       4.681  29.887  56.407  1.00  0.00     0.162 HD
HETATM   16  C   UNL     1       4.959  29.036  51.968  1.00  0.00     0.017 C 
HETATM   17  C   UNL     1       3.888  29.813  51.759  1.00  0.00     0.001 C 
HETATM   18  C   UNL     1       3.145  30.392  52.852  1.00  0.00     0.002 C 
HETATM   19  C   UNL     1       3.516  30.253  54.133  1.00  0.00     0.030 C 
HETATM   20  C   UNL     1       7.554  29.919  55.789  1.00  0.00     0.056 C 
HETATM   21  C   UNL     1       8.898  29.594  56.415  1.00  0.00     0.009 C 
HETATM   22  H   UNL     1       6.870  27.158  51.770  1.00  0.00     0.170 HD
ENDROOT
BRANCH   1  23
HETATM   23  C   UNL     1       8.656  30.603  58.868  1.00  0.00    -0.048 C 
HETATM   24  C   UNL     1       9.811  31.585  58.551  1.00  0.00     0.015 C 
HETATM   25  C   UNL     1       8.726  30.306  60.376  1.00  0.00     0.015 C 
HETATM   26  C   UNL     1       7.339  31.364  58.603  1.00  0.00     0.015 C 
ENDBRANCH   1  23
BRANCH  10  27
HETATM   27  C   UNL     1       7.579  24.124  55.080  1.00  0.00     0.000 A 
HETATM   28  C   UNL     1       7.400  23.099  54.146  1.00  0.00     0.017 A 
HETATM   29  C   UNL     1       7.646  21.769  54.506  1.00  0.00     0.037 A 
HETATM   30  C   UNL     1       8.087  21.444  55.792  1.00  0.00     0.068 A 
HETATM   31  C   UNL     1       8.249  22.461  56.730  1.00  0.00     0.037 A 
HETATM   32  C   UNL     1       8.003  23.793  56.375  1.00  0.00     0.017 A 
BRANCH  30  33
HETATM   33  O   UNL     1       8.326  20.116  56.003  1.00  0.00    -0.356 OA
HETATM   34  C   UNL     1       9.098  19.436  55.019  1.00  0.00     0.210 C 
ENDBRANCH  30  33
ENDBRANCH  10  27
TORSDOF 3
ENDMDL
MODEL 6
REMARK VINA RESULT:      -8.2      3.096      8.522
REMARK  3 active torsions:
REMARK  status: ('A' for Active; 'I' for Inactive)
REMARK    1  A    between atoms: C_2  and  C_3 
REMARK    2  A    between atoms: C_12  and  C_13 
REMARK    3  A    between atoms: C_16  and  O_17 
ROOT
HETATM    1  C   UNL     1       5.665  32.149  50.418  1.00  0.00    -0.007 C 
HETATM    2  C   UNL     1       4.751  31.569  51.521  1.00  0.00     0.009 C 
HETATM    3  C   UNL     1       3.582  30.694  51.027  1.00  0.00     0.056 C 
HETATM    4  C   UNL     1       3.949  29.669  49.931  1.00  0.00     0.129 C 
HETATM    5  N   UNL     1       4.519  28.396  50.451  1.00  0.00    -0.223 N 
HETATM    6  C   UNL     1       4.451  27.229  49.674  1.00  0.00     0.142 C 
HETATM    7  N   UNL     1       5.303  26.210  49.996  1.00  0.00    -0.305 N 
HETATM    8  C   UNL     1       6.003  26.222  51.174  1.00  0.00     0.278 C 
HETATM    9  O   UNL     1       6.898  25.430  51.418  1.00  0.00    -0.265 OA
HETATM   10  C   UNL     1       5.525  27.274  52.182  1.00  0.00     0.155 C 
HETATM   11  N   UNL     1       4.891  28.347  51.776  1.00  0.00    -0.162 NA
HETATM   12  C   UNL     1       3.552  27.098  48.670  1.00  0.00     0.036 C 
HETATM   13  C   UNL     1       2.546  28.217  48.567  1.00  0.00     0.044 C 
HETATM   14  N   UNL     1       2.697  29.329  49.192  1.00  0.00    -0.361 N 
HETATM   15  H   UNL     1       1.978  30.047  49.124  1.00  0.00     0.162 HD
HETATM   16  C   UNL     1       3.387  25.955  47.792  1.00  0.00     0.017 C 
HETATM   17  C   UNL     1       2.322  25.859  46.984  1.00  0.00     0.001 C 
HETATM   18  C   UNL     1       1.286  26.863  46.973  1.00  0.00     0.002 C 
HETATM   19  C   UNL     1       1.354  27.983  47.706  1.00  0.00     0.030 C 
HETATM   20  C   UNL     1       4.896  30.277  48.868  1.00  0.00     0.056 C 
HETATM   21  C   UNL     1       6.080  31.005  49.479  1.00  0.00     0.009 C 
HETATM   22  H   UNL     1       5.473  25.415  49.396  1.00  0.00     0.170 HD
ENDROOT
BRANCH   1  23
HETATM   23  C   UNL     1       5.161  33.491  49.738  1.00  0.00    -0.048 C 
HETATM   24  C   UNL     1       5.461  34.665  50.703  1.00  0.00     0.015 C 
HETATM   25  C   UNL     1       3.652  33.540  49.436  1.00  0.00     0.015 C 
HETATM   26  C   UNL     1       5.909  33.794  48.423  1.00  0.00     0.015 C 
ENDBRANCH   1  23
BRANCH  10  27
HETATM   27  C   UNL     1       5.684  27.016  53.646  1.00  0.00     0.000 A 
HETATM   28  C   UNL     1       5.334  25.769  54.173  1.00  0.00     0.017 A 
HETATM   29  C   UNL     1       5.608  25.469  55.512  1.00  0.00     0.037 A 
HETATM   30  C   UNL     1       6.246  26.397  56.338  1.00  0.00     0.068 A 
HETATM   31  C   UNL     1       6.581  27.647  55.822  1.00  0.00     0.037 A 
HETATM   32  C   UNL     1       6.307  27.952  54.483  1.00  0.00     0.017 A 
BRANCH  30  33
HETATM   33  O   UNL     1       6.489  25.968  57.612  1.00  0.00    -0.356 OA
HETATM   34  C   UNL     1       7.821  25.565  57.913  1.00  0.00     0.210 C 
ENDBRANCH  30  33
ENDBRANCH  10  27
TORSDOF 3
ENDMDL
MODEL 7
REMARK VINA RESULT:      -8.2      2.688      7.576
REMARK  3 active torsions:
REMARK  status: ('A' for Active; 'I' for Inactive)
REMARK    1  A    between atoms: C_2  and  C_3 
REMARK    2  A    between atoms: C_12  and  C_13 
REMARK    3  A    between atoms: C_16  and  O_17 
ROOT
HETATM    1  C   UNL     1       5.928  29.849  57.024  1.00  0.00    -0.007 C 
HETATM    2  C   UNL     1       5.242  28.467  57.115  1.00  0.00     0.009 C 
HETATM    3  C   UNL     1       4.206  28.163  56.015  1.00  0.00     0.056 C 
HETATM    4  C   UNL     1       4.642  28.540  54.583  1.00  0.00     0.129 C 
HETATM    5  N   UNL     1       5.477  27.509  53.907  1.00  0.00    -0.223 N 
HETATM    6  C   UNL     1       5.542  27.469  52.505  1.00  0.00     0.142 C 
HETATM    7  N   UNL     1       6.590  26.791  51.945  1.00  0.00    -0.305 N 
HETATM    8  C   UNL     1       7.386  25.974  52.703  1.00  0.00     0.278 C 
HETATM    9  O   UNL     1       8.427  25.494  52.285  1.00  0.00    -0.265 OA
HETATM   10  C   UNL     1       6.829  25.663  54.097  1.00  0.00     0.155 C 
HETATM   11  N   UNL     1       5.978  26.479  54.672  1.00  0.00    -0.162 NA
HETATM   12  C   UNL     1       4.589  28.043  51.735  1.00  0.00     0.036 C 
HETATM   13  C   UNL     1       3.395  28.572  52.489  1.00  0.00     0.044 C 
HETATM   14  N   UNL     1       3.405  28.719  53.766  1.00  0.00    -0.361 N 
HETATM   15  H   UNL     1       2.567  29.046  54.242  1.00  0.00     0.162 HD
HETATM   16  C   UNL     1       4.546  28.082  50.285  1.00  0.00     0.017 C 
HETATM   17  C   UNL     1       3.443  28.486  49.642  1.00  0.00     0.001 C 
HETATM   18  C   UNL     1       2.248  28.871  50.354  1.00  0.00     0.002 C 
HETATM   19  C   UNL     1       2.187  28.920  51.692  1.00  0.00     0.030 C 
HETATM   20  C   UNL     1       5.359  29.911  54.540  1.00  0.00     0.056 C 
HETATM   21  C   UNL     1       6.448  30.041  55.591  1.00  0.00     0.009 C 
HETATM   22  H   UNL     1       6.839  26.861  50.969  1.00  0.00     0.170 HD
ENDROOT
BRANCH   1  23
HETATM   23  C   UNL     1       5.130  31.060  57.669  1.00  0.00    -0.048 C 
HETATM   24  C   UNL     1       5.953  31.599  58.865  1.00  0.00     0.015 C 
HETATM   25  C   UNL     1       3.736  30.703  58.214  1.00  0.00     0.015 C 
HETATM   26  C   UNL     1       4.958  32.234  56.681  1.00  0.00     0.015 C 
ENDBRANCH   1  23
BRANCH  10  27
HETATM   27  C   UNL     1       7.171  24.365  54.754  1.00  0.00     0.000 A 
HETATM   28  C   UNL     1       7.210  23.192  53.995  1.00  0.00     0.017 A 
HETATM   29  C   UNL     1       7.664  21.998  54.568  1.00  0.00     0.037 A 
HETATM   30  C   UNL     1       8.098  21.959  55.895  1.00  0.00     0.068 A 
HETATM   31  C   UNL     1       8.044  23.122  56.660  1.00  0.00     0.037 A 
HETATM   32  C   UNL     1       7.589  24.319  56.092  1.00  0.00     0.017 A 
BRANCH  30  33
HETATM   33  O   UNL     1       8.551  20.743  56.320  1.00  0.00    -0.356 OA
HETATM   34  C   UNL     1       8.890  19.794  55.315  1.00  0.00     0.210 C 
ENDBRANCH  30  33
ENDBRANCH  10  27
TORSDOF 3
ENDMDL
MODEL 8
REMARK VINA RESULT:      -8.1      3.059      8.059
REMARK  3 active torsions:
REMARK  status: ('A' for Active; 'I' for Inactive)
REMARK    1  A    between atoms: C_2  and  C_3 
REMARK    2  A    between atoms: C_12  and  C_13 
REMARK    3  A    between atoms: C_16  and  O_17 
ROOT
HETATM    1  C   UNL     1       3.962  30.564  50.758  1.00  0.00    -0.007 C 
HETATM    2  C   UNL     1       3.109  30.231  52.003  1.00  0.00     0.009 C 
HETATM    3  C   UNL     1       3.200  28.776  52.504  1.00  0.00     0.056 C 
HETATM    4  C   UNL     1       4.628  28.193  52.564  1.00  0.00     0.129 C 
HETATM    5  N   UNL     1       5.376  28.535  53.805  1.00  0.00    -0.223 N 
HETATM    6  C   UNL     1       6.444  27.725  54.225  1.00  0.00     0.142 C 
HETATM    7  N   UNL     1       7.331  28.267  55.113  1.00  0.00    -0.305 N 
HETATM    8  C   UNL     1       7.051  29.443  55.760  1.00  0.00     0.278 C 
HETATM    9  O   UNL     1       7.880  30.047  56.419  1.00  0.00    -0.265 OA
HETATM   10  C   UNL     1       5.593  29.901  55.637  1.00  0.00     0.155 C 
HETATM   11  N   UNL     1       4.853  29.506  54.629  1.00  0.00    -0.162 NA
HETATM   12  C   UNL     1       6.572  26.446  53.802  1.00  0.00     0.036 C 
HETATM   13  C   UNL     1       5.411  25.924  52.993  1.00  0.00     0.044 C 
HETATM   14  N   UNL     1       4.512  26.705  52.509  1.00  0.00    -0.361 N 
HETATM   15  H   UNL     1       3.724  26.310  51.997  1.00  0.00     0.162 HD
HETATM   16  C   UNL     1       7.627  25.514  54.151  1.00  0.00     0.017 C 
HETATM   17  C   UNL     1       7.524  24.214  53.844  1.00  0.00     0.001 C 
HETATM   18  C   UNL     1       6.357  23.681  53.184  1.00  0.00     0.002 C 
HETATM   19  C   UNL     1       5.342  24.454  52.772  1.00  0.00     0.030 C 
HETATM   20  C   UNL     1       5.462  28.581  51.319  1.00  0.00     0.056 C 
HETATM   21  C   UNL     1       5.395  30.064  51.003  1.00  0.00     0.009 C 
HETATM   22  H   UNL     1       8.225  27.853  55.330  1.00  0.00     0.170 HD
ENDROOT
BRANCH   1  23
HETATM   23  C   UNL     1       3.307  30.212  49.357  1.00  0.00    -0.048 C 
HETATM   24  C   UNL     1       2.328  31.352  48.980  1.00  0.00     0.015 C 
HETATM   25  C   UNL     1       2.496  28.904  49.328  1.00  0.00     0.015 C 
HETATM   26  C   UNL     1       4.356  30.134  48.227  1.00  0.00     0.015 C 
ENDBRANCH   1  23
BRANCH  10  27
HETATM   27  C   UNL     1       4.980  30.710  56.734  1.00  0.00     0.000 A 
HETATM   28  C   UNL     1       5.094  32.103  56.715  1.00  0.00     0.017 A 
HETATM   29  C   UNL     1       4.408  32.878  57.658  1.00  0.00     0.037 A 
HETATM   30  C   UNL     1       3.589  32.279  58.619  1.00  0.00     0.068 A 
HETATM   31  C   UNL     1       3.487  30.891  58.651  1.00  0.00     0.037 A 
HETATM   32  C   UNL     1       4.173  30.111  57.711  1.00  0.00     0.017 A 
BRANCH  30  33
HETATM   33  O   UNL     1       2.946  33.147  59.454  1.00  0.00    -0.356 OA
HETATM   34  C   UNL     1       3.459  33.267  60.777  1.00  0.00     0.210 C 
ENDBRANCH  30  33
ENDBRANCH  10  27
TORSDOF 3
ENDMDL
MODEL 9
REMARK VINA RESULT:      -7.8      2.234      5.638
REMARK  3 active torsions:
REMARK  status: ('A' for Active; 'I' for Inactive)
REMARK    1  A    between atoms: C_2  and  C_3 
REMARK    2  A    between atoms: C_12  and  C_13 
REMARK    3  A    between atoms: C_16  and  O_17 
ROOT
HETATM    1  C   UNL     1       4.144  30.103  56.173  1.00  0.00    -0.007 C 
HETATM    2  C   UNL     1       5.248  30.238  55.101  1.00  0.00     0.009 C 
HETATM    3  C   UNL     1       6.501  29.368  55.320  1.00  0.00     0.056 C 
HETATM    4  C   UNL     1       6.219  27.906  55.731  1.00  0.00     0.129 C 
HETATM    5  N   UNL     1       5.938  26.994  54.589  1.00  0.00    -0.223 N 
HETATM    6  C   UNL     1       6.138  25.612  54.731  1.00  0.00     0.142 C 
HETATM    7  N   UNL     1       5.517  24.792  53.830  1.00  0.00    -0.305 N 
HETATM    8  C   UNL     1       4.942  25.299  52.695  1.00  0.00     0.278 C 
HETATM    9  O   UNL     1       4.231  24.634  51.960  1.00  0.00    -0.265 OA
HETATM   10  C   UNL     1       5.320  26.754  52.391  1.00  0.00     0.155 C 
HETATM   11  N   UNL     1       5.710  27.556  53.353  1.00  0.00    -0.162 NA
HETATM   12  C   UNL     1       6.945  25.108  55.694  1.00  0.00     0.036 C 
HETATM   13  C   UNL     1       7.721  26.137  56.477  1.00  0.00     0.044 C 
HETATM   14  N   UNL     1       7.434  27.389  56.427  1.00  0.00    -0.361 N 
HETATM   15  H   UNL     1       8.004  28.057  56.944  1.00  0.00     0.162 HD
HETATM   16  C   UNL     1       7.226  23.708  55.951  1.00  0.00     0.017 C 
HETATM   17  C   UNL     1       8.208  23.348  56.788  1.00  0.00     0.001 C 
HETATM   18  C   UNL     1       9.043  24.326  57.443  1.00  0.00     0.002 C 
HETATM   19  C   UNL     1       8.846  25.646  57.318  1.00  0.00     0.030 C 
HETATM   20  C   UNL     1       5.081  27.811  56.776  1.00  0.00     0.056 C 
HETATM   21  C   UNL     1       3.851  28.609  56.384  1.00  0.00     0.009 C 
HETATM   22  H   UNL     1       5.434  23.793  53.951  1.00  0.00     0.170 HD
ENDROOT
BRANCH   1  23
HETATM   23  C   UNL     1       4.332  30.990  57.475  1.00  0.00    -0.048 C 
HETATM   24  C   UNL     1       3.338  30.488  58.552  1.00  0.00     0.015 C 
HETATM   25  C   UNL     1       4.057  32.492  57.284  1.00  0.00     0.015 C 
HETATM   26  C   UNL     1       5.747  30.848  58.076  1.00  0.00     0.015 C 
ENDBRANCH   1  23
BRANCH  10  27
HETATM   27  C   UNL     1       5.351  27.227  50.973  1.00  0.00     0.000 A 
HETATM   28  C   UNL     1       4.882  26.393  49.953  1.00  0.00     0.017 A 
HETATM   29  C   UNL     1       4.776  26.875  48.644  1.00  0.00     0.037 A 
HETATM   30  C   UNL     1       5.121  28.194  48.335  1.00  0.00     0.068 A 
HETATM   31  C   UNL     1       5.605  29.021  49.345  1.00  0.00     0.037 A 
HETATM   32  C   UNL     1       5.714  28.543  50.657  1.00  0.00     0.017 A 
BRANCH  30  33
HETATM   33  O   UNL     1       4.936  28.549  47.029  1.00  0.00    -0.356 OA
HETATM   34  C   UNL     1       4.545  29.895  46.777  1.00  0.00     0.210 C 
ENDBRANCH  30  33
ENDBRANCH  10  27
TORSDOF 3
ENDMDL
MODEL 10
REMARK VINA RESULT:      -7.8      2.926      7.282
REMARK  3 active torsions:
REMARK  status: ('A' for Active; 'I' for Inactive)
REMARK    1  A    between atoms: C_2  and  C_3 
REMARK    2  A    between atoms: C_12  and  C_13 
REMARK    3  A    between atoms: C_16  and  O_17 
ROOT
HETATM    1  C   UNL     1       2.097  28.165  49.135  1.00  0.00    -0.007 C 
HETATM    2  C   UNL     1       3.602  27.863  49.324  1.00  0.00     0.009 C 
HETATM    3  C   UNL     1       4.487  29.077  49.667  1.00  0.00     0.056 C 
HETATM    4  C   UNL     1       3.911  30.025  50.740  1.00  0.00     0.129 C 
HETATM    5  N   UNL     1       4.175  29.595  52.141  1.00  0.00    -0.223 N 
HETATM    6  C   UNL     1       4.155  30.540  53.179  1.00  0.00     0.142 C 
HETATM    7  N   UNL     1       4.012  30.068  54.454  1.00  0.00    -0.305 N 
HETATM    8  C   UNL     1       4.143  28.732  54.730  1.00  0.00     0.278 C 
HETATM    9  O   UNL     1       3.852  28.250  55.812  1.00  0.00    -0.265 OA
HETATM   10  C   UNL     1       4.745  27.906  53.587  1.00  0.00     0.155 C 
HETATM   11  N   UNL     1       4.658  28.322  52.347  1.00  0.00    -0.162 NA
HETATM   12  C   UNL     1       4.312  31.862  52.937  1.00  0.00     0.036 C 
HETATM   13  C   UNL     1       4.665  32.211  51.513  1.00  0.00     0.044 C 
HETATM   14  N   UNL     1       4.552  31.361  50.555  1.00  0.00    -0.361 N 
HETATM   15  H   UNL     1       4.834  31.624  49.612  1.00  0.00     0.162 HD
HETATM   16  C   UNL     1       4.301  32.935  53.914  1.00  0.00     0.017 C 
HETATM   17  C   UNL     1       4.685  34.174  53.577  1.00  0.00     0.001 C 
HETATM   18  C   UNL     1       5.149  34.489  52.247  1.00  0.00     0.002 C 
HETATM   19  C   UNL     1       5.157  33.591  51.252  1.00  0.00     0.030 C 
HETATM   20  C   UNL     1       2.396  30.271  50.539  1.00  0.00     0.056 C 
HETATM   21  C   UNL     1       1.611  28.987  50.339  1.00  0.00     0.009 C 
HETATM   22  H   UNL     1       3.795  30.657  55.245  1.00  0.00     0.170 HD
ENDROOT
BRANCH   1  23
HETATM   23  C   UNL     1       1.671  28.677  47.695  1.00  0.00    -0.048 C 
HETATM   24  C   UNL     1       1.168  27.460  46.878  1.00  0.00     0.015 C 
HETATM   25  C   UNL     1       2.800  29.325  46.875  1.00  0.00     0.015 C 
HETATM   26  C   UNL     1       0.503  29.684  47.758  1.00  0.00     0.015 C 
ENDBRANCH   1  23
BRANCH  10  27
HETATM   27  C   UNL     1       5.536  26.678  53.903  1.00  0.00     0.000 A 
HETATM   28  C   UNL     1       5.267  25.486  53.223  1.00  0.00     0.017 A 
HETATM   29  C   UNL     1       6.090  24.370  53.409  1.00  0.00     0.037 A 
HETATM   30  C   UNL     1       7.197  24.428  54.259  1.00  0.00     0.068 A 
HETATM   31  C   UNL     1       7.458  25.608  54.952  1.00  0.00     0.037 A 
HETATM   32  C   UNL     1       6.636  26.728  54.771  1.00  0.00     0.017 A 
BRANCH  30  33
HETATM   33  O   UNL     1       7.939  23.284  54.323  1.00  0.00    -0.356 OA
HETATM   34  C   UNL     1       7.790  22.358  53.252  1.00  0.00     0.210 C 
ENDBRANCH  30  33
ENDBRANCH  10  27
TORSDOF 3
ENDMDL
