MODEL 1
REMARK VINA RESULT:      -7.8      0.000      0.000
REMARK  5 active torsions:
REMARK  status: ('A' for Active; 'I' for Inactive)
REMARK    1  A    between atoms: C_2  and  N_3 
REMARK    2  A    between atoms: N_3  and  C_6 
REMARK    3  A    between atoms: C_6  and  C_7 
REMARK    4  A    between atoms: C_8  and  N_9 
REMARK       I    between atoms: N_9  and  C_10 
REMARK    5  A    between atoms: C_10  and  C_11 
ROOT
HETATM    1  C   UNL     1       7.912  24.012  53.418  1.00  0.00    -0.006 A 
HETATM    2  C   UNL     1       7.623  24.112  54.797  1.00  0.00     0.043 A 
HETATM    3  C   UNL     1       7.542  22.919  55.550  1.00  0.00     0.030 A 
HETATM    4  C   UNL     1       7.701  21.659  54.975  1.00  0.00     0.002 A 
HETATM    5  C   UNL     1       7.953  21.556  53.619  1.00  0.00     0.001 A 
HETATM    6  C   UNL     1       8.061  22.716  52.855  1.00  0.00     0.011 A 
ENDROOT
BRANCH   2   7
HETATM    7  N   UNL     1       7.379  25.265  55.583  1.00  0.00    -0.321 N 
HETATM    8  C   UNL     1       7.928  25.744  56.750  1.00  0.00     0.274 C 
HETATM    9  O   UNL     1       8.721  25.152  57.471  1.00  0.00    -0.266 OA
HETATM   10  H   UNL     1       6.696  25.922  55.192  1.00  0.00     0.169 HD
BRANCH   8  11
HETATM   11  C   UNL     1       7.402  27.083  57.161  1.00  0.00     0.126 A 
HETATM   12  N   UNL     1       8.313  27.903  57.739  1.00  0.00    -0.231 NA
HETATM   13  C   UNL     1       7.873  29.145  58.032  1.00  0.00     0.127 A 
HETATM   14 CL   UNL     1       9.069  30.178  58.690  1.00  0.00    -0.062 Cl
HETATM   15  C   UNL     1       6.580  29.595  57.813  1.00  0.00     0.044 A 
HETATM   16  C   UNL     1       5.665  28.712  57.244  1.00  0.00     0.006 A 
HETATM   17  C   UNL     1       6.082  27.430  56.899  1.00  0.00     0.037 A 
ENDBRANCH   8  11
ENDBRANCH   2   7
BRANCH   1  18
HETATM   18  C   UNL     1       8.106  25.147  52.444  1.00  0.00     0.273 C 
BRANCH  18  19
HETATM   19  N   UNL     1       6.959  25.301  51.512  1.00  0.00    -0.072 N 
HETATM   20  H   UNL     1       6.720  24.402  51.085  1.00  0.00     0.277 HD
HETATM   21  H   UNL     1       7.342  25.903  50.766  1.00  0.00     0.277 HD
BRANCH  19  22
HETATM   22  C   UNL     1       5.772  26.004  52.050  1.00  0.00     0.228 C 
HETATM   23  C   UNL     1       4.766  24.968  52.511  1.00  0.00     0.034 C 
ENDBRANCH  19  22
ENDBRANCH  18  19
ENDBRANCH   1  18
TORSDOF 5
ENDMDL
MODEL 2
REMARK VINA RESULT:      -7.7      1.235      1.647
REMARK  5 active torsions:
REMARK  status: ('A' for Active; 'I' for Inactive)
REMARK    1  A    between atoms: C_2  and  N_3 
REMARK    2  A    between atoms: N_3  and  C_6 
REMARK    3  A    between atoms: C_6  and  C_7 
REMARK    4  A    between atoms: C_8  and  N_9 
REMARK       I    between atoms: N_9  and  C_10 
REMARK    5  A    between atoms: C_10  and  C_11 
ROOT
HETATM    1  C   UNL     1       7.869  22.133  54.134  1.00  0.00    -0.006 A 
HETATM    2  C   UNL     1       7.892  22.586  55.472  1.00  0.00     0.043 A 
HETATM    3  C   UNL     1       8.372  21.704  56.466  1.00  0.00     0.030 A 
HETATM    4  C   UNL     1       8.787  20.405  56.177  1.00  0.00     0.002 A 
HETATM    5  C   UNL     1       8.737  19.949  54.873  1.00  0.00     0.001 A 
HETATM    6  C   UNL     1       8.290  20.802  53.867  1.00  0.00     0.011 A 
ENDROOT
BRANCH   2   7
HETATM    7  N   UNL     1       7.481  23.832  56.006  1.00  0.00    -0.321 N 
HETATM    8  C   UNL     1       8.097  24.760  56.813  1.00  0.00     0.274 C 
HETATM    9  O   UNL     1       9.172  24.621  57.384  1.00  0.00    -0.266 OA
HETATM   10  H   UNL     1       6.560  24.158  55.695  1.00  0.00     0.169 HD
BRANCH   8  11
HETATM   11  C   UNL     1       7.286  25.997  57.041  1.00  0.00     0.126 A 
HETATM   12  N   UNL     1       7.950  27.014  57.643  1.00  0.00    -0.231 NA
HETATM   13  C   UNL     1       7.255  28.163  57.773  1.00  0.00     0.127 A 
HETATM   14 CL   UNL     1       8.148  29.450  58.466  1.00  0.00    -0.062 Cl
HETATM   15  C   UNL     1       5.941  28.340  57.369  1.00  0.00     0.044 A 
HETATM   16  C   UNL     1       5.283  27.262  56.782  1.00  0.00     0.006 A 
HETATM   17  C   UNL     1       5.969  26.064  56.602  1.00  0.00     0.037 A 
ENDBRANCH   8  11
ENDBRANCH   2   7
BRANCH   1  18
HETATM   18  C   UNL     1       7.461  22.920  52.913  1.00  0.00     0.273 C 
BRANCH  18  19
HETATM   19  N   UNL     1       8.227  24.184  52.768  1.00  0.00    -0.072 N 
HETATM   20  H   UNL     1       8.826  24.149  51.937  1.00  0.00     0.277 HD
HETATM   21  H   UNL     1       8.848  24.179  53.593  1.00  0.00     0.277 HD
BRANCH  19  22
HETATM   22  C   UNL     1       7.441  25.437  52.843  1.00  0.00     0.228 C 
HETATM   23  C   UNL     1       5.967  25.081  52.862  1.00  0.00     0.034 C 
ENDBRANCH  19  22
ENDBRANCH  18  19
ENDBRANCH   1  18
TORSDOF 5
ENDMDL
MODEL 3
REMARK VINA RESULT:      -7.6      2.824      5.976
REMARK  5 active torsions:
REMARK  status: ('A' for Active; 'I' for Inactive)
REMARK    1  A    between atoms: C_2  and  N_3 
REMARK    2  A    between atoms: N_3  and  C_6 
REMARK    3  A    between atoms: C_6  and  C_7 
REMARK    4  A    between atoms: C_8  and  N_9 
REMARK       I    between atoms: N_9  and  C_10 
REMARK    5  A    between atoms: C_10  and  C_11 
ROOT
HETATM    1  C   UNL     1       6.158  27.166  55.370  1.00  0.00    -0.006 A 
HETATM    2  C   UNL     1       7.116  26.221  55.801  1.00  0.00     0.043 A 
HETATM    3  C   UNL     1       7.948  26.563  56.890  1.00  0.00     0.030 A 
HETATM    4  C   UNL     1       7.880  27.804  57.523  1.00  0.00     0.002 A 
HETATM    5  C   UNL     1       6.966  28.742  57.083  1.00  0.00     0.001 A 
HETATM    6  C   UNL     1       6.115  28.426  56.027  1.00  0.00     0.011 A 
ENDROOT
BRANCH   2   7
HETATM    7  N   UNL     1       7.399  24.930  55.288  1.00  0.00    -0.321 N 
HETATM    8  C   UNL     1       7.938  24.485  54.104  1.00  0.00     0.274 C 
HETATM    9  O   UNL     1       8.187  25.171  53.120  1.00  0.00    -0.266 OA
HETATM   10  H   UNL     1       7.228  24.156  55.937  1.00  0.00     0.169 HD
BRANCH   8  11
HETATM   11  C   UNL     1       8.138  23.003  54.050  1.00  0.00     0.126 A 
HETATM   12  N   UNL     1       8.547  22.438  55.212  1.00  0.00    -0.231 NA
HETATM   13  C   UNL     1       8.644  21.092  55.200  1.00  0.00     0.127 A 
HETATM   14 CL   UNL     1       9.087  20.405  56.705  1.00  0.00    -0.062 Cl
HETATM   15  C   UNL     1       8.391  20.293  54.095  1.00  0.00     0.044 A 
HETATM   16  C   UNL     1       8.003  20.915  52.910  1.00  0.00     0.006 A 
HETATM   17  C   UNL     1       7.862  22.299  52.884  1.00  0.00     0.037 A 
ENDBRANCH   8  11
ENDBRANCH   2   7
BRANCH   1  18
HETATM   18  C   UNL     1       5.132  26.990  54.279  1.00  0.00     0.273 C 
BRANCH  18  19
HETATM   19  N   UNL     1       5.713  27.143  52.920  1.00  0.00    -0.072 N 
HETATM   20  H   UNL     1       6.730  27.254  52.974  1.00  0.00     0.277 HD
HETATM   21  H   UNL     1       5.323  28.043  52.599  1.00  0.00     0.277 HD
BRANCH  19  22
HETATM   22  C   UNL     1       5.309  26.129  51.919  1.00  0.00     0.228 C 
HETATM   23  C   UNL     1       4.700  24.947  52.649  1.00  0.00     0.034 C 
ENDBRANCH  19  22
ENDBRANCH  18  19
ENDBRANCH   1  18
TORSDOF 5
ENDMDL
MODEL 4
REMARK VINA RESULT:      -7.6      2.097      3.710
REMARK  5 active torsions:
REMARK  status: ('A' for Active; 'I' for Inactive)
REMARK    1  A    between atoms: C_2  and  N_3 
REMARK    2  A    between atoms: N_3  and  C_6 
REMARK    3  A    between atoms: C_6  and  C_7 
REMARK    4  A    between atoms: C_8  and  N_9 
REMARK       I    between atoms: N_9  and  C_10 
REMARK    5  A    between atoms: C_10  and  C_11 
ROOT
HETATM    1  C   UNL     1       7.531  24.824  55.050  1.00  0.00    -0.006 A 
HETATM    2  C   UNL     1       7.167  26.188  55.097  1.00  0.00     0.043 A 
HETATM    3  C   UNL     1       6.104  26.624  54.275  1.00  0.00     0.030 A 
HETATM    4  C   UNL     1       5.434  25.768  53.402  1.00  0.00     0.002 A 
HETATM    5  C   UNL     1       5.808  24.439  53.330  1.00  0.00     0.001 A 
HETATM    6  C   UNL     1       6.837  23.974  54.146  1.00  0.00     0.011 A 
ENDROOT
BRANCH   2   7
HETATM    7  N   UNL     1       7.727  27.241  55.861  1.00  0.00    -0.321 N 
HETATM    8  C   UNL     1       7.984  27.398  57.203  1.00  0.00     0.274 C 
HETATM    9  O   UNL     1       7.632  26.642  58.100  1.00  0.00    -0.266 OA
HETATM   10  H   UNL     1       8.073  28.038  55.317  1.00  0.00     0.169 HD
BRANCH   8  11
HETATM   11  C   UNL     1       8.690  28.675  57.539  1.00  0.00     0.126 A 
HETATM   12  N   UNL     1       8.262  29.284  58.671  1.00  0.00    -0.231 NA
HETATM   13  C   UNL     1       8.951  30.388  59.031  1.00  0.00     0.127 A 
HETATM   14 CL   UNL     1       8.436  31.089  60.506  1.00  0.00    -0.062 Cl
HETATM   15  C   UNL     1      10.008  30.927  58.314  1.00  0.00     0.044 A 
HETATM   16  C   UNL     1      10.397  30.288  57.139  1.00  0.00     0.006 A 
HETATM   17  C   UNL     1       9.734  29.130  56.743  1.00  0.00     0.037 A 
ENDBRANCH   8  11
ENDBRANCH   2   7
BRANCH   1  18
HETATM   18  C   UNL     1       8.583  24.133  55.880  1.00  0.00     0.273 C 
BRANCH  18  19
HETATM   19  N   UNL     1       8.723  22.693  55.539  1.00  0.00    -0.072 N 
HETATM   20  H   UNL     1       9.629  22.515  55.098  1.00  0.00     0.277 HD
HETATM   21  H   UNL     1       7.998  22.552  54.819  1.00  0.00     0.277 HD
BRANCH  19  22
HETATM   22  C   UNL     1       8.426  21.733  56.627  1.00  0.00     0.228 C 
HETATM   23  C   UNL     1       7.737  20.523  56.028  1.00  0.00     0.034 C 
ENDBRANCH  19  22
ENDBRANCH  18  19
ENDBRANCH   1  18
TORSDOF 5
ENDMDL
MODEL 5
REMARK VINA RESULT:      -7.5      3.196      6.043
REMARK  5 active torsions:
REMARK  status: ('A' for Active; 'I' for Inactive)
REMARK    1  A    between atoms: C_2  and  N_3 
REMARK    2  A    between atoms: N_3  and  C_6 
REMARK    3  A    between atoms: C_6  and  C_7 
REMARK    4  A    between atoms: C_8  and  N_9 
REMARK       I    between atoms: N_9  and  C_10 
REMARK    5  A    between atoms: C_10  and  C_11 
ROOT
HETATM    1  C   UNL     1       5.012  26.639  53.430  1.00  0.00    -0.006 A 
HETATM    2  C   UNL     1       5.596  25.855  54.450  1.00  0.00     0.043 A 
HETATM    3  C   UNL     1       5.528  26.331  55.779  1.00  0.00     0.030 A 
HETATM    4  C   UNL     1       4.941  27.553  56.107  1.00  0.00     0.002 A 
HETATM    5  C   UNL     1       4.397  28.337  55.107  1.00  0.00     0.001 A 
HETATM    6  C   UNL     1       4.427  27.884  53.790  1.00  0.00     0.011 A 
ENDROOT
BRANCH   2   7
HETATM    7  N   UNL     1       6.280  24.619  54.353  1.00  0.00    -0.321 N 
HETATM    8  C   UNL     1       7.430  24.227  53.707  1.00  0.00     0.274 C 
HETATM    9  O   UNL     1       8.080  24.899  52.916  1.00  0.00    -0.266 OA
HETATM   10  H   UNL     1       5.889  23.858  54.917  1.00  0.00     0.169 HD
BRANCH   8  11
HETATM   11  C   UNL     1       7.822  22.808  53.978  1.00  0.00     0.126 A 
HETATM   12  N   UNL     1       8.006  22.505  55.286  1.00  0.00    -0.231 NA
HETATM   13  C   UNL     1       8.272  21.208  55.549  1.00  0.00     0.127 A 
HETATM   14 CL   UNL     1       8.421  20.845  57.216  1.00  0.00    -0.062 Cl
HETATM   15  C   UNL     1       8.396  20.218  54.587  1.00  0.00     0.044 A 
HETATM   16  C   UNL     1       8.230  20.576  53.251  1.00  0.00     0.006 A 
HETATM   17  C   UNL     1       7.926  21.897  52.934  1.00  0.00     0.037 A 
ENDBRANCH   8  11
ENDBRANCH   2   7
BRANCH   1  18
HETATM   18  C   UNL     1       4.912  26.298  51.964  1.00  0.00     0.273 C 
BRANCH  18  19
HETATM   19  N   UNL     1       4.261  27.373  51.172  1.00  0.00    -0.072 N 
HETATM   20  H   UNL     1       4.124  28.210  51.747  1.00  0.00     0.277 HD
HETATM   21  H   UNL     1       3.327  26.983  50.971  1.00  0.00     0.277 HD
BRANCH  19  22
HETATM   22  C   UNL     1       4.877  27.683  49.862  1.00  0.00     0.228 C 
HETATM   23  C   UNL     1       4.504  26.587  48.883  1.00  0.00     0.034 C 
ENDBRANCH  19  22
ENDBRANCH  18  19
ENDBRANCH   1  18
TORSDOF 5
ENDMDL
MODEL 6
REMARK VINA RESULT:      -7.5      3.483      5.794
REMARK  5 active torsions:
REMARK  status: ('A' for Active; 'I' for Inactive)
REMARK    1  A    between atoms: C_2  and  N_3 
REMARK    2  A    between atoms: N_3  and  C_6 
REMARK    3  A    between atoms: C_6  and  C_7 
REMARK    4  A    between atoms: C_8  and  N_9 
REMARK       I    between atoms: N_9  and  C_10 
REMARK    5  A    between atoms: C_10  and  C_11 
ROOT
HETATM    1  C   UNL     1       7.151  23.522  55.028  1.00  0.00    -0.006 A 
HETATM    2  C   UNL     1       7.144  23.617  53.619  1.00  0.00     0.043 A 
HETATM    3  C   UNL     1       7.726  22.565  52.876  1.00  0.00     0.030 A 
HETATM    4  C   UNL     1       8.331  21.466  53.484  1.00  0.00     0.002 A 
HETATM    5  C   UNL     1       8.368  21.385  54.863  1.00  0.00     0.001 A 
HETATM    6  C   UNL     1       7.782  22.395  55.623  1.00  0.00     0.011 A 
ENDROOT
BRANCH   2   7
HETATM    7  N   UNL     1       6.636  24.648  52.790  1.00  0.00    -0.321 N 
HETATM    8  C   UNL     1       5.385  25.197  52.630  1.00  0.00     0.274 C 
HETATM    9  O   UNL     1       4.345  24.782  53.125  1.00  0.00    -0.266 OA
HETATM   10  H   UNL     1       7.337  25.139  52.227  1.00  0.00     0.169 HD
BRANCH   8  11
HETATM   11  C   UNL     1       5.350  26.357  51.685  1.00  0.00     0.126 A 
HETATM   12  N   UNL     1       5.078  26.037  50.396  1.00  0.00    -0.231 NA
HETATM   13  C   UNL     1       4.956  27.083  49.552  1.00  0.00     0.127 A 
HETATM   14 CL   UNL     1       4.535  26.648  47.950  1.00  0.00    -0.062 Cl
HETATM   15  C   UNL     1       5.122  28.411  49.913  1.00  0.00     0.044 A 
HETATM   16  C   UNL     1       5.431  28.697  51.241  1.00  0.00     0.006 A 
HETATM   17  C   UNL     1       5.539  27.651  52.154  1.00  0.00     0.037 A 
ENDBRANCH   8  11
ENDBRANCH   2   7
BRANCH   1  18
HETATM   18  C   UNL     1       6.536  24.488  56.009  1.00  0.00     0.273 C 
BRANCH  18  19
HETATM   19  N   UNL     1       7.272  24.537  57.299  1.00  0.00    -0.072 N 
HETATM   20  H   UNL     1       7.653  23.616  57.531  1.00  0.00     0.277 HD
HETATM   21  H   UNL     1       6.530  24.744  57.985  1.00  0.00     0.277 HD
BRANCH  19  22
HETATM   22  C   UNL     1       8.280  25.614  57.434  1.00  0.00     0.228 C 
HETATM   23  C   UNL     1       7.769  26.846  56.712  1.00  0.00     0.034 C 
ENDBRANCH  19  22
ENDBRANCH  18  19
ENDBRANCH   1  18
TORSDOF 5
ENDMDL
MODEL 7
REMARK VINA RESULT:      -7.4      1.800      2.152
REMARK  5 active torsions:
REMARK  status: ('A' for Active; 'I' for Inactive)
REMARK    1  A    between atoms: C_2  and  N_3 
REMARK    2  A    between atoms: N_3  and  C_6 
REMARK    3  A    between atoms: C_6  and  C_7 
REMARK    4  A    between atoms: C_8  and  N_9 
REMARK       I    between atoms: N_9  and  C_10 
REMARK    5  A    between atoms: C_10  and  C_11 
ROOT
HETATM    1  C   UNL     1       8.084  22.552  54.278  1.00  0.00    -0.006 A 
HETATM    2  C   UNL     1       8.044  23.124  55.569  1.00  0.00     0.043 A 
HETATM    3  C   UNL     1       8.219  22.273  56.682  1.00  0.00     0.030 A 
HETATM    4  C   UNL     1       8.394  20.895  56.551  1.00  0.00     0.002 A 
HETATM    5  C   UNL     1       8.402  20.328  55.291  1.00  0.00     0.001 A 
HETATM    6  C   UNL     1       8.256  21.144  54.172  1.00  0.00     0.011 A 
ENDROOT
BRANCH   2   7
HETATM    7  N   UNL     1       7.834  24.474  55.947  1.00  0.00    -0.321 N 
HETATM    8  C   UNL     1       6.720  25.280  55.983  1.00  0.00     0.274 C 
HETATM    9  O   UNL     1       5.614  25.003  55.536  1.00  0.00    -0.266 OA
HETATM   10  H   UNL     1       8.656  24.951  56.331  1.00  0.00     0.169 HD
BRANCH   8  11
HETATM   11  C   UNL     1       6.974  26.637  56.559  1.00  0.00     0.126 A 
HETATM   12  N   UNL     1       5.882  27.434  56.650  1.00  0.00    -0.231 NA
HETATM   13  C   UNL     1       6.082  28.626  57.250  1.00  0.00     0.127 A 
HETATM   14 CL   UNL     1       4.666  29.575  57.417  1.00  0.00    -0.062 Cl
HETATM   15  C   UNL     1       7.304  29.073  57.728  1.00  0.00     0.044 A 
HETATM   16  C   UNL     1       8.409  28.237  57.589  1.00  0.00     0.006 A 
HETATM   17  C   UNL     1       8.245  26.986  57.002  1.00  0.00     0.037 A 
ENDBRANCH   8  11
ENDBRANCH   2   7
BRANCH   1  18
HETATM   18  C   UNL     1       7.986  23.274  52.958  1.00  0.00     0.273 C 
BRANCH  18  19
HETATM   19  N   UNL     1       6.650  23.888  52.743  1.00  0.00    -0.072 N 
HETATM   20  H   UNL     1       6.095  23.852  53.603  1.00  0.00     0.277 HD
HETATM   21  H   UNL     1       6.205  23.250  52.064  1.00  0.00     0.277 HD
BRANCH  19  22
HETATM   22  C   UNL     1       6.642  25.233  52.123  1.00  0.00     0.228 C 
HETATM   23  C   UNL     1       5.203  25.677  51.953  1.00  0.00     0.034 C 
ENDBRANCH  19  22
ENDBRANCH  18  19
ENDBRANCH   1  18
TORSDOF 5
ENDMDL
MODEL 8
REMARK VINA RESULT:      -7.4      3.155      6.444
REMARK  5 active torsions:
REMARK  status: ('A' for Active; 'I' for Inactive)
REMARK    1  A    between atoms: C_2  and  N_3 
REMARK    2  A    between atoms: N_3  and  C_6 
REMARK    3  A    between atoms: C_6  and  C_7 
REMARK    4  A    between atoms: C_8  and  N_9 
REMARK       I    between atoms: N_9  and  C_10 
REMARK    5  A    between atoms: C_10  and  C_11 
ROOT
HETATM    1  C   UNL     1       6.672  27.220  54.776  1.00  0.00    -0.006 A 
HETATM    2  C   UNL     1       6.311  25.927  54.337  1.00  0.00     0.043 A 
HETATM    3  C   UNL     1       5.214  25.804  53.456  1.00  0.00     0.030 A 
HETATM    4  C   UNL     1       4.462  26.902  53.039  1.00  0.00     0.002 A 
HETATM    5  C   UNL     1       4.794  28.165  53.492  1.00  0.00     0.001 A 
HETATM    6  C   UNL     1       5.885  28.322  54.343  1.00  0.00     0.011 A 
ENDROOT
BRANCH   2   7
HETATM    7  N   UNL     1       6.889  24.674  54.660  1.00  0.00    -0.321 N 
HETATM    8  C   UNL     1       7.087  24.006  55.846  1.00  0.00     0.274 C 
HETATM    9  O   UNL     1       6.900  24.457  56.969  1.00  0.00    -0.266 OA
HETATM   10  H   UNL     1       7.174  24.106  53.857  1.00  0.00     0.169 HD
BRANCH   8  11
HETATM   11  C   UNL     1       7.663  22.636  55.679  1.00  0.00     0.126 A 
HETATM   12  N   UNL     1       7.633  22.152  54.413  1.00  0.00    -0.231 NA
HETATM   13  C   UNL     1       8.230  20.955  54.234  1.00  0.00     0.127 A 
HETATM   14 CL   UNL     1       8.241  20.410  52.611  1.00  0.00    -0.062 Cl
HETATM   15  C   UNL     1       8.819  20.210  55.243  1.00  0.00     0.044 A 
HETATM   16  C   UNL     1       8.804  20.727  56.537  1.00  0.00     0.006 A 
HETATM   17  C   UNL     1       8.224  21.972  56.763  1.00  0.00     0.037 A 
ENDBRANCH   8  11
ENDBRANCH   2   7
BRANCH   1  18
HETATM   18  C   UNL     1       7.839  27.590  55.659  1.00  0.00     0.273 C 
BRANCH  18  19
HETATM   19  N   UNL     1       7.526  27.448  57.104  1.00  0.00    -0.072 N 
HETATM   20  H   UNL     1       7.992  26.624  57.495  1.00  0.00     0.277 HD
HETATM   21  H   UNL     1       6.512  27.256  57.107  1.00  0.00     0.277 HD
BRANCH  19  22
HETATM   22  C   UNL     1       7.725  28.657  57.936  1.00  0.00     0.228 C 
HETATM   23  C   UNL     1       9.016  29.329  57.509  1.00  0.00     0.034 C 
ENDBRANCH  19  22
ENDBRANCH  18  19
ENDBRANCH   1  18
TORSDOF 5
ENDMDL
MODEL 9
REMARK VINA RESULT:      -7.3      2.862      6.685
REMARK  5 active torsions:
REMARK  status: ('A' for Active; 'I' for Inactive)
REMARK    1  A    between atoms: C_2  and  N_3 
REMARK    2  A    between atoms: N_3  and  C_6 
REMARK    3  A    between atoms: C_6  and  C_7 
REMARK    4  A    between atoms: C_8  and  N_9 
REMARK       I    between atoms: N_9  and  C_10 
REMARK    5  A    between atoms: C_10  and  C_11 
ROOT
HETATM    1  C   UNL     1       6.923  28.890  55.767  1.00  0.00    -0.006 A 
HETATM    2  C   UNL     1       6.216  27.744  55.339  1.00  0.00     0.043 A 
HETATM    3  C   UNL     1       4.809  27.823  55.251  1.00  0.00     0.030 A 
HETATM    4  C   UNL     1       4.100  28.971  55.604  1.00  0.00     0.002 A 
HETATM    5  C   UNL     1       4.786  30.083  56.053  1.00  0.00     0.001 A 
HETATM    6  C   UNL     1       6.176  30.045  56.128  1.00  0.00     0.011 A 
ENDROOT
BRANCH   2   7
HETATM    7  N   UNL     1       6.711  26.466  54.977  1.00  0.00    -0.321 N 
HETATM    8  C   UNL     1       7.469  25.529  55.639  1.00  0.00     0.274 C 
HETATM    9  O   UNL     1       8.022  25.679  56.721  1.00  0.00    -0.266 OA
HETATM   10  H   UNL     1       6.406  26.124  54.061  1.00  0.00     0.169 HD
BRANCH   8  11
HETATM   11  C   UNL     1       7.665  24.259  54.871  1.00  0.00     0.126 A 
HETATM   12  N   UNL     1       7.634  23.128  55.617  1.00  0.00    -0.231 NA
HETATM   13  C   UNL     1       7.720  21.973  54.924  1.00  0.00     0.127 A 
HETATM   14 CL   UNL     1       7.600  20.563  55.889  1.00  0.00    -0.062 Cl
HETATM   15  C   UNL     1       7.867  21.888  53.548  1.00  0.00     0.044 A 
HETATM   16  C   UNL     1       7.926  23.075  52.820  1.00  0.00     0.006 A 
HETATM   17  C   UNL     1       7.812  24.289  53.489  1.00  0.00     0.037 A 
ENDBRANCH   8  11
ENDBRANCH   2   7
BRANCH   1  18
HETATM   18  C   UNL     1       8.419  29.051  55.872  1.00  0.00     0.273 C 
BRANCH  18  19
HETATM   19  N   UNL     1       8.934  28.721  57.226  1.00  0.00    -0.072 N 
HETATM   20  H   UNL     1       9.329  27.777  57.241  1.00  0.00     0.277 HD
HETATM   21  H   UNL     1       8.079  28.705  57.804  1.00  0.00     0.277 HD
BRANCH  19  22
HETATM   22  C   UNL     1       9.837  29.721  57.842  1.00  0.00     0.228 C 
HETATM   23  C   UNL     1      11.100  29.808  57.008  1.00  0.00     0.034 C 
ENDBRANCH  19  22
ENDBRANCH  18  19
ENDBRANCH   1  18
TORSDOF 5
ENDMDL
MODEL 10
REMARK VINA RESULT:      -7.3      2.858      6.298
REMARK  5 active torsions:
REMARK  status: ('A' for Active; 'I' for Inactive)
REMARK    1  A    between atoms: C_2  and  N_3 
REMARK    2  A    between atoms: N_3  and  C_6 
REMARK    3  A    between atoms: C_6  and  C_7 
REMARK    4  A    between atoms: C_8  and  N_9 
REMARK       I    between atoms: N_9  and  C_10 
REMARK    5  A    between atoms: C_10  and  C_11 
ROOT
HETATM    1  C   UNL     1       6.526  27.496  52.850  1.00  0.00    -0.006 A 
HETATM    2  C   UNL     1       6.355  26.174  52.384  1.00  0.00     0.043 A 
HETATM    3  C   UNL     1       5.552  25.969  51.240  1.00  0.00     0.030 A 
HETATM    4  C   UNL     1       4.903  27.014  50.584  1.00  0.00     0.002 A 
HETATM    5  C   UNL     1       5.043  28.306  51.056  1.00  0.00     0.001 A 
HETATM    6  C   UNL     1       5.847  28.543  52.169  1.00  0.00     0.011 A 
ENDROOT
BRANCH   2   7
HETATM    7  N   UNL     1       6.869  24.962  52.908  1.00  0.00    -0.321 N 
HETATM    8  C   UNL     1       6.671  24.288  54.090  1.00  0.00     0.274 C 
HETATM    9  O   UNL     1       6.052  24.701  55.063  1.00  0.00    -0.266 OA
HETATM   10  H   UNL     1       7.471  24.432  52.270  1.00  0.00     0.169 HD
BRANCH   8  11
HETATM   11  C   UNL     1       7.373  22.968  54.159  1.00  0.00     0.126 A 
HETATM   12  N   UNL     1       7.628  22.520  55.413  1.00  0.00    -0.231 NA
HETATM   13  C   UNL     1       8.180  21.291  55.488  1.00  0.00     0.127 A 
HETATM   14 CL   UNL     1       8.418  20.723  57.086  1.00  0.00    -0.062 Cl
HETATM   15  C   UNL     1       8.518  20.510  54.393  1.00  0.00     0.044 A 
HETATM   16  C   UNL     1       8.268  21.019  53.121  1.00  0.00     0.006 A 
HETATM   17  C   UNL     1       7.673  22.270  52.995  1.00  0.00     0.037 A 
ENDBRANCH   8  11
ENDBRANCH   2   7
BRANCH   1  18
HETATM   18  C   UNL     1       7.384  27.950  54.005  1.00  0.00     0.273 C 
BRANCH  18  19
HETATM   19  N   UNL     1       6.739  27.710  55.322  1.00  0.00    -0.072 N 
HETATM   20  H   UNL     1       5.992  27.015  55.235  1.00  0.00     0.277 HD
HETATM   21  H   UNL     1       6.292  28.616  55.533  1.00  0.00     0.277 HD
BRANCH  19  22
HETATM   22  C   UNL     1       7.651  27.420  56.452  1.00  0.00     0.228 C 
HETATM   23  C   UNL     1       8.428  28.680  56.780  1.00  0.00     0.034 C 
ENDBRANCH  19  22
ENDBRANCH  18  19
ENDBRANCH   1  18
TORSDOF 5
ENDMDL
