MODEL 1
REMARK VINA RESULT:      -9.2      0.000      0.000
REMARK  6 active torsions:
REMARK  status: ('A' for Active; 'I' for Inactive)
REMARK    1  A    between atoms: C_2  and  N_3 
REMARK    2  A    between atoms: C_2  and  C_25 
REMARK    3  A    between atoms: C_7  and  N_8 
REMARK       I    between atoms: N_8  and  C_9 
REMARK       I    between atoms: C_9  and  N_10 
REMARK    4  A    between atoms: N_10  and  C_11 
REMARK    5  A    between atoms: C_11  and  C_12 
REMARK    6  A    between atoms: C_20  and  O_21 
ROOT
HETATM    1  N   UNL     1       7.189  29.157  58.111  1.00  0.00    -0.293 N 
HETATM    2  C   UNL     1       6.364  28.745  57.049  1.00  0.00     0.322 C 
HETATM    3  N   UNL     1       6.796  28.942  55.776  1.00  0.00    -0.337 N 
HETATM    4  O   UNL     1       5.351  28.167  57.401  1.00  0.00    -0.247 OA
HETATM    5  H   UNL     1       6.802  28.839  58.991  1.00  0.00     0.172 HD
HETATM    6  H   UNL     1       7.756  29.217  55.677  1.00  0.00     0.164 HD
ENDROOT
BRANCH   3   7
HETATM    7  C   UNL     1       6.321  28.104  54.692  1.00  0.00     0.181 C 
BRANCH   7   8
HETATM    8  C   UNL     1       6.912  26.737  54.619  1.00  0.00     0.028 A 
HETATM    9  N   UNL     1       7.333  26.141  53.452  1.00  0.00    -0.357 N 
HETATM   10  H   UNL     1       7.333  26.585  52.542  1.00  0.00     0.166 HD
HETATM   11  C   UNL     1       7.578  24.803  53.637  1.00  0.00     0.043 A 
HETATM   12  C   UNL     1       7.354  24.530  54.982  1.00  0.00    -0.005 A 
HETATM   13  C   UNL     1       7.942  23.822  52.711  1.00  0.00     0.033 A 
HETATM   14  C   UNL     1       6.992  25.762  55.601  1.00  0.00     0.040 A 
HETATM   15  C   UNL     1       7.467  23.197  55.422  1.00  0.00     0.050 A 
HETATM   16  C   UNL     1       7.770  22.183  54.500  1.00  0.00     0.069 A 
HETATM   17  C   UNL     1       8.030  22.503  53.168  1.00  0.00     0.039 A 
BRANCH  16  18
HETATM   18  O   UNL     1       7.785  20.916  55.023  1.00  0.00    -0.356 OA
HETATM   19  C   UNL     1       8.278  20.797  56.353  1.00  0.00     0.210 C 
ENDBRANCH  16  18
ENDBRANCH   7   8
ENDBRANCH   3   7
BRANCH   1  20
HETATM   20  C   UNL     1       8.389  29.832  58.151  1.00  0.00     0.129 A 
HETATM   21  N   UNL     1       8.735  30.791  59.086  1.00  0.00    -0.249 N 
HETATM   22  N   UNL     1       9.964  31.305  58.871  1.00  0.00    -0.183 NA
HETATM   23  C   UNL     1      10.387  30.695  57.764  1.00  0.00     0.142 A 
HETATM   24  C   UNL     1       9.446  29.771  57.270  1.00  0.00     0.071 A 
BRANCH  21  25
HETATM   25  C   UNL     1       8.003  31.232  60.280  1.00  0.00     0.111 C 
HETATM   26  C   UNL     1       6.980  32.339  59.993  1.00  0.00     0.035 C 
BRANCH  25  27
HETATM   27  C   UNL     1       8.942  31.504  61.491  1.00  0.00     0.002 C 
HETATM   28  C   UNL     1       8.324  32.361  62.599  1.00  0.00     0.011 C 
HETATM   29  C   UNL     1       9.465  30.199  62.102  1.00  0.00     0.011 C 
ENDBRANCH  25  27
ENDBRANCH  21  25
ENDBRANCH   1  20
TORSDOF 6
ENDMDL
MODEL 2
REMARK VINA RESULT:      -9.2      3.664      6.299
REMARK  6 active torsions:
REMARK  status: ('A' for Active; 'I' for Inactive)
REMARK    1  A    between atoms: C_2  and  N_3 
REMARK    2  A    between atoms: C_2  and  C_25 
REMARK    3  A    between atoms: C_7  and  N_8 
REMARK       I    between atoms: N_8  and  C_9 
REMARK       I    between atoms: C_9  and  N_10 
REMARK    4  A    between atoms: N_10  and  C_11 
REMARK    5  A    between atoms: C_11  and  C_12 
REMARK    6  A    between atoms: C_20  and  O_21 
ROOT
HETATM    1  N   UNL     1       6.999  28.828  54.676  1.00  0.00    -0.293 N 
HETATM    2  C   UNL     1       7.776  28.298  55.722  1.00  0.00     0.322 C 
HETATM    3  N   UNL     1       7.216  27.369  56.540  1.00  0.00    -0.337 N 
HETATM    4  O   UNL     1       8.930  28.688  55.732  1.00  0.00    -0.247 OA
HETATM    5  H   UNL     1       7.576  29.407  54.079  1.00  0.00     0.172 HD
HETATM    6  H   UNL     1       6.334  26.995  56.241  1.00  0.00     0.164 HD
ENDROOT
BRANCH   3   7
HETATM    7  C   UNL     1       8.040  26.407  57.247  1.00  0.00     0.181 C 
BRANCH   7   8
HETATM    8  C   UNL     1       7.917  24.991  56.797  1.00  0.00     0.028 A 
HETATM    9  N   UNL     1       8.114  23.902  57.616  1.00  0.00    -0.357 N 
HETATM   10  H   UNL     1       8.307  23.952  58.609  1.00  0.00     0.166 HD
HETATM   11  C   UNL     1       8.202  22.742  56.889  1.00  0.00     0.043 A 
HETATM   12  C   UNL     1       8.009  23.081  55.555  1.00  0.00    -0.005 A 
HETATM   13  C   UNL     1       8.473  21.438  57.312  1.00  0.00     0.033 A 
HETATM   14  C   UNL     1       7.774  24.486  55.514  1.00  0.00     0.040 A 
HETATM   15  C   UNL     1       8.125  22.069  54.583  1.00  0.00     0.050 A 
HETATM   16  C   UNL     1       8.458  20.763  54.975  1.00  0.00     0.069 A 
HETATM   17  C   UNL     1       8.601  20.452  56.327  1.00  0.00     0.039 A 
BRANCH  16  18
HETATM   18  O   UNL     1       8.615  19.875  53.943  1.00  0.00    -0.356 OA
HETATM   19  C   UNL     1       8.309  20.369  52.643  1.00  0.00     0.210 C 
ENDBRANCH  16  18
ENDBRANCH   7   8
ENDBRANCH   3   7
BRANCH   1  20
HETATM   20  C   UNL     1       5.680  28.659  54.316  1.00  0.00     0.129 A 
HETATM   21  N   UNL     1       5.239  27.970  53.201  1.00  0.00    -0.249 N 
HETATM   22  N   UNL     1       3.895  27.983  53.082  1.00  0.00    -0.183 NA
HETATM   23  C   UNL     1       3.481  28.723  54.110  1.00  0.00     0.142 A 
HETATM   24  C   UNL     1       4.549  29.174  54.909  1.00  0.00     0.071 A 
BRANCH  21  25
HETATM   25  C   UNL     1       6.009  27.186  52.228  1.00  0.00     0.111 C 
HETATM   26  C   UNL     1       5.466  27.288  50.796  1.00  0.00     0.035 C 
BRANCH  25  27
HETATM   27  C   UNL     1       6.295  25.737  52.719  1.00  0.00     0.002 C 
HETATM   28  C   UNL     1       5.083  24.802  52.695  1.00  0.00     0.011 C 
HETATM   29  C   UNL     1       7.440  25.091  51.931  1.00  0.00     0.011 C 
ENDBRANCH  25  27
ENDBRANCH  21  25
ENDBRANCH   1  20
TORSDOF 6
ENDMDL
MODEL 3
REMARK VINA RESULT:      -8.7      2.479      9.214
REMARK  6 active torsions:
REMARK  status: ('A' for Active; 'I' for Inactive)
REMARK    1  A    between atoms: C_2  and  N_3 
REMARK    2  A    between atoms: C_2  and  C_25 
REMARK    3  A    between atoms: C_7  and  N_8 
REMARK       I    between atoms: N_8  and  C_9 
REMARK       I    between atoms: C_9  and  N_10 
REMARK    4  A    between atoms: N_10  and  C_11 
REMARK    5  A    between atoms: C_11  and  C_12 
REMARK    6  A    between atoms: C_20  and  O_21 
ROOT
HETATM    1  N   UNL     1       8.089  28.583  54.389  1.00  0.00    -0.293 N 
HETATM    2  C   UNL     1       8.786  29.209  55.438  1.00  0.00     0.322 C 
HETATM    3  N   UNL     1       8.224  29.221  56.675  1.00  0.00    -0.337 N 
HETATM    4  O   UNL     1       9.891  29.617  55.128  1.00  0.00    -0.247 OA
HETATM    5  H   UNL     1       8.675  28.541  53.565  1.00  0.00     0.172 HD
HETATM    6  H   UNL     1       7.420  28.633  56.797  1.00  0.00     0.164 HD
ENDROOT
BRANCH   3   7
HETATM    7  C   UNL     1       9.046  29.329  57.865  1.00  0.00     0.181 C 
BRANCH   7   8
HETATM    8  C   UNL     1       8.605  30.337  58.871  1.00  0.00     0.028 A 
HETATM    9  N   UNL     1       9.224  30.537  60.084  1.00  0.00    -0.357 N 
HETATM   10  H   UNL     1      10.065  30.062  60.391  1.00  0.00     0.166 HD
HETATM   11  C   UNL     1       8.460  31.323  60.909  1.00  0.00     0.043 A 
HETATM   12  C   UNL     1       7.326  31.686  60.192  1.00  0.00    -0.005 A 
HETATM   13  C   UNL     1       8.674  31.701  62.237  1.00  0.00     0.033 A 
HETATM   14  C   UNL     1       7.454  31.109  58.894  1.00  0.00     0.040 A 
HETATM   15  C   UNL     1       6.333  32.441  60.845  1.00  0.00     0.050 A 
HETATM   16  C   UNL     1       6.495  32.781  62.196  1.00  0.00     0.069 A 
HETATM   17  C   UNL     1       7.666  32.437  62.871  1.00  0.00     0.039 A 
BRANCH  16  18
HETATM   18  O   UNL     1       5.438  33.455  62.750  1.00  0.00    -0.356 OA
HETATM   19  C   UNL     1       5.309  33.358  64.165  1.00  0.00     0.210 C 
ENDBRANCH  16  18
ENDBRANCH   7   8
ENDBRANCH   3   7
BRANCH   1  20
HETATM   20  C   UNL     1       6.841  28.006  54.313  1.00  0.00     0.129 A 
HETATM   21  N   UNL     1       6.593  26.672  54.041  1.00  0.00    -0.249 N 
HETATM   22  N   UNL     1       5.276  26.386  54.005  1.00  0.00    -0.183 NA
HETATM   23  C   UNL     1       4.679  27.559  54.216  1.00  0.00     0.142 A 
HETATM   24  C   UNL     1       5.604  28.603  54.409  1.00  0.00     0.071 A 
BRANCH  21  25
HETATM   25  C   UNL     1       7.543  25.564  53.885  1.00  0.00     0.111 C 
HETATM   26  C   UNL     1       7.905  25.272  52.422  1.00  0.00     0.035 C 
BRANCH  25  27
HETATM   27  C   UNL     1       7.149  24.315  54.726  1.00  0.00     0.002 C 
HETATM   28  C   UNL     1       7.468  22.971  54.064  1.00  0.00     0.011 C 
HETATM   29  C   UNL     1       7.788  24.349  56.119  1.00  0.00     0.011 C 
ENDBRANCH  25  27
ENDBRANCH  21  25
ENDBRANCH   1  20
TORSDOF 6
ENDMDL
MODEL 4
REMARK VINA RESULT:      -8.6      2.968      9.684
REMARK  6 active torsions:
REMARK  status: ('A' for Active; 'I' for Inactive)
REMARK    1  A    between atoms: C_2  and  N_3 
REMARK    2  A    between atoms: C_2  and  C_25 
REMARK    3  A    between atoms: C_7  and  N_8 
REMARK       I    between atoms: N_8  and  C_9 
REMARK       I    between atoms: C_9  and  N_10 
REMARK    4  A    between atoms: N_10  and  C_11 
REMARK    5  A    between atoms: C_11  and  C_12 
REMARK    6  A    between atoms: C_20  and  O_21 
ROOT
HETATM    1  N   UNL     1       8.440  29.031  56.738  1.00  0.00    -0.293 N 
HETATM    2  C   UNL     1       9.166  29.909  57.564  1.00  0.00     0.322 C 
HETATM    3  N   UNL     1       8.580  30.362  58.703  1.00  0.00    -0.337 N 
HETATM    4  O   UNL     1      10.308  30.112  57.193  1.00  0.00    -0.247 OA
HETATM    5  H   UNL     1       9.038  28.681  56.000  1.00  0.00     0.172 HD
HETATM    6  H   UNL     1       7.726  29.905  58.969  1.00  0.00     0.164 HD
ENDROOT
BRANCH   3   7
HETATM    7  C   UNL     1       9.383  30.787  59.834  1.00  0.00     0.181 C 
BRANCH   7   8
HETATM    8  C   UNL     1       8.627  31.164  61.063  1.00  0.00     0.028 A 
HETATM    9  N   UNL     1       7.260  31.055  61.190  1.00  0.00    -0.357 N 
HETATM   10  H   UNL     1       6.643  30.662  60.490  1.00  0.00     0.166 HD
HETATM   11  C   UNL     1       6.811  31.716  62.306  1.00  0.00     0.043 A 
HETATM   12  C   UNL     1       7.928  32.232  62.952  1.00  0.00    -0.005 A 
HETATM   13  C   UNL     1       5.505  31.920  62.761  1.00  0.00     0.033 A 
HETATM   14  C   UNL     1       9.067  31.831  62.195  1.00  0.00     0.040 A 
HETATM   15  C   UNL     1       7.732  33.026  64.099  1.00  0.00     0.050 A 
HETATM   16  C   UNL     1       6.428  33.298  64.541  1.00  0.00     0.069 A 
HETATM   17  C   UNL     1       5.334  32.726  63.892  1.00  0.00     0.039 A 
BRANCH  16  18
HETATM   18  O   UNL     1       6.351  34.137  65.622  1.00  0.00    -0.356 OA
HETATM   19  C   UNL     1       5.151  34.061  66.386  1.00  0.00     0.210 C 
ENDBRANCH  16  18
ENDBRANCH   7   8
ENDBRANCH   3   7
BRANCH   1  20
HETATM   20  C   UNL     1       7.149  28.554  56.792  1.00  0.00     0.129 A 
HETATM   21  N   UNL     1       6.724  27.343  56.276  1.00  0.00    -0.249 N 
HETATM   22  N   UNL     1       5.401  27.142  56.449  1.00  0.00    -0.183 NA
HETATM   23  C   UNL     1       4.975  28.255  57.045  1.00  0.00     0.142 A 
HETATM   24  C   UNL     1       6.018  29.170  57.279  1.00  0.00     0.071 A 
BRANCH  21  25
HETATM   25  C   UNL     1       7.512  26.261  55.673  1.00  0.00     0.111 C 
HETATM   26  C   UNL     1       7.296  26.119  54.160  1.00  0.00     0.035 C 
BRANCH  25  27
HETATM   27  C   UNL     1       7.417  24.932  56.477  1.00  0.00     0.002 C 
HETATM   28  C   UNL     1       7.280  23.672  55.617  1.00  0.00     0.011 C 
HETATM   29  C   UNL     1       8.609  24.762  57.427  1.00  0.00     0.011 C 
ENDBRANCH  25  27
ENDBRANCH  21  25
ENDBRANCH   1  20
TORSDOF 6
ENDMDL
MODEL 5
REMARK VINA RESULT:      -8.6      2.309      9.132
REMARK  6 active torsions:
REMARK  status: ('A' for Active; 'I' for Inactive)
REMARK    1  A    between atoms: C_2  and  N_3 
REMARK    2  A    between atoms: C_2  and  C_25 
REMARK    3  A    between atoms: C_7  and  N_8 
REMARK       I    between atoms: N_8  and  C_9 
REMARK       I    between atoms: C_9  and  N_10 
REMARK    4  A    between atoms: N_10  and  C_11 
REMARK    5  A    between atoms: C_11  and  C_12 
REMARK    6  A    between atoms: C_20  and  O_21 
ROOT
HETATM    1  N   UNL     1       6.088  26.085  56.191  1.00  0.00    -0.293 N 
HETATM    2  C   UNL     1       5.814  27.430  56.496  1.00  0.00     0.322 C 
HETATM    3  N   UNL     1       6.814  28.199  57.003  1.00  0.00    -0.337 N 
HETATM    4  O   UNL     1       4.691  27.792  56.190  1.00  0.00    -0.247 OA
HETATM    5  H   UNL     1       5.298  25.674  55.711  1.00  0.00     0.172 HD
HETATM    6  H   UNL     1       7.734  27.799  56.969  1.00  0.00     0.164 HD
ENDROOT
BRANCH   3   7
HETATM    7  C   UNL     1       6.804  29.639  56.834  1.00  0.00     0.181 C 
BRANCH   7   8
HETATM    8  C   UNL     1       7.213  30.436  58.026  1.00  0.00     0.028 A 
HETATM    9  N   UNL     1       8.188  30.045  58.917  1.00  0.00    -0.357 N 
HETATM   10  H   UNL     1       8.756  29.212  58.824  1.00  0.00     0.166 HD
HETATM   11  C   UNL     1       8.169  30.823  60.047  1.00  0.00     0.043 A 
HETATM   12  C   UNL     1       7.180  31.783  59.866  1.00  0.00    -0.005 A 
HETATM   13  C   UNL     1       8.926  30.721  61.218  1.00  0.00     0.033 A 
HETATM   14  C   UNL     1       6.625  31.567  58.571  1.00  0.00     0.040 A 
HETATM   15  C   UNL     1       6.906  32.671  60.924  1.00  0.00     0.050 A 
HETATM   16  C   UNL     1       7.609  32.549  62.133  1.00  0.00     0.069 A 
HETATM   17  C   UNL     1       8.624  31.602  62.262  1.00  0.00     0.039 A 
BRANCH  16  18
HETATM   18  O   UNL     1       7.213  33.417  63.117  1.00  0.00    -0.356 OA
HETATM   19  C   UNL     1       7.611  33.080  64.443  1.00  0.00     0.210 C 
ENDBRANCH  16  18
ENDBRANCH   7   8
ENDBRANCH   3   7
BRANCH   1  20
HETATM   20  C   UNL     1       7.203  25.296  56.375  1.00  0.00     0.129 A 
HETATM   21  N   UNL     1       7.560  24.222  55.579  1.00  0.00    -0.249 N 
HETATM   22  N   UNL     1       8.687  23.615  56.004  1.00  0.00    -0.183 NA
HETATM   23  C   UNL     1       9.027  24.285  57.105  1.00  0.00     0.142 A 
HETATM   24  C   UNL     1       8.136  25.339  57.386  1.00  0.00     0.071 A 
BRANCH  21  25
HETATM   25  C   UNL     1       6.946  23.741  54.336  1.00  0.00     0.111 C 
HETATM   26  C   UNL     1       7.596  22.463  53.789  1.00  0.00     0.035 C 
BRANCH  25  27
HETATM   27  C   UNL     1       6.745  24.875  53.290  1.00  0.00     0.002 C 
HETATM   28  C   UNL     1       7.771  24.886  52.153  1.00  0.00     0.011 C 
HETATM   29  C   UNL     1       5.335  24.844  52.689  1.00  0.00     0.011 C 
ENDBRANCH  25  27
ENDBRANCH  21  25
ENDBRANCH   1  20
TORSDOF 6
ENDMDL
MODEL 6
REMARK VINA RESULT:      -8.5      1.630      2.739
REMARK  6 active torsions:
REMARK  status: ('A' for Active; 'I' for Inactive)
REMARK    1  A    between atoms: C_2  and  N_3 
REMARK    2  A    between atoms: C_2  and  C_25 
REMARK    3  A    between atoms: C_7  and  N_8 
REMARK       I    between atoms: N_8  and  C_9 
REMARK       I    between atoms: C_9  and  N_10 
REMARK    4  A    between atoms: N_10  and  C_11 
REMARK    5  A    between atoms: C_11  and  C_12 
REMARK    6  A    between atoms: C_20  and  O_21 
ROOT
HETATM    1  N   UNL     1       6.508  30.156  56.040  1.00  0.00    -0.293 N 
HETATM    2  C   UNL     1       6.375  28.782  55.770  1.00  0.00     0.322 C 
HETATM    3  N   UNL     1       5.790  27.990  56.705  1.00  0.00    -0.337 N 
HETATM    4  O   UNL     1       6.742  28.457  54.655  1.00  0.00    -0.247 OA
HETATM    5  H   UNL     1       6.843  30.638  55.215  1.00  0.00     0.172 HD
HETATM    6  H   UNL     1       5.336  28.467  57.463  1.00  0.00     0.164 HD
ENDROOT
BRANCH   3   7
HETATM    7  C   UNL     1       5.134  26.753  56.328  1.00  0.00     0.181 C 
BRANCH   7   8
HETATM    8  C   UNL     1       6.026  25.675  55.812  1.00  0.00     0.028 A 
HETATM    9  N   UNL     1       6.239  25.424  54.476  1.00  0.00    -0.357 N 
HETATM   10  H   UNL     1       5.857  25.974  53.715  1.00  0.00     0.166 HD
HETATM   11  C   UNL     1       6.879  24.225  54.290  1.00  0.00     0.043 A 
HETATM   12  C   UNL     1       7.134  23.699  55.551  1.00  0.00    -0.005 A 
HETATM   13  C   UNL     1       7.212  23.560  53.107  1.00  0.00     0.033 A 
HETATM   14  C   UNL     1       6.646  24.644  56.501  1.00  0.00     0.040 A 
HETATM   15  C   UNL     1       7.724  22.423  55.639  1.00  0.00     0.050 A 
HETATM   16  C   UNL     1       8.012  21.709  54.466  1.00  0.00     0.069 A 
HETATM   17  C   UNL     1       7.782  22.287  53.218  1.00  0.00     0.039 A 
BRANCH  16  18
HETATM   18  O   UNL     1       8.519  20.451  54.669  1.00  0.00    -0.356 OA
HETATM   19  C   UNL     1       9.276  20.269  55.861  1.00  0.00     0.210 C 
ENDBRANCH  16  18
ENDBRANCH   7   8
ENDBRANCH   3   7
BRANCH   1  20
HETATM   20  C   UNL     1       6.226  30.919  57.153  1.00  0.00     0.129 A 
HETATM   21  N   UNL     1       6.939  30.897  58.337  1.00  0.00    -0.249 N 
HETATM   22  N   UNL     1       6.426  31.729  59.267  1.00  0.00    -0.183 NA
HETATM   23  C   UNL     1       5.352  32.255  58.680  1.00  0.00     0.142 A 
HETATM   24  C   UNL     1       5.176  31.783  57.365  1.00  0.00     0.071 A 
BRANCH  21  25
HETATM   25  C   UNL     1       8.180  30.182  58.662  1.00  0.00     0.111 C 
HETATM   26  C   UNL     1       8.637  30.384  60.113  1.00  0.00     0.035 C 
BRANCH  25  27
HETATM   27  C   UNL     1       9.288  30.390  57.590  1.00  0.00     0.002 C 
HETATM   28  C   UNL     1      10.457  31.271  58.040  1.00  0.00     0.011 C 
HETATM   29  C   UNL     1       9.838  29.052  57.081  1.00  0.00     0.011 C 
ENDBRANCH  25  27
ENDBRANCH  21  25
ENDBRANCH   1  20
TORSDOF 6
ENDMDL
MODEL 7
REMARK VINA RESULT:      -8.5      3.466      9.331
REMARK  6 active torsions:
REMARK  status: ('A' for Active; 'I' for Inactive)
REMARK    1  A    between atoms: C_2  and  N_3 
REMARK    2  A    between atoms: C_2  and  C_25 
REMARK    3  A    between atoms: C_7  and  N_8 
REMARK       I    between atoms: N_8  and  C_9 
REMARK       I    between atoms: C_9  and  N_10 
REMARK    4  A    between atoms: N_10  and  C_11 
REMARK    5  A    between atoms: C_11  and  C_12 
REMARK    6  A    between atoms: C_20  and  O_21 
ROOT
HETATM    1  N   UNL     1       8.973  28.538  56.588  1.00  0.00    -0.293 N 
HETATM    2  C   UNL     1       9.388  29.702  57.260  1.00  0.00     0.322 C 
HETATM    3  N   UNL     1       8.841  29.984  58.471  1.00  0.00    -0.337 N 
HETATM    4  O   UNL     1      10.280  30.311  56.697  1.00  0.00    -0.247 OA
HETATM    5  H   UNL     1       9.548  28.392  55.768  1.00  0.00     0.172 HD
HETATM    6  H   UNL     1       8.296  29.250  58.888  1.00  0.00     0.164 HD
ENDROOT
BRANCH   3   7
HETATM    7  C   UNL     1       9.554  30.793  59.440  1.00  0.00     0.181 C 
BRANCH   7   8
HETATM    8  C   UNL     1       8.810  31.116  60.691  1.00  0.00     0.028 A 
HETATM    9  N   UNL     1       7.443  31.013  60.823  1.00  0.00    -0.357 N 
HETATM   10  H   UNL     1       6.818  30.660  60.109  1.00  0.00     0.166 HD
HETATM   11  C   UNL     1       7.007  31.622  61.973  1.00  0.00     0.043 A 
HETATM   12  C   UNL     1       8.133  32.097  62.635  1.00  0.00    -0.005 A 
HETATM   13  C   UNL     1       5.707  31.815  62.447  1.00  0.00     0.033 A 
HETATM   14  C   UNL     1       9.264  31.724  61.851  1.00  0.00     0.040 A 
HETATM   15  C   UNL     1       7.952  32.835  63.821  1.00  0.00     0.050 A 
HETATM   16  C   UNL     1       6.653  33.097  64.285  1.00  0.00     0.069 A 
HETATM   17  C   UNL     1       5.550  32.567  63.617  1.00  0.00     0.039 A 
BRANCH  16  18
HETATM   18  O   UNL     1       6.591  33.883  65.406  1.00  0.00    -0.356 OA
HETATM   19  C   UNL     1       5.309  34.000  66.015  1.00  0.00     0.210 C 
ENDBRANCH  16  18
ENDBRANCH   7   8
ENDBRANCH   3   7
BRANCH   1  20
HETATM   20  C   UNL     1       8.013  27.592  56.870  1.00  0.00     0.129 A 
HETATM   21  N   UNL     1       6.647  27.782  56.756  1.00  0.00    -0.249 N 
HETATM   22  N   UNL     1       5.940  26.693  57.120  1.00  0.00    -0.183 NA
HETATM   23  C   UNL     1       6.864  25.815  57.510  1.00  0.00     0.142 A 
HETATM   24  C   UNL     1       8.171  26.322  57.380  1.00  0.00     0.071 A 
BRANCH  21  25
HETATM   25  C   UNL     1       5.911  28.935  56.224  1.00  0.00     0.111 C 
HETATM   26  C   UNL     1       5.089  29.676  57.287  1.00  0.00     0.035 C 
BRANCH  25  27
HETATM   27  C   UNL     1       5.141  28.601  54.914  1.00  0.00     0.002 C 
HETATM   28  C   UNL     1       4.206  29.709  54.421  1.00  0.00     0.011 C 
HETATM   29  C   UNL     1       6.098  28.215  53.780  1.00  0.00     0.011 C 
ENDBRANCH  25  27
ENDBRANCH  21  25
ENDBRANCH   1  20
TORSDOF 6
ENDMDL
MODEL 8
REMARK VINA RESULT:      -8.4      5.102      8.419
REMARK  6 active torsions:
REMARK  status: ('A' for Active; 'I' for Inactive)
REMARK    1  A    between atoms: C_2  and  N_3 
REMARK    2  A    between atoms: C_2  and  C_25 
REMARK    3  A    between atoms: C_7  and  N_8 
REMARK       I    between atoms: N_8  and  C_9 
REMARK       I    between atoms: C_9  and  N_10 
REMARK    4  A    between atoms: N_10  and  C_11 
REMARK    5  A    between atoms: C_11  and  C_12 
REMARK    6  A    between atoms: C_20  and  O_21 
ROOT
HETATM    1  N   UNL     1       3.530  28.930  51.681  1.00  0.00    -0.293 N 
HETATM    2  C   UNL     1       4.384  28.314  52.614  1.00  0.00     0.322 C 
HETATM    3  N   UNL     1       5.705  28.205  52.313  1.00  0.00    -0.337 N 
HETATM    4  O   UNL     1       3.840  28.004  53.659  1.00  0.00    -0.247 OA
HETATM    5  H   UNL     1       2.611  29.053  52.086  1.00  0.00     0.172 HD
HETATM    6  H   UNL     1       6.017  28.725  51.513  1.00  0.00     0.164 HD
ENDROOT
BRANCH   3   7
HETATM    7  C   UNL     1       6.701  28.108  53.362  1.00  0.00     0.181 C 
BRANCH   7   8
HETATM    8  C   UNL     1       7.168  26.731  53.691  1.00  0.00     0.028 A 
HETATM    9  N   UNL     1       7.548  25.801  52.749  1.00  0.00    -0.357 N 
HETATM   10  H   UNL     1       7.599  25.974  51.753  1.00  0.00     0.166 HD
HETATM   11  C   UNL     1       7.669  24.552  53.305  1.00  0.00     0.043 A 
HETATM   12  C   UNL     1       7.406  24.682  54.663  1.00  0.00    -0.005 A 
HETATM   13  C   UNL     1       7.954  23.326  52.698  1.00  0.00     0.033 A 
HETATM   14  C   UNL     1       7.149  26.063  54.905  1.00  0.00     0.040 A 
HETATM   15  C   UNL     1       7.393  23.519  55.458  1.00  0.00     0.050 A 
HETATM   16  C   UNL     1       7.615  22.268  54.862  1.00  0.00     0.069 A 
HETATM   17  C   UNL     1       7.919  22.182  53.503  1.00  0.00     0.039 A 
BRANCH  16  18
HETATM   18  O   UNL     1       7.510  21.199  55.714  1.00  0.00    -0.356 OA
HETATM   19  C   UNL     1       8.579  21.032  56.639  1.00  0.00     0.210 C 
ENDBRANCH  16  18
ENDBRANCH   7   8
ENDBRANCH   3   7
BRANCH   1  20
HETATM   20  C   UNL     1       3.736  29.414  50.408  1.00  0.00     0.129 A 
HETATM   21  N   UNL     1       3.729  28.652  49.254  1.00  0.00    -0.249 N 
HETATM   22  N   UNL     1       3.982  29.383  48.149  1.00  0.00    -0.183 NA
HETATM   23  C   UNL     1       4.191  30.616  48.610  1.00  0.00     0.142 A 
HETATM   24  C   UNL     1       4.055  30.693  50.009  1.00  0.00     0.071 A 
BRANCH  21  25
HETATM   25  C   UNL     1       3.407  27.231  49.080  1.00  0.00     0.111 C 
HETATM   26  C   UNL     1       4.593  26.298  49.358  1.00  0.00     0.035 C 
BRANCH  25  27
HETATM   27  C   UNL     1       2.646  26.948  47.753  1.00  0.00     0.002 C 
HETATM   28  C   UNL     1       2.864  25.545  47.177  1.00  0.00     0.011 C 
HETATM   29  C   UNL     1       1.140  27.196  47.902  1.00  0.00     0.011 C 
ENDBRANCH  25  27
ENDBRANCH  21  25
ENDBRANCH   1  20
TORSDOF 6
ENDMDL
MODEL 9
REMARK VINA RESULT:      -8.4      5.646      9.080
REMARK  6 active torsions:
REMARK  status: ('A' for Active; 'I' for Inactive)
REMARK    1  A    between atoms: C_2  and  N_3 
REMARK    2  A    between atoms: C_2  and  C_25 
REMARK    3  A    between atoms: C_7  and  N_8 
REMARK       I    between atoms: N_8  and  C_9 
REMARK       I    between atoms: C_9  and  N_10 
REMARK    4  A    between atoms: N_10  and  C_11 
REMARK    5  A    between atoms: C_11  and  C_12 
REMARK    6  A    between atoms: C_20  and  O_21 
ROOT
HETATM    1  N   UNL     1       5.079  28.033  49.895  1.00  0.00    -0.293 N 
HETATM    2  C   UNL     1       5.124  28.226  51.288  1.00  0.00     0.322 C 
HETATM    3  N   UNL     1       4.230  27.560  52.065  1.00  0.00    -0.337 N 
HETATM    4  O   UNL     1       6.042  28.933  51.663  1.00  0.00    -0.247 OA
HETATM    5  H   UNL     1       5.872  28.487  49.460  1.00  0.00     0.172 HD
HETATM    6  H   UNL     1       3.701  26.841  51.607  1.00  0.00     0.164 HD
ENDROOT
BRANCH   3   7
HETATM    7  C   UNL     1       4.527  27.263  53.453  1.00  0.00     0.181 C 
BRANCH   7   8
HETATM    8  C   UNL     1       5.246  25.981  53.703  1.00  0.00     0.028 A 
HETATM    9  N   UNL     1       5.754  25.609  54.927  1.00  0.00    -0.357 N 
HETATM   10  H   UNL     1       5.645  26.137  55.784  1.00  0.00     0.166 HD
HETATM   11  C   UNL     1       6.588  24.526  54.811  1.00  0.00     0.043 A 
HETATM   12  C   UNL     1       6.587  24.151  53.473  1.00  0.00    -0.005 A 
HETATM   13  C   UNL     1       7.364  23.884  55.781  1.00  0.00     0.033 A 
HETATM   14  C   UNL     1       5.697  25.035  52.796  1.00  0.00     0.040 A 
HETATM   15  C   UNL     1       7.431  23.098  53.070  1.00  0.00     0.050 A 
HETATM   16  C   UNL     1       8.266  22.478  54.013  1.00  0.00     0.069 A 
HETATM   17  C   UNL     1       8.208  22.852  55.355  1.00  0.00     0.039 A 
BRANCH  16  18
HETATM   18  O   UNL     1       9.096  21.515  53.500  1.00  0.00    -0.356 OA
HETATM   19  C   UNL     1       8.456  20.432  52.832  1.00  0.00     0.210 C 
ENDBRANCH  16  18
ENDBRANCH   7   8
ENDBRANCH   3   7
BRANCH   1  20
HETATM   20  C   UNL     1       4.221  27.329  49.079  1.00  0.00     0.129 A 
HETATM   21  N   UNL     1       3.166  27.874  48.370  1.00  0.00    -0.249 N 
HETATM   22  N   UNL     1       2.478  26.948  47.671  1.00  0.00    -0.183 NA
HETATM   23  C   UNL     1       3.077  25.797  47.971  1.00  0.00     0.142 A 
HETATM   24  C   UNL     1       4.166  25.973  48.847  1.00  0.00     0.071 A 
BRANCH  21  25
HETATM   25  C   UNL     1       2.777  29.281  48.218  1.00  0.00     0.111 C 
HETATM   26  C   UNL     1       1.340  29.569  48.674  1.00  0.00     0.035 C 
BRANCH  25  27
HETATM   27  C   UNL     1       3.151  29.859  46.822  1.00  0.00     0.002 C 
HETATM   28  C   UNL     1       2.078  30.751  46.191  1.00  0.00     0.011 C 
HETATM   29  C   UNL     1       4.477  30.627  46.867  1.00  0.00     0.011 C 
ENDBRANCH  25  27
ENDBRANCH  21  25
ENDBRANCH   1  20
TORSDOF 6
ENDMDL
MODEL 10
REMARK VINA RESULT:      -8.3      1.798      2.633
REMARK  6 active torsions:
REMARK  status: ('A' for Active; 'I' for Inactive)
REMARK    1  A    between atoms: C_2  and  N_3 
REMARK    2  A    between atoms: C_2  and  C_25 
REMARK    3  A    between atoms: C_7  and  N_8 
REMARK       I    between atoms: N_8  and  C_9 
REMARK       I    between atoms: C_9  and  N_10 
REMARK    4  A    between atoms: N_10  and  C_11 
REMARK    5  A    between atoms: C_11  and  C_12 
REMARK    6  A    between atoms: C_20  and  O_21 
ROOT
HETATM    1  N   UNL     1       7.034  29.455  58.442  1.00  0.00    -0.293 N 
HETATM    2  C   UNL     1       7.389  28.360  57.634  1.00  0.00     0.322 C 
HETATM    3  N   UNL     1       7.177  28.446  56.294  1.00  0.00    -0.337 N 
HETATM    4  O   UNL     1       7.937  27.454  58.235  1.00  0.00    -0.247 OA
HETATM    5  H   UNL     1       7.359  29.302  59.389  1.00  0.00     0.172 HD
HETATM    6  H   UNL     1       6.936  29.356  55.946  1.00  0.00     0.164 HD
ENDROOT
BRANCH   3   7
HETATM    7  C   UNL     1       7.970  27.665  55.364  1.00  0.00     0.181 C 
BRANCH   7   8
HETATM    8  C   UNL     1       7.723  26.194  55.375  1.00  0.00     0.028 A 
HETATM    9  N   UNL     1       8.038  25.368  56.430  1.00  0.00    -0.357 N 
HETATM   10  H   UNL     1       8.417  25.679  57.316  1.00  0.00     0.166 HD
HETATM   11  C   UNL     1       7.954  24.047  56.069  1.00  0.00     0.043 A 
HETATM   12  C   UNL     1       7.523  24.011  54.749  1.00  0.00    -0.005 A 
HETATM   13  C   UNL     1       8.261  22.897  56.801  1.00  0.00     0.033 A 
HETATM   14  C   UNL     1       7.326  25.362  54.340  1.00  0.00     0.040 A 
HETATM   15  C   UNL     1       7.424  22.760  54.109  1.00  0.00     0.050 A 
HETATM   16  C   UNL     1       7.787  21.595  54.802  1.00  0.00     0.069 A 
HETATM   17  C   UNL     1       8.173  21.666  56.140  1.00  0.00     0.039 A 
BRANCH  16  18
HETATM   18  O   UNL     1       7.720  20.442  54.063  1.00  0.00    -0.356 OA
HETATM   19  C   UNL     1       8.443  20.446  52.836  1.00  0.00     0.210 C 
ENDBRANCH  16  18
ENDBRANCH   7   8
ENDBRANCH   3   7
BRANCH   1  20
HETATM   20  C   UNL     1       6.405  30.650  58.170  1.00  0.00     0.129 A 
HETATM   21  N   UNL     1       6.702  31.862  58.765  1.00  0.00    -0.249 N 
HETATM   22  N   UNL     1       5.913  32.863  58.325  1.00  0.00    -0.183 NA
HETATM   23  C   UNL     1       5.078  32.273  57.471  1.00  0.00     0.142 A 
HETATM   24  C   UNL     1       5.335  30.895  57.338  1.00  0.00     0.071 A 
BRANCH  21  25
HETATM   25  C   UNL     1       7.780  32.197  59.704  1.00  0.00     0.111 C 
HETATM   26  C   UNL     1       9.180  31.876  59.165  1.00  0.00     0.035 C 
BRANCH  25  27
HETATM   27  C   UNL     1       7.498  31.684  61.146  1.00  0.00     0.002 C 
HETATM   28  C   UNL     1       8.647  31.894  62.136  1.00  0.00     0.011 C 
HETATM   29  C   UNL     1       6.221  32.304  61.725  1.00  0.00     0.011 C 
ENDBRANCH  25  27
ENDBRANCH  21  25
ENDBRANCH   1  20
TORSDOF 6
ENDMDL
