MODEL 1
REMARK VINA RESULT:      -7.3      0.000      0.000
REMARK  4 active torsions:
REMARK  status: ('A' for Active; 'I' for Inactive)
REMARK    1  A    between atoms: C_11  and  N_12 
REMARK    2  A    between atoms: N_12  and  C_13 
REMARK    3  A    between atoms: C_13  and  C_14 
REMARK    4  A    between atoms: C_15  and  C_16 
ROOT
HETATM    1  N   UNL     1       5.250  26.461  56.010  1.00  0.00     0.092 N 
HETATM    2  H   UNL     1       5.386  26.746  55.043  1.00  0.00     0.316 HD
ENDROOT
BRANCH   1   3
HETATM    3  C   UNL     1       5.781  27.417  56.975  1.00  0.00     0.225 C 
HETATM    4  C   UNL     1       4.973  28.723  56.973  1.00  0.00     0.073 C 
HETATM    5  C   UNL     1       5.216  29.668  55.788  1.00  0.00     0.121 C 
HETATM    6  N   UNL     1       6.707  29.844  55.573  1.00  0.00    -0.059 N 
HETATM    7  C   UNL     1       4.531  29.239  54.487  1.00  0.00     0.046 C 
HETATM    8  C   UNL     1       4.680  31.074  56.141  1.00  0.00     0.046 C 
HETATM    9  C   UNL     1       7.632  28.649  55.602  1.00  0.00     0.121 C 
HETATM   10  H   UNL     1       7.037  30.499  56.297  1.00  0.00     0.279 HD
HETATM   11  H   UNL     1       6.851  30.354  54.689  1.00  0.00     0.279 HD
HETATM   12  C   UNL     1       7.650  27.968  54.228  1.00  0.00     0.046 C 
HETATM   13  C   UNL     1       9.049  29.210  55.847  1.00  0.00     0.046 C 
HETATM   14  C   UNL     1       7.269  27.718  56.772  1.00  0.00     0.073 C 
ENDBRANCH   1   3
BRANCH   1  15
HETATM   15  C   UNL     1       5.877  25.134  56.122  1.00  0.00     0.312 C 
BRANCH  15  16
HETATM   16  C   UNL     1       6.146  24.658  54.734  1.00  0.00     0.014 A 
HETATM   17  C   UNL     1       7.090  23.704  54.218  1.00  0.00     0.071 A 
HETATM   18  N   UNL     1       6.963  23.598  52.886  1.00  0.00    -0.178 NA
HETATM   19  N   UNL     1       5.975  24.431  52.554  1.00  0.00    -0.288 N 
HETATM   20  H   UNL     1       5.704  24.489  51.577  1.00  0.00     0.188 HD
HETATM   21  C   UNL     1       5.461  25.099  53.615  1.00  0.00     0.120 A 
BRANCH  17  22
HETATM   22  C   UNL     1       8.123  22.804  54.904  1.00  0.00    -0.004 C 
HETATM   23  C   UNL     1       8.997  22.127  53.829  1.00  0.00     0.021 C 
HETATM   24  C   UNL     1       9.056  23.633  55.827  1.00  0.00     0.021 C 
HETATM   25  C   UNL     1       7.490  21.718  55.794  1.00  0.00     0.021 C 
ENDBRANCH  17  22
ENDBRANCH  15  16
ENDBRANCH   1  15
TORSDOF 4
ENDMDL
MODEL 2
REMARK VINA RESULT:      -6.9      1.615      3.246
REMARK  4 active torsions:
REMARK  status: ('A' for Active; 'I' for Inactive)
REMARK    1  A    between atoms: C_11  and  N_12 
REMARK    2  A    between atoms: N_12  and  C_13 
REMARK    3  A    between atoms: C_13  and  C_14 
REMARK    4  A    between atoms: C_15  and  C_16 
ROOT
HETATM    1  N   UNL     1       5.918  26.289  55.337  1.00  0.00     0.092 N 
HETATM    2  H   UNL     1       4.957  26.293  55.670  1.00  0.00     0.316 HD
ENDROOT
BRANCH   1   3
HETATM    3  C   UNL     1       6.211  27.371  54.404  1.00  0.00     0.225 C 
HETATM    4  C   UNL     1       7.685  27.796  54.484  1.00  0.00     0.073 C 
HETATM    5  C   UNL     1       8.081  28.638  55.704  1.00  0.00     0.121 C 
HETATM    6  N   UNL     1       7.084  29.766  55.893  1.00  0.00    -0.059 N 
HETATM    7  C   UNL     1       8.238  27.837  57.001  1.00  0.00     0.046 C 
HETATM    8  C   UNL     1       9.437  29.326  55.429  1.00  0.00     0.046 C 
HETATM    9  C   UNL     1       5.600  29.502  55.787  1.00  0.00     0.121 C 
HETATM   10  H   UNL     1       7.313  30.485  55.191  1.00  0.00     0.279 HD
HETATM   11  H   UNL     1       7.277  30.225  56.795  1.00  0.00     0.279 HD
HETATM   12  C   UNL     1       5.064  28.986  57.128  1.00  0.00     0.046 C 
HETATM   13  C   UNL     1       4.937  30.874  55.534  1.00  0.00     0.046 C 
HETATM   14  C   UNL     1       5.301  28.589  54.585  1.00  0.00     0.073 C 
ENDBRANCH   1   3
BRANCH   1  15
HETATM   15  C   UNL     1       6.124  24.957  54.745  1.00  0.00     0.312 C 
BRANCH  15  16
HETATM   16  C   UNL     1       7.032  24.207  55.660  1.00  0.00     0.014 A 
HETATM   17  C   UNL     1       7.890  23.075  55.436  1.00  0.00     0.071 A 
HETATM   18  N   UNL     1       8.528  22.744  56.570  1.00  0.00    -0.178 NA
HETATM   19  N   UNL     1       8.116  23.626  57.482  1.00  0.00    -0.288 N 
HETATM   20  H   UNL     1       8.499  23.561  58.421  1.00  0.00     0.188 HD
HETATM   21  C   UNL     1       7.214  24.513  56.997  1.00  0.00     0.120 A 
BRANCH  17  22
HETATM   22  C   UNL     1       8.216  22.262  54.178  1.00  0.00    -0.004 C 
HETATM   23  C   UNL     1       9.745  22.119  54.051  1.00  0.00     0.021 C 
HETATM   24  C   UNL     1       7.606  20.837  54.265  1.00  0.00     0.021 C 
HETATM   25  C   UNL     1       7.660  22.890  52.886  1.00  0.00     0.021 C 
ENDBRANCH  17  22
ENDBRANCH  15  16
ENDBRANCH   1  15
TORSDOF 4
ENDMDL
MODEL 3
REMARK VINA RESULT:      -6.8      3.809      6.410
REMARK  4 active torsions:
REMARK  status: ('A' for Active; 'I' for Inactive)
REMARK    1  A    between atoms: C_11  and  N_12 
REMARK    2  A    between atoms: N_12  and  C_13 
REMARK    3  A    between atoms: C_13  and  C_14 
REMARK    4  A    between atoms: C_15  and  C_16 
ROOT
HETATM    1  N   UNL     1       5.143  26.635  52.971  1.00  0.00     0.092 N 
HETATM    2  H   UNL     1       6.061  27.057  53.081  1.00  0.00     0.316 HD
ENDROOT
BRANCH   1   3
HETATM    3  C   UNL     1       5.024  25.330  53.611  1.00  0.00     0.225 C 
HETATM    4  C   UNL     1       5.385  25.404  55.102  1.00  0.00     0.073 C 
HETATM    5  C   UNL     1       6.879  25.516  55.434  1.00  0.00     0.121 C 
HETATM    6  N   UNL     1       7.658  24.481  54.643  1.00  0.00    -0.059 N 
HETATM    7  C   UNL     1       7.470  26.913  55.219  1.00  0.00     0.046 C 
HETATM    8  C   UNL     1       7.100  25.154  56.919  1.00  0.00     0.046 C 
HETATM    9  C   UNL     1       7.370  24.264  53.175  1.00  0.00     0.121 C 
HETATM   10  H   UNL     1       7.514  23.577  55.116  1.00  0.00     0.279 HD
HETATM   11  H   UNL     1       8.664  24.670  54.760  1.00  0.00     0.279 HD
HETATM   12  C   UNL     1       8.141  25.289  52.334  1.00  0.00     0.046 C 
HETATM   13  C   UNL     1       7.943  22.873  52.828  1.00  0.00     0.046 C 
HETATM   14  C   UNL     1       5.853  24.241  52.923  1.00  0.00     0.073 C 
ENDBRANCH   1   3
BRANCH   1  15
HETATM   15  C   UNL     1       4.907  26.577  51.518  1.00  0.00     0.312 C 
BRANCH  15  16
HETATM   16  C   UNL     1       5.106  27.957  50.988  1.00  0.00     0.014 A 
HETATM   17  C   UNL     1       4.793  28.543  49.712  1.00  0.00     0.071 A 
HETATM   18  N   UNL     1       5.156  29.835  49.693  1.00  0.00    -0.178 NA
HETATM   19  N   UNL     1       5.666  30.080  50.901  1.00  0.00    -0.288 N 
HETATM   20  H   UNL     1       5.990  31.022  51.103  1.00  0.00     0.188 HD
HETATM   21  C   UNL     1       5.673  28.993  51.708  1.00  0.00     0.120 A 
BRANCH  17  22
HETATM   22  C   UNL     1       4.107  27.983  48.461  1.00  0.00    -0.004 C 
HETATM   23  C   UNL     1       4.130  29.051  47.351  1.00  0.00     0.021 C 
HETATM   24  C   UNL     1       4.854  26.728  47.935  1.00  0.00     0.021 C 
HETATM   25  C   UNL     1       2.651  27.545  48.709  1.00  0.00     0.021 C 
ENDBRANCH  17  22
ENDBRANCH  15  16
ENDBRANCH   1  15
TORSDOF 4
ENDMDL
MODEL 4
REMARK VINA RESULT:      -6.7      4.032      6.386
REMARK  4 active torsions:
REMARK  status: ('A' for Active; 'I' for Inactive)
REMARK    1  A    between atoms: C_11  and  N_12 
REMARK    2  A    between atoms: N_12  and  C_13 
REMARK    3  A    between atoms: C_13  and  C_14 
REMARK    4  A    between atoms: C_15  and  C_16 
ROOT
HETATM    1  N   UNL     1       5.646  27.363  51.584  1.00  0.00     0.092 N 
HETATM    2  H   UNL     1       5.457  26.970  50.666  1.00  0.00     0.316 HD
ENDROOT
BRANCH   1   3
HETATM    3  C   UNL     1       5.042  26.605  52.674  1.00  0.00     0.225 C 
HETATM    4  C   UNL     1       5.313  27.267  54.034  1.00  0.00     0.073 C 
HETATM    5  C   UNL     1       6.729  27.099  54.599  1.00  0.00     0.121 C 
HETATM    6  N   UNL     1       7.147  25.643  54.508  1.00  0.00    -0.059 N 
HETATM    7  C   UNL     1       7.781  28.002  53.947  1.00  0.00     0.046 C 
HETATM    8  C   UNL     1       6.718  27.432  56.108  1.00  0.00     0.046 C 
HETATM    9  C   UNL     1       6.894  24.851  53.245  1.00  0.00     0.121 C 
HETATM   10  H   UNL     1       6.669  25.148  55.275  1.00  0.00     0.279 HD
HETATM   11  H   UNL     1       8.146  25.574  54.749  1.00  0.00     0.279 HD
HETATM   12  C   UNL     1       8.023  25.098  52.238  1.00  0.00     0.046 C 
HETATM   13  C   UNL     1       6.967  23.363  53.651  1.00  0.00     0.046 C 
HETATM   14  C   UNL     1       5.481  25.138  52.706  1.00  0.00     0.073 C 
ENDBRANCH   1   3
BRANCH   1  15
HETATM   15  C   UNL     1       5.163  28.753  51.524  1.00  0.00     0.312 C 
BRANCH  15  16
HETATM   16  C   UNL     1       3.762  28.708  51.017  1.00  0.00     0.014 A 
HETATM   17  C   UNL     1       3.224  28.375  49.725  1.00  0.00     0.071 A 
HETATM   18  N   UNL     1       1.885  28.472  49.740  1.00  0.00    -0.178 NA
HETATM   19  N   UNL     1       1.567  28.836  50.983  1.00  0.00    -0.288 N 
HETATM   20  H   UNL     1       0.584  28.949  51.214  1.00  0.00     0.188 HD
HETATM   21  C   UNL     1       2.648  29.004  51.783  1.00  0.00     0.120 A 
BRANCH  17  22
HETATM   22  C   UNL     1       3.885  27.906  48.424  1.00  0.00    -0.004 C 
HETATM   23  C   UNL     1       2.870  28.024  47.271  1.00  0.00     0.021 C 
HETATM   24  C   UNL     1       5.112  28.790  48.075  1.00  0.00     0.021 C 
HETATM   25  C   UNL     1       4.404  26.457  48.492  1.00  0.00     0.021 C 
ENDBRANCH  17  22
ENDBRANCH  15  16
ENDBRANCH   1  15
TORSDOF 4
ENDMDL
MODEL 5
REMARK VINA RESULT:      -6.6      3.736      6.308
REMARK  4 active torsions:
REMARK  status: ('A' for Active; 'I' for Inactive)
REMARK    1  A    between atoms: C_11  and  N_12 
REMARK    2  A    between atoms: N_12  and  C_13 
REMARK    3  A    between atoms: C_13  and  C_14 
REMARK    4  A    between atoms: C_15  and  C_16 
ROOT
HETATM    1  N   UNL     1       5.961  27.686  53.231  1.00  0.00     0.092 N 
HETATM    2  H   UNL     1       5.665  28.593  53.582  1.00  0.00     0.316 HD
ENDROOT
BRANCH   1   3
HETATM    3  C   UNL     1       7.308  27.315  53.649  1.00  0.00     0.225 C 
HETATM    4  C   UNL     1       7.756  25.999  52.995  1.00  0.00     0.073 C 
HETATM    5  C   UNL     1       7.141  24.715  53.568  1.00  0.00     0.121 C 
HETATM    6  N   UNL     1       7.235  24.735  55.083  1.00  0.00    -0.059 N 
HETATM    7  C   UNL     1       5.700  24.450  53.122  1.00  0.00     0.046 C 
HETATM    8  C   UNL     1       7.986  23.502  53.117  1.00  0.00     0.046 C 
HETATM    9  C   UNL     1       6.876  25.983  55.856  1.00  0.00     0.121 C 
HETATM   10  H   UNL     1       8.209  24.500  55.323  1.00  0.00     0.279 HD
HETATM   11  H   UNL     1       6.688  23.945  55.454  1.00  0.00     0.279 HD
HETATM   12  C   UNL     1       5.361  26.039  56.084  1.00  0.00     0.046 C 
HETATM   13  C   UNL     1       7.536  25.832  57.244  1.00  0.00     0.046 C 
HETATM   14  C   UNL     1       7.467  27.227  55.170  1.00  0.00     0.073 C 
ENDBRANCH   1   3
BRANCH   1  15
HETATM   15  C   UNL     1       5.822  27.764  51.767  1.00  0.00     0.312 C 
BRANCH  15  16
HETATM   16  C   UNL     1       4.419  28.179  51.482  1.00  0.00     0.014 A 
HETATM   17  C   UNL     1       3.670  28.236  50.256  1.00  0.00     0.071 A 
HETATM   18  N   UNL     1       2.424  28.676  50.491  1.00  0.00    -0.178 NA
HETATM   19  N   UNL     1       2.361  28.881  51.808  1.00  0.00    -0.288 N 
HETATM   20  H   UNL     1       1.482  29.204  52.202  1.00  0.00     0.188 HD
HETATM   21  C   UNL     1       3.525  28.614  52.446  1.00  0.00     0.120 A 
BRANCH  17  22
HETATM   22  C   UNL     1       4.025  27.853  48.815  1.00  0.00    -0.004 C 
HETATM   23  C   UNL     1       4.236  26.328  48.735  1.00  0.00     0.021 C 
HETATM   24  C   UNL     1       2.875  28.228  47.842  1.00  0.00     0.021 C 
HETATM   25  C   UNL     1       5.285  28.563  48.287  1.00  0.00     0.021 C 
ENDBRANCH  17  22
ENDBRANCH  15  16
ENDBRANCH   1  15
TORSDOF 4
ENDMDL
MODEL 6
REMARK VINA RESULT:      -6.5      1.740      2.733
REMARK  4 active torsions:
REMARK  status: ('A' for Active; 'I' for Inactive)
REMARK    1  A    between atoms: C_11  and  N_12 
REMARK    2  A    between atoms: N_12  and  C_13 
REMARK    3  A    between atoms: C_13  and  C_14 
REMARK    4  A    between atoms: C_15  and  C_16 
ROOT
HETATM    1  N   UNL     1       6.087  26.577  56.024  1.00  0.00     0.092 N 
HETATM    2  H   UNL     1       7.005  26.799  56.400  1.00  0.00     0.316 HD
ENDROOT
BRANCH   1   3
HETATM    3  C   UNL     1       5.042  27.491  56.471  1.00  0.00     0.225 C 
HETATM    4  C   UNL     1       4.250  28.060  55.284  1.00  0.00     0.073 C 
HETATM    5  C   UNL     1       4.954  29.145  54.458  1.00  0.00     0.121 C 
HETATM    6  N   UNL     1       5.545  30.191  55.385  1.00  0.00    -0.059 N 
HETATM    7  C   UNL     1       6.021  28.614  53.496  1.00  0.00     0.046 C 
HETATM    8  C   UNL     1       3.906  29.894  53.605  1.00  0.00     0.046 C 
HETATM    9  C   UNL     1       6.305  29.774  56.623  1.00  0.00     0.121 C 
HETATM   10  H   UNL     1       4.764  30.786  55.697  1.00  0.00     0.279 HD
HETATM   11  H   UNL     1       6.137  30.823  54.829  1.00  0.00     0.279 HD
HETATM   12  C   UNL     1       7.763  29.465  56.263  1.00  0.00     0.046 C 
HETATM   13  C   UNL     1       6.322  31.007  57.552  1.00  0.00     0.046 C 
HETATM   14  C   UNL     1       5.570  28.632  57.346  1.00  0.00     0.073 C 
ENDBRANCH   1   3
BRANCH   1  15
HETATM   15  C   UNL     1       5.827  25.182  56.418  1.00  0.00     0.312 C 
BRANCH  15  16
HETATM   16  C   UNL     1       7.071  24.409  56.138  1.00  0.00     0.014 A 
HETATM   17  C   UNL     1       7.687  24.005  54.903  1.00  0.00     0.071 A 
HETATM   18  N   UNL     1       8.814  23.318  55.148  1.00  0.00    -0.178 NA
HETATM   19  N   UNL     1       8.933  23.291  56.476  1.00  0.00    -0.288 N 
HETATM   20  H   UNL     1       9.743  22.825  56.876  1.00  0.00     0.188 HD
HETATM   21  C   UNL     1       7.915  23.914  57.116  1.00  0.00     0.120 A 
BRANCH  17  22
HETATM   22  C   UNL     1       7.316  24.257  53.437  1.00  0.00    -0.004 C 
HETATM   23  C   UNL     1       7.812  23.076  52.580  1.00  0.00     0.021 C 
HETATM   24  C   UNL     1       5.777  24.361  53.264  1.00  0.00     0.021 C 
HETATM   25  C   UNL     1       7.903  25.566  52.877  1.00  0.00     0.021 C 
ENDBRANCH  17  22
ENDBRANCH  15  16
ENDBRANCH   1  15
TORSDOF 4
ENDMDL
MODEL 7
REMARK VINA RESULT:      -6.4      8.344     11.233
REMARK  4 active torsions:
REMARK  status: ('A' for Active; 'I' for Inactive)
REMARK    1  A    between atoms: C_11  and  N_12 
REMARK    2  A    between atoms: N_12  and  C_13 
REMARK    3  A    between atoms: C_13  and  C_14 
REMARK    4  A    between atoms: C_15  and  C_16 
ROOT
HETATM    1  N   UNL     1       4.772  33.837  62.972  1.00  0.00     0.092 N 
HETATM    2  H   UNL     1       4.475  34.253  62.093  1.00  0.00     0.316 HD
ENDROOT
BRANCH   1   3
HETATM    3  C   UNL     1       5.892  34.536  63.593  1.00  0.00     0.225 C 
HETATM    4  C   UNL     1       5.823  34.453  65.125  1.00  0.00     0.073 C 
HETATM    5  C   UNL     1       4.784  35.352  65.807  1.00  0.00     0.121 C 
HETATM    6  N   UNL     1       4.885  36.761  65.252  1.00  0.00    -0.059 N 
HETATM    7  C   UNL     1       3.344  34.839  65.712  1.00  0.00     0.046 C 
HETATM    8  C   UNL     1       5.124  35.474  67.309  1.00  0.00     0.046 C 
HETATM    9  C   UNL     1       5.011  36.990  63.764  1.00  0.00     0.121 C 
HETATM   10  H   UNL     1       5.707  37.197  65.696  1.00  0.00     0.279 HD
HETATM   11  H   UNL     1       4.088  37.309  65.607  1.00  0.00     0.279 HD
HETATM   12  C   UNL     1       3.623  36.978  63.113  1.00  0.00     0.046 C 
HETATM   13  C   UNL     1       5.575  38.418  63.596  1.00  0.00     0.046 C 
HETATM   14  C   UNL     1       6.013  35.997  63.150  1.00  0.00     0.073 C 
ENDBRANCH   1   3
BRANCH   1  15
HETATM   15  C   UNL     1       5.083  32.433  62.659  1.00  0.00     0.312 C 
BRANCH  15  16
HETATM   16  C   UNL     1       5.791  32.424  61.346  1.00  0.00     0.014 A 
HETATM   17  C   UNL     1       7.167  32.183  61.005  1.00  0.00     0.071 A 
HETATM   18  N   UNL     1       7.341  32.279  59.678  1.00  0.00    -0.178 NA
HETATM   19  N   UNL     1       6.135  32.554  59.179  1.00  0.00    -0.288 N 
HETATM   20  H   UNL     1       6.043  32.652  58.172  1.00  0.00     0.188 HD
HETATM   21  C   UNL     1       5.177  32.665  60.130  1.00  0.00     0.120 A 
BRANCH  17  22
HETATM   22  C   UNL     1       8.387  31.806  61.853  1.00  0.00    -0.004 C 
HETATM   23  C   UNL     1       9.670  32.102  61.052  1.00  0.00     0.021 C 
HETATM   24  C   UNL     1       8.435  32.644  63.159  1.00  0.00     0.021 C 
HETATM   25  C   UNL     1       8.395  30.329  62.288  1.00  0.00     0.021 C 
ENDBRANCH  17  22
ENDBRANCH  15  16
ENDBRANCH   1  15
TORSDOF 4
ENDMDL
MODEL 8
REMARK VINA RESULT:      -6.2      3.223      5.467
REMARK  4 active torsions:
REMARK  status: ('A' for Active; 'I' for Inactive)
REMARK    1  A    between atoms: C_11  and  N_12 
REMARK    2  A    between atoms: N_12  and  C_13 
REMARK    3  A    between atoms: C_13  and  C_14 
REMARK    4  A    between atoms: C_15  and  C_16 
ROOT
HETATM    1  N   UNL     1       6.587  28.667  53.903  1.00  0.00     0.092 N 
HETATM    2  H   UNL     1       6.760  29.629  53.623  1.00  0.00     0.316 HD
ENDROOT
BRANCH   1   3
HETATM    3  C   UNL     1       7.734  28.036  54.547  1.00  0.00     0.225 C 
HETATM    4  C   UNL     1       7.352  26.689  55.179  1.00  0.00     0.073 C 
HETATM    5  C   UNL     1       6.557  26.757  56.489  1.00  0.00     0.121 C 
HETATM    6  N   UNL     1       7.218  27.738  57.439  1.00  0.00    -0.059 N 
HETATM    7  C   UNL     1       5.074  27.097  56.311  1.00  0.00     0.046 C 
HETATM    8  C   UNL     1       6.625  25.385  57.197  1.00  0.00     0.046 C 
HETATM    9  C   UNL     1       7.693  29.084  56.941  1.00  0.00     0.121 C 
HETATM   10  H   UNL     1       8.037  27.257  57.839  1.00  0.00     0.279 HD
HETATM   11  H   UNL     1       6.594  27.883  58.245  1.00  0.00     0.279 HD
HETATM   12  C   UNL     1       6.529  30.081  56.937  1.00  0.00     0.046 C 
HETATM   13  C   UNL     1       8.716  29.588  57.982  1.00  0.00     0.046 C 
HETATM   14  C   UNL     1       8.411  28.933  55.589  1.00  0.00     0.073 C 
ENDBRANCH   1   3
BRANCH   1  15
HETATM   15  C   UNL     1       6.170  27.968  52.676  1.00  0.00     0.312 C 
BRANCH  15  16
HETATM   16  C   UNL     1       4.802  28.455  52.339  1.00  0.00     0.014 A 
HETATM   17  C   UNL     1       4.064  28.449  51.104  1.00  0.00     0.071 A 
HETATM   18  N   UNL     1       2.853  29.000  51.284  1.00  0.00    -0.178 NA
HETATM   19  N   UNL     1       2.801  29.333  52.574  1.00  0.00    -0.288 N 
HETATM   20  H   UNL     1       1.947  29.757  52.927  1.00  0.00     0.188 HD
HETATM   21  C   UNL     1       3.940  29.044  53.247  1.00  0.00     0.120 A 
BRANCH  17  22
HETATM   22  C   UNL     1       4.394  27.905  49.710  1.00  0.00    -0.004 C 
HETATM   23  C   UNL     1       4.722  26.403  49.819  1.00  0.00     0.021 C 
HETATM   24  C   UNL     1       3.183  28.062  48.752  1.00  0.00     0.021 C 
HETATM   25  C   UNL     1       5.573  28.630  49.036  1.00  0.00     0.021 C 
ENDBRANCH  17  22
ENDBRANCH  15  16
ENDBRANCH   1  15
TORSDOF 4
ENDMDL
MODEL 9
REMARK VINA RESULT:      -6.1      3.397      6.107
REMARK  4 active torsions:
REMARK  status: ('A' for Active; 'I' for Inactive)
REMARK    1  A    between atoms: C_11  and  N_12 
REMARK    2  A    between atoms: N_12  and  C_13 
REMARK    3  A    between atoms: C_13  and  C_14 
REMARK    4  A    between atoms: C_15  and  C_16 
ROOT
HETATM    1  N   UNL     1       5.312  27.749  53.344  1.00  0.00     0.092 N 
HETATM    2  H   UNL     1       5.983  27.345  52.695  1.00  0.00     0.316 HD
ENDROOT
BRANCH   1   3
HETATM    3  C   UNL     1       5.060  26.912  54.512  1.00  0.00     0.225 C 
HETATM    4  C   UNL     1       5.704  27.503  55.775  1.00  0.00     0.073 C 
HETATM    5  C   UNL     1       7.226  27.347  55.895  1.00  0.00     0.121 C 
HETATM    6  N   UNL     1       7.618  25.912  55.596  1.00  0.00    -0.059 N 
HETATM    7  C   UNL     1       8.031  28.318  55.026  1.00  0.00     0.046 C 
HETATM    8  C   UNL     1       7.648  27.593  57.361  1.00  0.00     0.046 C 
HETATM    9  C   UNL     1       7.020  25.186  54.412  1.00  0.00     0.121 C 
HETATM   10  H   UNL     1       7.390  25.360  56.435  1.00  0.00     0.279 HD
HETATM   11  H   UNL     1       8.645  25.861  55.533  1.00  0.00     0.279 HD
HETATM   12  C   UNL     1       7.805  25.524  53.139  1.00  0.00     0.046 C 
HETATM   13  C   UNL     1       7.227  23.680  54.684  1.00  0.00     0.046 C 
HETATM   14  C   UNL     1       5.508  25.460  54.323  1.00  0.00     0.073 C 
ENDBRANCH   1   3
BRANCH   1  15
HETATM   15  C   UNL     1       4.096  27.997  52.551  1.00  0.00     0.312 C 
BRANCH  15  16
HETATM   16  C   UNL     1       4.422  27.661  51.135  1.00  0.00     0.014 A 
HETATM   17  C   UNL     1       3.963  28.219  49.892  1.00  0.00     0.071 A 
HETATM   18  N   UNL     1       4.541  27.589  48.857  1.00  0.00    -0.178 NA
HETATM   19  N   UNL     1       5.347  26.676  49.402  1.00  0.00    -0.288 N 
HETATM   20  H   UNL     1       5.900  26.092  48.780  1.00  0.00     0.188 HD
HETATM   21  C   UNL     1       5.305  26.666  50.755  1.00  0.00     0.120 A 
BRANCH  17  22
HETATM   22  C   UNL     1       3.016  29.382  49.572  1.00  0.00    -0.004 C 
HETATM   23  C   UNL     1       1.632  29.089  50.184  1.00  0.00     0.021 C 
HETATM   24  C   UNL     1       3.540  30.708  50.184  1.00  0.00     0.021 C 
HETATM   25  C   UNL     1       2.854  29.638  48.062  1.00  0.00     0.021 C 
ENDBRANCH  17  22
ENDBRANCH  15  16
ENDBRANCH   1  15
TORSDOF 4
ENDMDL
MODEL 10
REMARK VINA RESULT:      -6.0      7.767     10.953
REMARK  4 active torsions:
REMARK  status: ('A' for Active; 'I' for Inactive)
REMARK    1  A    between atoms: C_11  and  N_12 
REMARK    2  A    between atoms: N_12  and  C_13 
REMARK    3  A    between atoms: C_13  and  C_14 
REMARK    4  A    between atoms: C_15  and  C_16 
ROOT
HETATM    1  N   UNL     1       5.134  33.581  62.430  1.00  0.00     0.092 N 
HETATM    2  H   UNL     1       4.729  33.935  61.567  1.00  0.00     0.316 HD
ENDROOT
BRANCH   1   3
HETATM    3  C   UNL     1       6.289  34.346  62.884  1.00  0.00     0.225 C 
HETATM    4  C   UNL     1       6.721  33.924  64.297  1.00  0.00     0.073 C 
HETATM    5  C   UNL     1       5.841  34.422  65.451  1.00  0.00     0.121 C 
HETATM    6  N   UNL     1       5.574  35.906  65.287  1.00  0.00    -0.059 N 
HETATM    7  C   UNL     1       4.527  33.654  65.620  1.00  0.00     0.046 C 
HETATM    8  C   UNL     1       6.620  34.287  66.779  1.00  0.00     0.046 C 
HETATM    9  C   UNL     1       5.190  36.471  63.938  1.00  0.00     0.121 C 
HETATM   10  H   UNL     1       6.428  36.397  65.588  1.00  0.00     0.279 HD
HETATM   11  H   UNL     1       4.864  36.189  65.979  1.00  0.00     0.279 HD
HETATM   12  C   UNL     1       3.682  36.311  63.713  1.00  0.00     0.046 C 
HETATM   13  C   UNL     1       5.478  37.986  64.010  1.00  0.00     0.046 C 
HETATM   14  C   UNL     1       6.070  35.861  62.832  1.00  0.00     0.073 C 
ENDBRANCH   1   3
BRANCH   1  15
HETATM   15  C   UNL     1       5.457  32.169  62.165  1.00  0.00     0.312 C 
BRANCH  15  16
HETATM   16  C   UNL     1       6.345  32.141  60.967  1.00  0.00     0.014 A 
HETATM   17  C   UNL     1       6.080  32.390  59.576  1.00  0.00     0.071 A 
HETATM   18  N   UNL     1       7.203  32.248  58.856  1.00  0.00    -0.178 NA
HETATM   19  N   UNL     1       8.155  31.938  59.737  1.00  0.00    -0.288 N 
HETATM   20  H   UNL     1       9.102  31.803  59.394  1.00  0.00     0.188 HD
HETATM   21  C   UNL     1       7.697  31.847  61.008  1.00  0.00     0.120 A 
BRANCH  17  22
HETATM   22  C   UNL     1       4.810  32.814  58.830  1.00  0.00    -0.004 C 
HETATM   23  C   UNL     1       5.082  32.790  57.313  1.00  0.00     0.021 C 
HETATM   24  C   UNL     1       3.641  31.835  59.122  1.00  0.00     0.021 C 
HETATM   25  C   UNL     1       4.308  34.215  59.228  1.00  0.00     0.021 C 
ENDBRANCH  17  22
ENDBRANCH  15  16
ENDBRANCH   1  15
TORSDOF 4
ENDMDL
