MODEL 1
REMARK VINA RESULT:      -8.4      0.000      0.000
REMARK  6 active torsions:
REMARK  status: ('A' for Active; 'I' for Inactive)
REMARK    1  A    between atoms: C_6  and  C_7 
REMARK       I    between atoms: C_7  and  N_8 
REMARK    2  A    between atoms: N_8  and  C_9 
REMARK    3  A    between atoms: C_9  and  C_10 
REMARK    4  A    between atoms: C_10  and  O_11 
REMARK    5  A    between atoms: C_10  and  C_12 
REMARK    6  A    between atoms: C_15  and  O_16 
ROOT
HETATM    1  C   UNL     1       7.493  25.102  54.143  1.00  0.00     0.258 C 
HETATM    2  N   UNL     1       6.416  25.802  54.640  1.00  0.00    -0.350 N 
HETATM    3  O   UNL     1       8.051  25.399  53.093  1.00  0.00    -0.267 OA
HETATM    4  H   UNL     1       6.011  25.470  55.515  1.00  0.00     0.163 HD
ENDROOT
BRANCH   2   5
HETATM    5  C   UNL     1       5.795  26.953  53.970  1.00  0.00     0.114 C 
HETATM    6  C   UNL     1       4.617  26.516  53.095  1.00  0.00     0.035 C 
BRANCH   5   7
HETATM    7  C   UNL     1       5.431  28.068  54.990  1.00  0.00     0.173 C 
BRANCH   7   8
HETATM    8  O   UNL     1       4.407  27.568  55.867  1.00  0.00    -0.389 OA
HETATM    9  H   UNL     1       4.254  26.648  55.585  1.00  0.00     0.210 HD
ENDBRANCH   7   8
BRANCH   7  10
HETATM   10  C   UNL     1       6.594  28.527  55.844  1.00  0.00    -0.028 A 
HETATM   11  C   UNL     1       7.833  28.799  55.248  1.00  0.00     0.012 A 
HETATM   12  C   UNL     1       8.916  29.219  56.023  1.00  0.00     0.037 A 
HETATM   13  C   UNL     1       8.785  29.383  57.403  1.00  0.00     0.068 A 
HETATM   14  C   UNL     1       7.559  29.103  58.007  1.00  0.00     0.037 A 
HETATM   15  C   UNL     1       6.473  28.678  57.233  1.00  0.00     0.012 A 
BRANCH  13  16
HETATM   16  O   UNL     1       9.917  29.811  58.039  1.00  0.00    -0.356 OA
HETATM   17  C   UNL     1      11.088  29.934  57.242  1.00  0.00     0.210 C 
ENDBRANCH  13  16
ENDBRANCH   7  10
ENDBRANCH   5   7
ENDBRANCH   2   5
BRANCH   1  18
HETATM   18  C   UNL     1       7.906  23.962  54.943  1.00  0.00     0.105 A 
HETATM   19  C   UNL     1       8.235  23.941  56.326  1.00  0.00     0.071 A 
HETATM   20  C   UNL     1       8.218  25.078  57.283  1.00  0.00     0.073 C 
HETATM   21  N   UNL     1       8.592  22.723  56.747  1.00  0.00    -0.170 NA
HETATM   22  N   UNL     1       8.510  21.939  55.649  1.00  0.00    -0.225 N 
HETATM   23  C   UNL     1       8.088  22.655  54.525  1.00  0.00     0.168 A 
HETATM   24  C   UNL     1       8.798  20.582  55.557  1.00  0.00     0.122 A 
HETATM   25  N   UNL     1       7.935  22.055  53.297  1.00  0.00    -0.240 NA
HETATM   26  C   UNL     1       8.215  20.785  53.251  1.00  0.00     0.120 A 
HETATM   27  C   UNL     1       8.674  19.941  54.387  1.00  0.00     0.038 A 
ENDBRANCH   1  18
TORSDOF 6
ENDMDL
MODEL 2
REMARK VINA RESULT:      -8.3      3.393      7.708
REMARK  6 active torsions:
REMARK  status: ('A' for Active; 'I' for Inactive)
REMARK    1  A    between atoms: C_6  and  C_7 
REMARK       I    between atoms: C_7  and  N_8 
REMARK    2  A    between atoms: N_8  and  C_9 
REMARK    3  A    between atoms: C_9  and  C_10 
REMARK    4  A    between atoms: C_10  and  O_11 
REMARK    5  A    between atoms: C_10  and  C_12 
REMARK    6  A    between atoms: C_15  and  O_16 
ROOT
HETATM    1  C   UNL     1       7.923  28.599  57.456  1.00  0.00     0.258 C 
HETATM    2  N   UNL     1       7.224  28.833  56.293  1.00  0.00    -0.350 N 
HETATM    3  O   UNL     1       7.873  27.533  58.059  1.00  0.00    -0.267 OA
HETATM    4  H   UNL     1       7.320  29.756  55.871  1.00  0.00     0.163 HD
ENDROOT
BRANCH   2   5
HETATM    5  C   UNL     1       6.325  27.860  55.657  1.00  0.00     0.114 C 
HETATM    6  C   UNL     1       4.858  28.240  55.869  1.00  0.00     0.035 C 
BRANCH   5   7
HETATM    7  C   UNL     1       6.700  27.639  54.164  1.00  0.00     0.173 C 
BRANCH   7   8
HETATM    8  O   UNL     1       7.756  28.554  53.820  1.00  0.00    -0.389 OA
HETATM    9  H   UNL     1       7.704  28.653  52.853  1.00  0.00     0.210 HD
ENDBRANCH   7   8
BRANCH   7  10
HETATM   10  C   UNL     1       7.174  26.237  53.847  1.00  0.00    -0.028 A 
HETATM   11  C   UNL     1       7.343  25.307  54.882  1.00  0.00     0.012 A 
HETATM   12  C   UNL     1       7.784  24.011  54.606  1.00  0.00     0.037 A 
HETATM   13  C   UNL     1       8.059  23.615  53.296  1.00  0.00     0.068 A 
HETATM   14  C   UNL     1       7.906  24.537  52.261  1.00  0.00     0.037 A 
HETATM   15  C   UNL     1       7.468  25.839  52.535  1.00  0.00     0.012 A 
BRANCH  13  16
HETATM   16  O   UNL     1       8.469  22.318  53.164  1.00  0.00    -0.356 OA
HETATM   17  C   UNL     1       8.991  21.693  54.329  1.00  0.00     0.210 C 
ENDBRANCH  13  16
ENDBRANCH   7  10
ENDBRANCH   5   7
ENDBRANCH   2   5
BRANCH   1  18
HETATM   18  C   UNL     1       8.708  29.723  57.937  1.00  0.00     0.105 A 
HETATM   19  C   UNL     1      10.000  30.131  57.508  1.00  0.00     0.071 A 
HETATM   20  C   UNL     1      10.846  29.512  56.454  1.00  0.00     0.073 C 
HETATM   21  N   UNL     1      10.444  31.203  58.173  1.00  0.00    -0.170 NA
HETATM   22  N   UNL     1       9.457  31.502  59.046  1.00  0.00    -0.225 N 
HETATM   23  C   UNL     1       8.374  30.627  58.931  1.00  0.00     0.168 A 
HETATM   24  C   UNL     1       9.441  32.530  59.982  1.00  0.00     0.122 A 
HETATM   25  N   UNL     1       7.256  30.745  59.725  1.00  0.00    -0.240 NA
HETATM   26  C   UNL     1       7.279  31.718  60.589  1.00  0.00     0.120 A 
HETATM   27  C   UNL     1       8.384  32.695  60.788  1.00  0.00     0.038 A 
ENDBRANCH   1  18
TORSDOF 6
ENDMDL
MODEL 3
REMARK VINA RESULT:      -8.3      1.818      3.080
REMARK  6 active torsions:
REMARK  status: ('A' for Active; 'I' for Inactive)
REMARK    1  A    between atoms: C_6  and  C_7 
REMARK       I    between atoms: C_7  and  N_8 
REMARK    2  A    between atoms: N_8  and  C_9 
REMARK    3  A    between atoms: C_9  and  C_10 
REMARK    4  A    between atoms: C_10  and  O_11 
REMARK    5  A    between atoms: C_10  and  C_12 
REMARK    6  A    between atoms: C_15  and  O_16 
ROOT
HETATM    1  C   UNL     1       6.827  24.967  55.356  1.00  0.00     0.258 C 
HETATM    2  N   UNL     1       7.694  26.028  55.495  1.00  0.00    -0.350 N 
HETATM    3  O   UNL     1       5.731  24.928  55.904  1.00  0.00    -0.267 OA
HETATM    4  H   UNL     1       8.588  25.964  55.011  1.00  0.00     0.163 HD
ENDROOT
BRANCH   2   5
HETATM    5  C   UNL     1       7.429  27.210  56.328  1.00  0.00     0.114 C 
HETATM    6  C   UNL     1       7.880  26.983  57.773  1.00  0.00     0.035 C 
BRANCH   5   7
HETATM    7  C   UNL     1       8.025  28.495  55.686  1.00  0.00     0.173 C 
BRANCH   7   8
HETATM    8  O   UNL     1       6.982  29.167  54.958  1.00  0.00    -0.389 OA
HETATM    9  H   UNL     1       7.271  30.094  54.892  1.00  0.00     0.210 HD
ENDBRANCH   7   8
BRANCH   7  10
HETATM   10  C   UNL     1       8.603  29.474  56.686  1.00  0.00    -0.028 A 
HETATM   11  C   UNL     1       7.753  30.146  57.574  1.00  0.00     0.012 A 
HETATM   12  C   UNL     1       8.271  31.056  58.500  1.00  0.00     0.037 A 
HETATM   13  C   UNL     1       9.643  31.307  58.561  1.00  0.00     0.068 A 
HETATM   14  C   UNL     1      10.495  30.652  57.673  1.00  0.00     0.037 A 
HETATM   15  C   UNL     1       9.978  29.743  56.742  1.00  0.00     0.012 A 
BRANCH  13  16
HETATM   16  O   UNL     1      10.017  32.208  59.520  1.00  0.00    -0.356 OA
HETATM   17  C   UNL     1       9.565  31.955  60.844  1.00  0.00     0.210 C 
ENDBRANCH  13  16
ENDBRANCH   7  10
ENDBRANCH   5   7
ENDBRANCH   2   5
BRANCH   1  18
HETATM   18  C   UNL     1       7.318  23.878  54.529  1.00  0.00     0.105 A 
HETATM   19  C   UNL     1       7.490  23.864  53.118  1.00  0.00     0.071 A 
HETATM   20  C   UNL     1       7.222  24.966  52.158  1.00  0.00     0.073 C 
HETATM   21  N   UNL     1       7.950  22.690  52.672  1.00  0.00    -0.170 NA
HETATM   22  N   UNL     1       8.075  21.924  53.778  1.00  0.00    -0.225 N 
HETATM   23  C   UNL     1       7.706  22.613  54.936  1.00  0.00     0.168 A 
HETATM   24  C   UNL     1       8.502  20.603  53.846  1.00  0.00     0.122 A 
HETATM   25  N   UNL     1       7.755  22.025  56.179  1.00  0.00    -0.240 NA
HETATM   26  C   UNL     1       8.159  20.788  56.201  1.00  0.00     0.120 A 
HETATM   27  C   UNL     1       8.567  19.972  55.026  1.00  0.00     0.038 A 
ENDBRANCH   1  18
TORSDOF 6
ENDMDL
MODEL 4
REMARK VINA RESULT:      -8.1      2.871      7.156
REMARK  6 active torsions:
REMARK  status: ('A' for Active; 'I' for Inactive)
REMARK    1  A    between atoms: C_6  and  C_7 
REMARK       I    between atoms: C_7  and  N_8 
REMARK    2  A    between atoms: N_8  and  C_9 
REMARK    3  A    between atoms: C_9  and  C_10 
REMARK    4  A    between atoms: C_10  and  O_11 
REMARK    5  A    between atoms: C_10  and  C_12 
REMARK    6  A    between atoms: C_15  and  O_16 
ROOT
HETATM    1  C   UNL     1       6.268  28.594  56.794  1.00  0.00     0.258 C 
HETATM    2  N   UNL     1       6.523  28.378  55.458  1.00  0.00    -0.350 N 
HETATM    3  O   UNL     1       5.421  27.966  57.419  1.00  0.00    -0.267 OA
HETATM    4  H   UNL     1       7.237  28.959  55.022  1.00  0.00     0.163 HD
ENDROOT
BRANCH   2   5
HETATM    5  C   UNL     1       5.802  27.406  54.624  1.00  0.00     0.114 C 
HETATM    6  C   UNL     1       4.510  28.005  54.065  1.00  0.00     0.035 C 
BRANCH   5   7
HETATM    7  C   UNL     1       6.732  26.805  53.532  1.00  0.00     0.173 C 
BRANCH   7   8
HETATM    8  O   UNL     1       7.950  27.569  53.499  1.00  0.00    -0.389 OA
HETATM    9  H   UNL     1       8.059  27.839  52.570  1.00  0.00     0.210 HD
ENDBRANCH   7   8
BRANCH   7  10
HETATM   10  C   UNL     1       7.096  25.353  53.761  1.00  0.00    -0.028 A 
HETATM   11  C   UNL     1       7.685  24.611  52.729  1.00  0.00     0.012 A 
HETATM   12  C   UNL     1       8.023  23.269  52.923  1.00  0.00     0.037 A 
HETATM   13  C   UNL     1       7.786  22.645  54.149  1.00  0.00     0.068 A 
HETATM   14  C   UNL     1       7.189  23.372  55.178  1.00  0.00     0.037 A 
HETATM   15  C   UNL     1       6.845  24.716  54.984  1.00  0.00     0.012 A 
BRANCH  13  16
HETATM   16  O   UNL     1       8.175  21.336  54.210  1.00  0.00    -0.356 OA
HETATM   17  C   UNL     1       7.911  20.538  53.063  1.00  0.00     0.210 C 
ENDBRANCH  13  16
ENDBRANCH   7  10
ENDBRANCH   5   7
ENDBRANCH   2   5
BRANCH   1  18
HETATM   18  C   UNL     1       7.061  29.645  57.408  1.00  0.00     0.105 A 
HETATM   19  C   UNL     1       6.597  30.782  58.123  1.00  0.00     0.071 A 
HETATM   20  C   UNL     1       5.190  31.155  58.425  1.00  0.00     0.073 C 
HETATM   21  N   UNL     1       7.597  31.563  58.545  1.00  0.00    -0.170 NA
HETATM   22  N   UNL     1       8.721  30.955  58.105  1.00  0.00    -0.225 N 
HETATM   23  C   UNL     1       8.440  29.775  57.411  1.00  0.00     0.168 A 
HETATM   24  C   UNL     1      10.033  31.383  58.271  1.00  0.00     0.122 A 
HETATM   25  N   UNL     1       9.435  28.992  56.874  1.00  0.00    -0.240 NA
HETATM   26  C   UNL     1      10.650  29.427  57.049  1.00  0.00     0.120 A 
HETATM   27  C   UNL     1      11.048  30.668  57.767  1.00  0.00     0.038 A 
ENDBRANCH   1  18
TORSDOF 6
ENDMDL
MODEL 5
REMARK VINA RESULT:      -8.1      3.490      8.164
REMARK  6 active torsions:
REMARK  status: ('A' for Active; 'I' for Inactive)
REMARK    1  A    between atoms: C_6  and  C_7 
REMARK       I    between atoms: C_7  and  N_8 
REMARK    2  A    between atoms: N_8  and  C_9 
REMARK    3  A    between atoms: C_9  and  C_10 
REMARK    4  A    between atoms: C_10  and  O_11 
REMARK    5  A    between atoms: C_10  and  C_12 
REMARK    6  A    between atoms: C_15  and  O_16 
ROOT
HETATM    1  C   UNL     1       8.219  28.961  57.596  1.00  0.00     0.258 C 
HETATM    2  N   UNL     1       7.400  27.859  57.483  1.00  0.00    -0.350 N 
HETATM    3  O   UNL     1       9.342  29.007  57.108  1.00  0.00    -0.267 OA
HETATM    4  H   UNL     1       6.488  27.910  57.934  1.00  0.00     0.163 HD
ENDROOT
BRANCH   2   5
HETATM    5  C   UNL     1       7.778  26.613  56.800  1.00  0.00     0.114 C 
HETATM    6  C   UNL     1       8.136  25.516  57.805  1.00  0.00     0.035 C 
BRANCH   5   7
HETATM    7  C   UNL     1       6.692  26.185  55.773  1.00  0.00     0.173 C 
BRANCH   7   8
HETATM    8  O   UNL     1       6.396  27.310  54.926  1.00  0.00    -0.389 OA
HETATM    9  H   UNL     1       5.527  27.114  54.534  1.00  0.00     0.210 HD
ENDBRANCH   7   8
BRANCH   7  10
HETATM   10  C   UNL     1       7.102  25.029  54.886  1.00  0.00    -0.028 A 
HETATM   11  C   UNL     1       7.006  23.715  55.365  1.00  0.00     0.012 A 
HETATM   12  C   UNL     1       7.386  22.637  54.560  1.00  0.00     0.037 A 
HETATM   13  C   UNL     1       7.860  22.847  53.265  1.00  0.00     0.068 A 
HETATM   14  C   UNL     1       7.971  24.152  52.784  1.00  0.00     0.037 A 
HETATM   15  C   UNL     1       7.596  25.234  53.590  1.00  0.00     0.012 A 
BRANCH  13  16
HETATM   16  O   UNL     1       8.183  21.707  52.581  1.00  0.00    -0.356 OA
HETATM   17  C   UNL     1       8.117  20.488  53.309  1.00  0.00     0.210 C 
ENDBRANCH  13  16
ENDBRANCH   7  10
ENDBRANCH   5   7
ENDBRANCH   2   5
BRANCH   1  18
HETATM   18  C   UNL     1       7.663  30.062  58.365  1.00  0.00     0.105 A 
HETATM   19  C   UNL     1       6.572  30.903  58.017  1.00  0.00     0.071 A 
HETATM   20  C   UNL     1       5.731  30.844  56.793  1.00  0.00     0.073 C 
HETATM   21  N   UNL     1       6.328  31.833  58.947  1.00  0.00    -0.170 NA
HETATM   22  N   UNL     1       7.258  31.618  59.904  1.00  0.00    -0.225 N 
HETATM   23  C   UNL     1       8.091  30.540  59.591  1.00  0.00     0.168 A 
HETATM   24  C   UNL     1       7.441  32.335  61.081  1.00  0.00     0.122 A 
HETATM   25  N   UNL     1       9.110  30.142  60.425  1.00  0.00    -0.240 NA
HETATM   26  C   UNL     1       9.250  30.839  61.516  1.00  0.00     0.120 A 
HETATM   27  C   UNL     1       8.419  32.002  61.933  1.00  0.00     0.038 A 
ENDBRANCH   1  18
TORSDOF 6
ENDMDL
MODEL 6
REMARK VINA RESULT:      -8.0      5.664      8.582
REMARK  6 active torsions:
REMARK  status: ('A' for Active; 'I' for Inactive)
REMARK    1  A    between atoms: C_6  and  C_7 
REMARK       I    between atoms: C_7  and  N_8 
REMARK    2  A    between atoms: N_8  and  C_9 
REMARK    3  A    between atoms: C_9  and  C_10 
REMARK    4  A    between atoms: C_10  and  O_11 
REMARK    5  A    between atoms: C_10  and  C_12 
REMARK    6  A    between atoms: C_15  and  O_16 
ROOT
HETATM    1  C   UNL     1       8.613  30.999  58.944  1.00  0.00     0.258 C 
HETATM    2  N   UNL     1       8.059  30.541  60.119  1.00  0.00    -0.350 N 
HETATM    3  O   UNL     1       9.222  32.060  58.866  1.00  0.00    -0.267 OA
HETATM    4  H   UNL     1       7.559  29.653  60.081  1.00  0.00     0.163 HD
ENDROOT
BRANCH   2   5
HETATM    5  C   UNL     1       8.103  31.269  61.395  1.00  0.00     0.114 C 
HETATM    6  C   UNL     1       9.520  31.759  61.704  1.00  0.00     0.035 C 
BRANCH   5   7
HETATM    7  C   UNL     1       7.033  32.395  61.437  1.00  0.00     0.173 C 
BRANCH   7   8
HETATM    8  O   UNL     1       5.841  31.916  60.789  1.00  0.00    -0.389 OA
HETATM    9  H   UNL     1       5.186  31.812  61.502  1.00  0.00     0.210 HD
ENDBRANCH   7   8
BRANCH   7  10
HETATM   10  C   UNL     1       6.659  32.841  62.834  1.00  0.00    -0.028 A 
HETATM   11  C   UNL     1       7.665  33.128  63.767  1.00  0.00     0.012 A 
HETATM   12  C   UNL     1       7.336  33.536  65.062  1.00  0.00     0.037 A 
HETATM   13  C   UNL     1       6.002  33.672  65.449  1.00  0.00     0.068 A 
HETATM   14  C   UNL     1       4.994  33.377  64.532  1.00  0.00     0.037 A 
HETATM   15  C   UNL     1       5.321  32.963  63.235  1.00  0.00     0.012 A 
BRANCH  13  16
HETATM   16  O   UNL     1       5.820  34.091  66.738  1.00  0.00    -0.356 OA
HETATM   17  C   UNL     1       4.478  34.152  67.205  1.00  0.00     0.210 C 
ENDBRANCH  13  16
ENDBRANCH   7  10
ENDBRANCH   5   7
ENDBRANCH   2   5
BRANCH   1  18
HETATM   18  C   UNL     1       8.398  30.143  57.790  1.00  0.00     0.105 A 
HETATM   19  C   UNL     1       9.375  29.618  56.901  1.00  0.00     0.071 A 
HETATM   20  C   UNL     1      10.848  29.809  56.952  1.00  0.00     0.073 C 
HETATM   21  N   UNL     1       8.834  28.875  55.929  1.00  0.00    -0.170 NA
HETATM   22  N   UNL     1       7.504  28.912  56.164  1.00  0.00    -0.225 N 
HETATM   23  C   UNL     1       7.194  29.671  57.297  1.00  0.00     0.168 A 
HETATM   24  C   UNL     1       6.497  28.307  55.420  1.00  0.00     0.122 A 
HETATM   25  N   UNL     1       5.898  29.845  57.722  1.00  0.00    -0.240 NA
HETATM   26  C   UNL     1       4.984  29.264  56.999  1.00  0.00     0.120 A 
HETATM   27  C   UNL     1       5.214  28.443  55.780  1.00  0.00     0.038 A 
ENDBRANCH   1  18
TORSDOF 6
ENDMDL
MODEL 7
REMARK VINA RESULT:      -7.9      4.473      8.154
REMARK  6 active torsions:
REMARK  status: ('A' for Active; 'I' for Inactive)
REMARK    1  A    between atoms: C_6  and  C_7 
REMARK       I    between atoms: C_7  and  N_8 
REMARK    2  A    between atoms: N_8  and  C_9 
REMARK    3  A    between atoms: C_9  and  C_10 
REMARK    4  A    between atoms: C_10  and  O_11 
REMARK    5  A    between atoms: C_10  and  C_12 
REMARK    6  A    between atoms: C_15  and  O_16 
ROOT
HETATM    1  C   UNL     1       4.686  27.851  50.483  1.00  0.00     0.258 C 
HETATM    2  N   UNL     1       4.553  27.285  51.731  1.00  0.00    -0.350 N 
HETATM    3  O   UNL     1       5.775  28.041  49.952  1.00  0.00    -0.267 OA
HETATM    4  H   UNL     1       3.607  27.180  52.095  1.00  0.00     0.163 HD
ENDROOT
BRANCH   2   5
HETATM    5  C   UNL     1       5.681  26.874  52.579  1.00  0.00     0.114 C 
HETATM    6  C   UNL     1       6.376  28.085  53.205  1.00  0.00     0.035 C 
BRANCH   5   7
HETATM    7  C   UNL     1       5.242  25.803  53.617  1.00  0.00     0.173 C 
BRANCH   7   8
HETATM    8  O   UNL     1       4.003  25.222  53.176  1.00  0.00    -0.389 OA
HETATM    9  H   UNL     1       3.971  25.382  52.217  1.00  0.00     0.210 HD
ENDBRANCH   7   8
BRANCH   7  10
HETATM   10  C   UNL     1       6.242  24.683  53.810  1.00  0.00    -0.028 A 
HETATM   11  C   UNL     1       6.816  24.060  52.693  1.00  0.00     0.012 A 
HETATM   12  C   UNL     1       7.736  23.022  52.854  1.00  0.00     0.037 A 
HETATM   13  C   UNL     1       8.107  22.589  54.128  1.00  0.00     0.068 A 
HETATM   14  C   UNL     1       7.532  23.195  55.246  1.00  0.00     0.037 A 
HETATM   15  C   UNL     1       6.606  24.232  55.087  1.00  0.00     0.012 A 
BRANCH  13  16
HETATM   16  O   UNL     1       9.025  21.576  54.145  1.00  0.00    -0.356 OA
HETATM   17  C   UNL     1       8.783  20.483  53.268  1.00  0.00     0.210 C 
ENDBRANCH  13  16
ENDBRANCH   7  10
ENDBRANCH   5   7
ENDBRANCH   2   5
BRANCH   1  18
HETATM   18  C   UNL     1       3.438  28.235  49.847  1.00  0.00     0.105 A 
HETATM   19  C   UNL     1       2.559  29.289  50.218  1.00  0.00     0.071 A 
HETATM   20  C   UNL     1       2.719  30.257  51.334  1.00  0.00     0.073 C 
HETATM   21  N   UNL     1       1.484  29.360  49.425  1.00  0.00    -0.170 NA
HETATM   22  N   UNL     1       1.642  28.354  48.537  1.00  0.00    -0.225 N 
HETATM   23  C   UNL     1       2.827  27.644  48.754  1.00  0.00     0.168 A 
HETATM   24  C   UNL     1       0.779  27.992  47.508  1.00  0.00     0.122 A 
HETATM   25  N   UNL     1       3.189  26.576  47.967  1.00  0.00    -0.240 NA
HETATM   26  C   UNL     1       2.356  26.269  47.016  1.00  0.00     0.120 A 
HETATM   27  C   UNL     1       1.073  26.958  46.709  1.00  0.00     0.038 A 
ENDBRANCH   1  18
TORSDOF 6
ENDMDL
MODEL 8
REMARK VINA RESULT:      -7.8      3.165      5.353
REMARK  6 active torsions:
REMARK  status: ('A' for Active; 'I' for Inactive)
REMARK    1  A    between atoms: C_6  and  C_7 
REMARK       I    between atoms: C_7  and  N_8 
REMARK    2  A    between atoms: N_8  and  C_9 
REMARK    3  A    between atoms: C_9  and  C_10 
REMARK    4  A    between atoms: C_10  and  O_11 
REMARK    5  A    between atoms: C_10  and  C_12 
REMARK    6  A    between atoms: C_15  and  O_16 
ROOT
HETATM    1  C   UNL     1       7.795  26.977  57.186  1.00  0.00     0.258 C 
HETATM    2  N   UNL     1       8.160  28.264  56.860  1.00  0.00    -0.350 N 
HETATM    3  O   UNL     1       7.917  26.517  58.316  1.00  0.00    -0.267 OA
HETATM    4  H   UNL     1       8.033  28.552  55.891  1.00  0.00     0.163 HD
ENDROOT
BRANCH   2   5
HETATM    5  C   UNL     1       8.759  29.219  57.804  1.00  0.00     0.114 C 
HETATM    6  C   UNL     1      10.094  29.752  57.281  1.00  0.00     0.035 C 
BRANCH   5   7
HETATM    7  C   UNL     1       7.750  30.338  58.186  1.00  0.00     0.173 C 
BRANCH   7   8
HETATM    8  O   UNL     1       6.419  29.796  58.114  1.00  0.00    -0.389 OA
HETATM    9  H   UNL     1       6.170  29.850  57.175  1.00  0.00     0.210 HD
ENDBRANCH   7   8
BRANCH   7  10
HETATM   10  C   UNL     1       7.950  30.902  59.577  1.00  0.00    -0.028 A 
HETATM   11  C   UNL     1       7.083  31.891  60.060  1.00  0.00     0.012 A 
HETATM   12  C   UNL     1       7.258  32.424  61.340  1.00  0.00     0.037 A 
HETATM   13  C   UNL     1       8.294  31.978  62.162  1.00  0.00     0.068 A 
HETATM   14  C   UNL     1       9.169  31.003  61.685  1.00  0.00     0.037 A 
HETATM   15  C   UNL     1       8.999  30.470  60.402  1.00  0.00     0.012 A 
BRANCH  13  16
HETATM   16  O   UNL     1       8.344  32.572  63.393  1.00  0.00    -0.356 OA
HETATM   17  C   UNL     1       7.159  33.220  63.836  1.00  0.00     0.210 C 
ENDBRANCH  13  16
ENDBRANCH   7  10
ENDBRANCH   5   7
ENDBRANCH   2   5
BRANCH   1  18
HETATM   18  C   UNL     1       7.276  26.188  56.081  1.00  0.00     0.105 A 
HETATM   19  C   UNL     1       7.653  24.872  55.698  1.00  0.00     0.071 A 
HETATM   20  C   UNL     1       8.655  23.987  56.347  1.00  0.00     0.073 C 
HETATM   21  N   UNL     1       6.987  24.444  54.620  1.00  0.00    -0.170 NA
HETATM   22  N   UNL     1       6.178  25.473  54.282  1.00  0.00    -0.225 N 
HETATM   23  C   UNL     1       6.318  26.557  55.153  1.00  0.00     0.168 A 
HETATM   24  C   UNL     1       5.291  25.534  53.212  1.00  0.00     0.122 A 
HETATM   25  N   UNL     1       5.590  27.714  54.997  1.00  0.00    -0.240 NA
HETATM   26  C   UNL     1       4.772  27.733  53.984  1.00  0.00     0.120 A 
HETATM   27  C   UNL     1       4.558  26.635  53.003  1.00  0.00     0.038 A 
ENDBRANCH   1  18
TORSDOF 6
ENDMDL
MODEL 9
REMARK VINA RESULT:      -7.7      3.256      6.292
REMARK  6 active torsions:
REMARK  status: ('A' for Active; 'I' for Inactive)
REMARK    1  A    between atoms: C_6  and  C_7 
REMARK       I    between atoms: C_7  and  N_8 
REMARK    2  A    between atoms: N_8  and  C_9 
REMARK    3  A    between atoms: C_9  and  C_10 
REMARK    4  A    between atoms: C_10  and  O_11 
REMARK    5  A    between atoms: C_10  and  C_12 
REMARK    6  A    between atoms: C_15  and  O_16 
ROOT
HETATM    1  C   UNL     1       6.437  27.849  53.442  1.00  0.00     0.258 C 
HETATM    2  N   UNL     1       5.556  28.326  54.387  1.00  0.00    -0.350 N 
HETATM    3  O   UNL     1       7.640  27.740  53.649  1.00  0.00    -0.267 OA
HETATM    4  H   UNL     1       4.576  28.392  54.116  1.00  0.00     0.163 HD
ENDROOT
BRANCH   2   5
HETATM    5  C   UNL     1       5.948  28.783  55.728  1.00  0.00     0.114 C 
HETATM    6  C   UNL     1       5.444  30.202  55.999  1.00  0.00     0.035 C 
BRANCH   5   7
HETATM    7  C   UNL     1       5.528  27.755  56.817  1.00  0.00     0.173 C 
BRANCH   7   8
HETATM    8  O   UNL     1       4.168  27.356  56.566  1.00  0.00    -0.389 OA
HETATM    9  H   UNL     1       3.708  27.467  57.417  1.00  0.00     0.210 HD
ENDBRANCH   7   8
BRANCH   7  10
HETATM   10  C   UNL     1       6.383  26.507  56.850  1.00  0.00    -0.028 A 
HETATM   11  C   UNL     1       5.927  25.332  56.236  1.00  0.00     0.012 A 
HETATM   12  C   UNL     1       6.702  24.170  56.263  1.00  0.00     0.037 A 
HETATM   13  C   UNL     1       7.947  24.159  56.894  1.00  0.00     0.068 A 
HETATM   14  C   UNL     1       8.404  25.319  57.518  1.00  0.00     0.037 A 
HETATM   15  C   UNL     1       7.627  26.483  57.497  1.00  0.00     0.012 A 
BRANCH  13  16
HETATM   16  O   UNL     1       8.608  22.963  56.834  1.00  0.00    -0.356 OA
HETATM   17  C   UNL     1       8.288  22.111  55.742  1.00  0.00     0.210 C 
ENDBRANCH  13  16
ENDBRANCH   7  10
ENDBRANCH   5   7
ENDBRANCH   2   5
BRANCH   1  18
HETATM   18  C   UNL     1       5.838  27.507  52.162  1.00  0.00     0.105 A 
HETATM   19  C   UNL     1       5.365  26.238  51.733  1.00  0.00     0.071 A 
HETATM   20  C   UNL     1       5.355  24.964  52.498  1.00  0.00     0.073 C 
HETATM   21  N   UNL     1       4.885  26.268  50.485  1.00  0.00    -0.170 NA
HETATM   22  N   UNL     1       5.046  27.548  50.083  1.00  0.00    -0.225 N 
HETATM   23  C   UNL     1       5.619  28.342  51.080  1.00  0.00     0.168 A 
HETATM   24  C   UNL     1       4.717  28.093  48.846  1.00  0.00     0.122 A 
HETATM   25  N   UNL     1       5.875  29.679  50.887  1.00  0.00    -0.240 NA
HETATM   26  C   UNL     1       5.555  30.152  49.717  1.00  0.00     0.120 A 
HETATM   27  C   UNL     1       4.947  29.388  48.594  1.00  0.00     0.038 A 
ENDBRANCH   1  18
TORSDOF 6
ENDMDL
MODEL 10
REMARK VINA RESULT:      -7.7      3.055      6.793
REMARK  6 active torsions:
REMARK  status: ('A' for Active; 'I' for Inactive)
REMARK    1  A    between atoms: C_6  and  C_7 
REMARK       I    between atoms: C_7  and  N_8 
REMARK    2  A    between atoms: N_8  and  C_9 
REMARK    3  A    between atoms: C_9  and  C_10 
REMARK    4  A    between atoms: C_10  and  O_11 
REMARK    5  A    between atoms: C_10  and  C_12 
REMARK    6  A    between atoms: C_15  and  O_16 
ROOT
HETATM    1  C   UNL     1       5.538  28.146  54.867  1.00  0.00     0.258 C 
HETATM    2  N   UNL     1       5.493  26.835  55.286  1.00  0.00    -0.350 N 
HETATM    3  O   UNL     1       6.054  29.039  55.530  1.00  0.00    -0.267 OA
HETATM    4  H   UNL     1       5.030  26.167  54.671  1.00  0.00     0.163 HD
ENDROOT
BRANCH   2   5
HETATM    5  C   UNL     1       6.022  26.358  56.570  1.00  0.00     0.114 C 
HETATM    6  C   UNL     1       5.103  25.304  57.192  1.00  0.00     0.035 C 
BRANCH   5   7
HETATM    7  C   UNL     1       7.499  25.889  56.430  1.00  0.00     0.173 C 
BRANCH   7   8
HETATM    8  O   UNL     1       8.132  25.988  57.718  1.00  0.00    -0.389 OA
HETATM    9  H   UNL     1       9.087  25.919  57.541  1.00  0.00     0.210 HD
ENDBRANCH   7   8
BRANCH   7  10
HETATM   10  C   UNL     1       7.651  24.465  55.942  1.00  0.00    -0.028 A 
HETATM   11  C   UNL     1       7.318  24.142  54.619  1.00  0.00     0.012 A 
HETATM   12  C   UNL     1       7.449  22.830  54.155  1.00  0.00     0.037 A 
HETATM   13  C   UNL     1       7.920  21.820  54.996  1.00  0.00     0.068 A 
HETATM   14  C   UNL     1       8.242  22.130  56.317  1.00  0.00     0.037 A 
HETATM   15  C   UNL     1       8.107  23.442  56.786  1.00  0.00     0.012 A 
BRANCH  13  16
HETATM   16  O   UNL     1       8.013  20.587  54.412  1.00  0.00    -0.356 OA
HETATM   17  C   UNL     1       8.136  20.560  52.996  1.00  0.00     0.210 C 
ENDBRANCH  13  16
ENDBRANCH   7  10
ENDBRANCH   5   7
ENDBRANCH   2   5
BRANCH   1  18
HETATM   18  C   UNL     1       4.901  28.404  53.586  1.00  0.00     0.105 A 
HETATM   19  C   UNL     1       4.008  29.459  53.253  1.00  0.00     0.071 A 
HETATM   20  C   UNL     1       3.529  30.557  54.133  1.00  0.00     0.073 C 
HETATM   21  N   UNL     1       3.592  29.394  51.984  1.00  0.00    -0.170 NA
HETATM   22  N   UNL     1       4.197  28.297  51.477  1.00  0.00    -0.225 N 
HETATM   23  C   UNL     1       5.012  27.665  52.421  1.00  0.00     0.168 A 
HETATM   24  C   UNL     1       4.075  27.783  50.191  1.00  0.00     0.122 A 
HETATM   25  N   UNL     1       5.724  26.527  52.121  1.00  0.00    -0.240 NA
HETATM   26  C   UNL     1       5.582  26.077  50.908  1.00  0.00     0.120 A 
HETATM   27  C   UNL     1       4.738  26.674  49.838  1.00  0.00     0.038 A 
ENDBRANCH   1  18
TORSDOF 6
ENDMDL
