MODEL 1
REMARK VINA RESULT:     -10.5      0.000      0.000
REMARK  8 active torsions:
REMARK  status: ('A' for Active; 'I' for Inactive)
REMARK    1  A    between atoms: C_4  and  C_5 
REMARK    2  A    between atoms: C_5  and  N_6 
REMARK    3  A    between atoms: N_10  and  C_11 
REMARK    4  A    between atoms: C_13  and  N_14 
REMARK    5  A    between atoms: N_17  and  C_19 
REMARK    6  A    between atoms: C_19  and  C_20 
REMARK    7  A    between atoms: C_29  and  N_30 
REMARK    8  A    between atoms: C_31  and  N_32 
ROOT
HETATM    1  C   UNL     1       4.698  29.765  55.705  1.00  0.00     0.181 A 
HETATM    2  N   UNL     1       5.341  28.788  55.020  1.00  0.00    -0.042 NA
HETATM    3  C   UNL     1       5.173  28.635  53.696  1.00  0.00     0.728 A 
HETATM    4  N   UNL     1       4.336  29.386  52.981  1.00  0.00    -0.048 NA
HETATM    5  C   UNL     1       3.668  30.357  53.623  1.00  0.00     0.157 A 
HETATM    6  C   UNL     1       3.817  30.555  54.986  1.00  0.00     0.189 A 
ENDROOT
BRANCH   1   7
HETATM    7  N   UNL     1       5.025  29.836  57.048  1.00  0.00    -0.360 N 
HETATM    8  C   UNL     1       4.364  30.616  58.115  1.00  0.00     0.152 C 
HETATM    9  C   UNL     1       5.291  31.750  58.626  1.00  0.00     0.255 C 
HETATM   10  N   UNL     1       6.639  31.164  59.062  1.00  0.00    -0.064 N 
HETATM   11  H   UNL     1       6.421  30.507  59.821  1.00  0.00     0.280 HD
HETATM   12  C   UNL     1       7.277  30.316  57.966  1.00  0.00     0.255 C 
HETATM   13  C   UNL     1       6.298  29.217  57.488  1.00  0.00     0.152 C 
BRANCH  10  14
HETATM   14  C   UNL     1       7.587  32.166  59.696  1.00  0.00     0.273 C 
BRANCH  14  15
HETATM   15  C   UNL     1       7.381  32.528  61.144  1.00  0.00    -0.033 A 
HETATM   16  C   UNL     1       8.244  31.988  62.114  1.00  0.00     0.009 A 
HETATM   17  C   UNL     1       8.114  32.331  63.462  1.00  0.00     0.001 A 
HETATM   18  C   UNL     1       7.117  33.213  63.863  1.00  0.00     0.000 A 
HETATM   19  C   UNL     1       6.262  33.767  62.916  1.00  0.00     0.001 A 
HETATM   20  C   UNL     1       6.400  33.439  61.565  1.00  0.00     0.009 A 
ENDBRANCH  14  15
ENDBRANCH  10  14
ENDBRANCH   1   7
BRANCH   6  21
HETATM   21  N   UNL     1       3.146  31.664  55.569  1.00  0.00    -0.108 N 
HETATM   22  O   UNL     1       1.996  31.464  55.978  1.00  0.00    -0.532 OA
HETATM   23  O   UNL     1       3.731  32.754  55.565  1.00  0.00    -0.532 OA
ENDBRANCH   6  21
BRANCH   3  24
HETATM   24  N   UNL     1       5.946  27.676  53.052  1.00  0.00    -0.211 N 
HETATM   25  C   UNL     1       5.269  26.411  52.722  1.00  0.00     0.169 C 
HETATM   26  C   UNL     1       5.305  25.406  53.891  1.00  0.00     0.255 C 
HETATM   27  N   UNL     1       6.751  25.213  54.358  1.00  0.00    -0.064 N 
HETATM   28  H   UNL     1       7.277  24.862  53.548  1.00  0.00     0.280 HD
HETATM   29  C   UNL     1       7.368  26.549  54.764  1.00  0.00     0.255 C 
HETATM   30  C   UNL     1       7.311  27.546  53.582  1.00  0.00     0.169 C 
BRANCH  27  31
HETATM   31  C   UNL     1       6.888  24.159  55.432  1.00  0.00     0.273 C 
BRANCH  31  32
HETATM   32  C   UNL     1       7.411  22.855  54.892  1.00  0.00    -0.033 A 
HETATM   33  C   UNL     1       7.658  22.699  53.518  1.00  0.00     0.009 A 
HETATM   34  C   UNL     1       8.099  21.475  53.013  1.00  0.00     0.001 A 
HETATM   35  C   UNL     1       8.304  20.399  53.873  1.00  0.00     0.000 A 
HETATM   36  C   UNL     1       8.077  20.545  55.239  1.00  0.00     0.001 A 
HETATM   37  C   UNL     1       7.632  21.766  55.749  1.00  0.00     0.009 A 
ENDBRANCH  31  32
ENDBRANCH  27  31
ENDBRANCH   3  24
BRANCH   5  38
HETATM   38  N   UNL     1       2.799  31.081  52.814  1.00  0.00    -0.284 NA
HETATM   39  H   UNL     1       1.831  30.871  53.040  1.00  0.00     0.125 HD
HETATM   40  H   UNL     1       2.959  31.015  51.811  1.00  0.00     0.125 HD
ENDBRANCH   5  38
TORSDOF 8
ENDMDL
MODEL 2
REMARK VINA RESULT:     -10.4      1.692      9.118
REMARK  8 active torsions:
REMARK  status: ('A' for Active; 'I' for Inactive)
REMARK    1  A    between atoms: C_4  and  C_5 
REMARK    2  A    between atoms: C_5  and  N_6 
REMARK    3  A    between atoms: N_10  and  C_11 
REMARK    4  A    between atoms: C_13  and  N_14 
REMARK    5  A    between atoms: N_17  and  C_19 
REMARK    6  A    between atoms: C_19  and  C_20 
REMARK    7  A    between atoms: C_29  and  N_30 
REMARK    8  A    between atoms: C_31  and  N_32 
ROOT
HETATM    1  C   UNL     1       5.165  28.524  53.495  1.00  0.00     0.181 A 
HETATM    2  N   UNL     1       5.035  28.789  54.817  1.00  0.00    -0.042 NA
HETATM    3  C   UNL     1       4.381  29.879  55.252  1.00  0.00     0.728 A 
HETATM    4  N   UNL     1       3.867  30.790  54.428  1.00  0.00    -0.048 NA
HETATM    5  C   UNL     1       3.984  30.574  53.108  1.00  0.00     0.157 A 
HETATM    6  C   UNL     1       4.644  29.459  52.617  1.00  0.00     0.189 A 
ENDROOT
BRANCH   1   7
HETATM    7  N   UNL     1       5.806  27.331  53.207  1.00  0.00    -0.360 N 
HETATM    8  C   UNL     1       5.218  26.064  52.725  1.00  0.00     0.152 C 
HETATM    9  C   UNL     1       5.317  24.960  53.809  1.00  0.00     0.255 C 
HETATM   10  N   UNL     1       6.773  24.807  54.265  1.00  0.00    -0.064 N 
HETATM   11  H   UNL     1       7.298  24.536  53.425  1.00  0.00     0.280 HD
HETATM   12  C   UNL     1       7.379  26.136  54.706  1.00  0.00     0.255 C 
HETATM   13  C   UNL     1       7.232  27.198  53.590  1.00  0.00     0.152 C 
BRANCH  10  14
HETATM   14  C   UNL     1       7.013  23.667  55.239  1.00  0.00     0.273 C 
BRANCH  14  15
HETATM   15  C   UNL     1       7.631  22.397  54.716  1.00  0.00    -0.033 A 
HETATM   16  C   UNL     1       8.010  21.394  55.626  1.00  0.00     0.009 A 
HETATM   17  C   UNL     1       8.548  20.185  55.180  1.00  0.00     0.001 A 
HETATM   18  C   UNL     1       8.720  19.960  53.818  1.00  0.00     0.000 A 
HETATM   19  C   UNL     1       8.339  20.935  52.902  1.00  0.00     0.001 A 
HETATM   20  C   UNL     1       7.786  22.139  53.345  1.00  0.00     0.009 A 
ENDBRANCH  14  15
ENDBRANCH  10  14
ENDBRANCH   1   7
BRANCH   6  21
HETATM   21  N   UNL     1       4.640  29.258  51.210  1.00  0.00    -0.108 N 
HETATM   22  O   UNL     1       5.602  29.720  50.582  1.00  0.00    -0.532 OA
HETATM   23  O   UNL     1       3.655  28.700  50.713  1.00  0.00    -0.532 OA
ENDBRANCH   6  21
BRANCH   3  24
HETATM   24  N   UNL     1       4.205  30.025  56.623  1.00  0.00    -0.211 N 
HETATM   25  C   UNL     1       4.201  31.405  57.135  1.00  0.00     0.169 C 
HETATM   26  C   UNL     1       5.623  31.920  57.437  1.00  0.00     0.255 C 
HETATM   27  N   UNL     1       6.341  30.935  58.364  1.00  0.00    -0.064 N 
HETATM   28  H   UNL     1       5.777  30.874  59.220  1.00  0.00     0.280 HD
HETATM   29  C   UNL     1       6.384  29.542  57.740  1.00  0.00     0.255 C 
HETATM   30  C   UNL     1       4.949  29.049  57.433  1.00  0.00     0.169 C 
BRANCH  27  31
HETATM   31  C   UNL     1       7.704  31.420  58.797  1.00  0.00     0.273 C 
BRANCH  31  32
HETATM   32  C   UNL     1       7.789  31.640  60.284  1.00  0.00    -0.033 A 
HETATM   33  C   UNL     1       7.095  32.701  60.889  1.00  0.00     0.009 A 
HETATM   34  C   UNL     1       7.211  32.932  62.260  1.00  0.00     0.001 A 
HETATM   35  C   UNL     1       8.015  32.105  63.041  1.00  0.00     0.000 A 
HETATM   36  C   UNL     1       8.699  31.042  62.456  1.00  0.00     0.001 A 
HETATM   37  C   UNL     1       8.588  30.809  61.084  1.00  0.00     0.009 A 
ENDBRANCH  31  32
ENDBRANCH  27  31
ENDBRANCH   3  24
BRANCH   5  38
HETATM   38  N   UNL     1       3.442  31.580  52.316  1.00  0.00    -0.284 NA
HETATM   39  H   UNL     1       2.577  31.932  52.717  1.00  0.00     0.125 HD
HETATM   40  H   UNL     1       3.322  31.360  51.330  1.00  0.00     0.125 HD
ENDBRANCH   5  38
TORSDOF 8
ENDMDL
MODEL 3
REMARK VINA RESULT:     -10.2      2.130     10.103
REMARK  8 active torsions:
REMARK  status: ('A' for Active; 'I' for Inactive)
REMARK    1  A    between atoms: C_4  and  C_5 
REMARK    2  A    between atoms: C_5  and  N_6 
REMARK    3  A    between atoms: N_10  and  C_11 
REMARK    4  A    between atoms: C_13  and  N_14 
REMARK    5  A    between atoms: N_17  and  C_19 
REMARK    6  A    between atoms: C_19  and  C_20 
REMARK    7  A    between atoms: C_29  and  N_30 
REMARK    8  A    between atoms: C_31  and  N_32 
ROOT
HETATM    1  C   UNL     1       6.799  28.709  56.385  1.00  0.00     0.181 A 
HETATM    2  N   UNL     1       7.528  29.664  57.011  1.00  0.00    -0.042 NA
HETATM    3  C   UNL     1       6.943  30.620  57.750  1.00  0.00     0.728 A 
HETATM    4  N   UNL     1       5.621  30.729  57.877  1.00  0.00    -0.048 NA
HETATM    5  C   UNL     1       4.859  29.811  57.263  1.00  0.00     0.157 A 
HETATM    6  C   UNL     1       5.422  28.803  56.497  1.00  0.00     0.189 A 
ENDROOT
BRANCH   1   7
HETATM    7  N   UNL     1       7.549  27.756  55.717  1.00  0.00    -0.360 N 
HETATM    8  C   UNL     1       7.921  27.716  54.288  1.00  0.00     0.152 C 
HETATM    9  C   UNL     1       7.212  26.541  53.565  1.00  0.00     0.255 C 
HETATM   10  N   UNL     1       7.506  25.226  54.296  1.00  0.00    -0.064 N 
HETATM   11  H   UNL     1       8.527  25.111  54.257  1.00  0.00     0.280 HD
HETATM   12  C   UNL     1       7.168  25.308  55.781  1.00  0.00     0.255 C 
HETATM   13  C   UNL     1       7.890  26.507  56.439  1.00  0.00     0.152 C 
BRANCH  10  14
HETATM   14  C   UNL     1       6.964  23.986  53.608  1.00  0.00     0.273 C 
BRANCH  14  15
HETATM   15  C   UNL     1       7.524  22.645  54.004  1.00  0.00    -0.033 A 
HETATM   16  C   UNL     1       8.049  21.802  53.010  1.00  0.00     0.009 A 
HETATM   17  C   UNL     1       8.615  20.568  53.339  1.00  0.00     0.001 A 
HETATM   18  C   UNL     1       8.661  20.156  54.667  1.00  0.00     0.000 A 
HETATM   19  C   UNL     1       8.157  20.983  55.666  1.00  0.00     0.001 A 
HETATM   20  C   UNL     1       7.606  22.224  55.340  1.00  0.00     0.009 A 
ENDBRANCH  14  15
ENDBRANCH  10  14
ENDBRANCH   1   7
BRANCH   6  21
HETATM   21  N   UNL     1       4.549  27.818  55.960  1.00  0.00    -0.108 N 
HETATM   22  O   UNL     1       4.312  26.837  56.677  1.00  0.00    -0.532 OA
HETATM   23  O   UNL     1       4.146  27.979  54.802  1.00  0.00    -0.532 OA
ENDBRANCH   6  21
BRANCH   3  24
HETATM   24  N   UNL     1       7.768  31.501  58.440  1.00  0.00    -0.211 N 
HETATM   25  C   UNL     1       8.937  30.908  59.109  1.00  0.00     0.169 C 
HETATM   26  C   UNL     1       8.602  30.386  60.521  1.00  0.00     0.255 C 
HETATM   27  N   UNL     1       7.941  31.501  61.337  1.00  0.00    -0.064 N 
HETATM   28  H   UNL     1       8.615  32.275  61.376  1.00  0.00     0.280 HD
HETATM   29  C   UNL     1       6.689  32.016  60.631  1.00  0.00     0.255 C 
HETATM   30  C   UNL     1       7.045  32.523  59.213  1.00  0.00     0.169 C 
BRANCH  27  31
HETATM   31  C   UNL     1       7.678  31.105  62.771  1.00  0.00     0.273 C 
BRANCH  31  32
HETATM   32  C   UNL     1       7.044  32.214  63.566  1.00  0.00    -0.033 A 
HETATM   33  C   UNL     1       7.840  33.143  64.257  1.00  0.00     0.009 A 
HETATM   34  C   UNL     1       7.251  34.143  65.031  1.00  0.00     0.001 A 
HETATM   35  C   UNL     1       5.863  34.231  65.120  1.00  0.00     0.000 A 
HETATM   36  C   UNL     1       5.062  33.324  64.429  1.00  0.00     0.001 A 
HETATM   37  C   UNL     1       5.647  32.320  63.655  1.00  0.00     0.009 A 
ENDBRANCH  31  32
ENDBRANCH  27  31
ENDBRANCH   3  24
BRANCH   5  38
HETATM   38  N   UNL     1       3.492  30.005  57.425  1.00  0.00    -0.284 NA
HETATM   39  H   UNL     1       3.034  30.136  56.527  1.00  0.00     0.125 HD
HETATM   40  H   UNL     1       3.216  30.733  58.081  1.00  0.00     0.125 HD
ENDBRANCH   5  38
TORSDOF 8
ENDMDL
MODEL 4
REMARK VINA RESULT:     -10.1      1.688      2.399
REMARK  8 active torsions:
REMARK  status: ('A' for Active; 'I' for Inactive)
REMARK    1  A    between atoms: C_4  and  C_5 
REMARK    2  A    between atoms: C_5  and  N_6 
REMARK    3  A    between atoms: N_10  and  C_11 
REMARK    4  A    between atoms: C_13  and  N_14 
REMARK    5  A    between atoms: N_17  and  C_19 
REMARK    6  A    between atoms: C_19  and  C_20 
REMARK    7  A    between atoms: C_29  and  N_30 
REMARK    8  A    between atoms: C_31  and  N_32 
ROOT
HETATM    1  C   UNL     1       5.940  28.496  55.521  1.00  0.00     0.181 A 
HETATM    2  N   UNL     1       5.758  27.479  54.645  1.00  0.00    -0.042 NA
HETATM    3  C   UNL     1       4.753  27.493  53.754  1.00  0.00     0.728 A 
HETATM    4  N   UNL     1       3.846  28.467  53.703  1.00  0.00    -0.048 NA
HETATM    5  C   UNL     1       3.980  29.489  54.563  1.00  0.00     0.157 A 
HETATM    6  C   UNL     1       5.006  29.518  55.493  1.00  0.00     0.189 A 
ENDROOT
BRANCH   1   7
HETATM    7  N   UNL     1       7.057  28.367  56.329  1.00  0.00    -0.360 N 
HETATM    8  C   UNL     1       7.115  28.085  57.779  1.00  0.00     0.152 C 
HETATM    9  C   UNL     1       7.649  29.313  58.561  1.00  0.00     0.255 C 
HETATM   10  N   UNL     1       9.000  29.751  57.982  1.00  0.00    -0.064 N 
HETATM   11  H   UNL     1       9.626  28.945  58.104  1.00  0.00     0.280 HD
HETATM   12  C   UNL     1       8.932  29.982  56.476  1.00  0.00     0.255 C 
HETATM   13  C   UNL     1       8.375  28.730  55.758  1.00  0.00     0.152 C 
BRANCH  10  14
HETATM   14  C   UNL     1       9.680  30.872  58.748  1.00  0.00     0.273 C 
BRANCH  14  15
HETATM   15  C   UNL     1       9.109  31.276  60.082  1.00  0.00    -0.033 A 
HETATM   16  C   UNL     1       8.274  32.405  60.155  1.00  0.00     0.009 A 
HETATM   17  C   UNL     1       7.690  32.790  61.364  1.00  0.00     0.001 A 
HETATM   18  C   UNL     1       7.935  32.056  62.520  1.00  0.00     0.000 A 
HETATM   19  C   UNL     1       8.748  30.929  62.464  1.00  0.00     0.001 A 
HETATM   20  C   UNL     1       9.320  30.532  61.253  1.00  0.00     0.009 A 
ENDBRANCH  14  15
ENDBRANCH  10  14
ENDBRANCH   1   7
BRANCH   6  21
HETATM   21  N   UNL     1       5.131  30.681  56.300  1.00  0.00    -0.108 N 
HETATM   22  O   UNL     1       4.654  30.617  57.441  1.00  0.00    -0.532 OA
HETATM   23  O   UNL     1       5.644  31.682  55.788  1.00  0.00    -0.532 OA
ENDBRANCH   6  21
BRANCH   3  24
HETATM   24  N   UNL     1       4.697  26.461  52.824  1.00  0.00    -0.211 N 
HETATM   25  C   UNL     1       4.617  25.097  53.371  1.00  0.00     0.169 C 
HETATM   26  C   UNL     1       6.009  24.509  53.682  1.00  0.00     0.255 C 
HETATM   27  N   UNL     1       6.899  24.610  52.439  1.00  0.00    -0.064 N 
HETATM   28  H   UNL     1       6.427  24.079  51.697  1.00  0.00     0.280 HD
HETATM   29  C   UNL     1       7.007  26.059  51.971  1.00  0.00     0.255 C 
HETATM   30  C   UNL     1       5.600  26.634  51.677  1.00  0.00     0.169 C 
BRANCH  27  31
HETATM   31  C   UNL     1       8.248  23.957  52.626  1.00  0.00     0.273 C 
BRANCH  31  32
HETATM   32  C   UNL     1       8.187  22.771  53.551  1.00  0.00    -0.033 A 
HETATM   33  C   UNL     1       8.476  22.916  54.917  1.00  0.00     0.009 A 
HETATM   34  C   UNL     1       8.465  21.808  55.765  1.00  0.00     0.001 A 
HETATM   35  C   UNL     1       8.160  20.546  55.260  1.00  0.00     0.000 A 
HETATM   36  C   UNL     1       7.859  20.391  53.909  1.00  0.00     0.001 A 
HETATM   37  C   UNL     1       7.872  21.496  53.056  1.00  0.00     0.009 A 
ENDBRANCH  31  32
ENDBRANCH  27  31
ENDBRANCH   3  24
BRANCH   5  38
HETATM   38  N   UNL     1       2.983  30.452  54.462  1.00  0.00    -0.284 NA
HETATM   39  H   UNL     1       2.637  30.716  55.381  1.00  0.00     0.125 HD
HETATM   40  H   UNL     1       2.211  30.237  53.834  1.00  0.00     0.125 HD
ENDBRANCH   5  38
TORSDOF 8
ENDMDL
MODEL 5
REMARK VINA RESULT:     -10.1      2.592      3.869
REMARK  8 active torsions:
REMARK  status: ('A' for Active; 'I' for Inactive)
REMARK    1  A    between atoms: C_4  and  C_5 
REMARK    2  A    between atoms: C_5  and  N_6 
REMARK    3  A    between atoms: N_10  and  C_11 
REMARK    4  A    between atoms: C_13  and  N_14 
REMARK    5  A    between atoms: N_17  and  C_19 
REMARK    6  A    between atoms: C_19  and  C_20 
REMARK    7  A    between atoms: C_29  and  N_30 
REMARK    8  A    between atoms: C_31  and  N_32 
ROOT
HETATM    1  C   UNL     1       5.867  31.184  58.003  1.00  0.00     0.181 A 
HETATM    2  N   UNL     1       5.582  30.352  56.972  1.00  0.00    -0.042 NA
HETATM    3  C   UNL     1       6.453  29.413  56.569  1.00  0.00     0.728 A 
HETATM    4  N   UNL     1       7.662  29.269  57.110  1.00  0.00    -0.048 NA
HETATM    5  C   UNL     1       7.992  30.081  58.126  1.00  0.00     0.157 A 
HETATM    6  C   UNL     1       7.120  31.058  58.579  1.00  0.00     0.189 A 
ENDROOT
BRANCH   1   7
HETATM    7  N   UNL     1       4.843  32.052  58.342  1.00  0.00    -0.360 N 
HETATM    8  C   UNL     1       4.867  33.529  58.387  1.00  0.00     0.152 C 
HETATM    9  C   UNL     1       4.738  34.041  59.846  1.00  0.00     0.255 C 
HETATM   10  N   UNL     1       3.486  33.443  60.498  1.00  0.00    -0.064 N 
HETATM   11  H   UNL     1       2.696  33.771  59.930  1.00  0.00     0.280 HD
HETATM   12  C   UNL     1       3.454  31.922  60.392  1.00  0.00     0.255 C 
HETATM   13  C   UNL     1       3.604  31.476  58.918  1.00  0.00     0.152 C 
BRANCH  10  14
HETATM   14  C   UNL     1       3.189  33.970  61.891  1.00  0.00     0.273 C 
BRANCH  14  15
HETATM   15  C   UNL     1       4.336  34.135  62.854  1.00  0.00    -0.033 A 
HETATM   16  C   UNL     1       4.954  32.990  63.385  1.00  0.00     0.009 A 
HETATM   17  C   UNL     1       6.047  33.098  64.248  1.00  0.00     0.001 A 
HETATM   18  C   UNL     1       6.537  34.352  64.597  1.00  0.00     0.000 A 
HETATM   19  C   UNL     1       5.946  35.496  64.071  1.00  0.00     0.001 A 
HETATM   20  C   UNL     1       4.864  35.390  63.194  1.00  0.00     0.009 A 
ENDBRANCH  14  15
ENDBRANCH  10  14
ENDBRANCH   1   7
BRANCH   6  21
HETATM   21  N   UNL     1       7.509  31.812  59.719  1.00  0.00    -0.108 N 
HETATM   22  O   UNL     1       8.399  32.655  59.549  1.00  0.00    -0.532 OA
HETATM   23  O   UNL     1       6.982  31.528  60.801  1.00  0.00    -0.532 OA
ENDBRANCH   6  21
BRANCH   3  24
HETATM   24  N   UNL     1       6.044  28.535  55.572  1.00  0.00    -0.211 N 
HETATM   25  C   UNL     1       4.943  27.622  55.922  1.00  0.00     0.169 C 
HETATM   26  C   UNL     1       5.446  26.336  56.610  1.00  0.00     0.255 C 
HETATM   27  N   UNL     1       6.524  25.678  55.743  1.00  0.00    -0.064 N 
HETATM   28  H   UNL     1       6.086  25.470  54.837  1.00  0.00     0.280 HD
HETATM   29  C   UNL     1       7.674  26.648  55.486  1.00  0.00     0.255 C 
HETATM   30  C   UNL     1       7.147  27.936  54.808  1.00  0.00     0.169 C 
BRANCH  27  31
HETATM   31  C   UNL     1       6.994  24.352  56.293  1.00  0.00     0.273 C 
BRANCH  31  32
HETATM   32  C   UNL     1       7.320  23.363  55.206  1.00  0.00    -0.033 A 
HETATM   33  C   UNL     1       7.651  22.036  55.524  1.00  0.00     0.009 A 
HETATM   34  C   UNL     1       7.999  21.132  54.519  1.00  0.00     0.001 A 
HETATM   35  C   UNL     1       8.015  21.542  53.188  1.00  0.00     0.000 A 
HETATM   36  C   UNL     1       7.676  22.852  52.858  1.00  0.00     0.001 A 
HETATM   37  C   UNL     1       7.330  23.760  53.860  1.00  0.00     0.009 A 
ENDBRANCH  31  32
ENDBRANCH  27  31
ENDBRANCH   3  24
BRANCH   5  38
HETATM   38  N   UNL     1       9.276  29.883  58.620  1.00  0.00    -0.284 NA
HETATM   39  H   UNL     1       9.951  30.454  58.119  1.00  0.00     0.125 HD
HETATM   40  H   UNL     1       9.591  28.917  58.678  1.00  0.00     0.125 HD
ENDBRANCH   5  38
TORSDOF 8
ENDMDL
MODEL 6
REMARK VINA RESULT:      -9.9      2.364     10.124
REMARK  8 active torsions:
REMARK  status: ('A' for Active; 'I' for Inactive)
REMARK    1  A    between atoms: C_4  and  C_5 
REMARK    2  A    between atoms: C_5  and  N_6 
REMARK    3  A    between atoms: N_10  and  C_11 
REMARK    4  A    between atoms: C_13  and  N_14 
REMARK    5  A    between atoms: N_17  and  C_19 
REMARK    6  A    between atoms: C_19  and  C_20 
REMARK    7  A    between atoms: C_29  and  N_30 
REMARK    8  A    between atoms: C_31  and  N_32 
ROOT
HETATM    1  C   UNL     1       5.920  29.265  57.193  1.00  0.00     0.181 A 
HETATM    2  N   UNL     1       4.844  29.958  57.638  1.00  0.00    -0.042 NA
HETATM    3  C   UNL     1       4.985  31.109  58.316  1.00  0.00     0.728 A 
HETATM    4  N   UNL     1       6.173  31.617  58.640  1.00  0.00    -0.048 NA
HETATM    5  C   UNL     1       7.266  30.956  58.230  1.00  0.00     0.157 A 
HETATM    6  C   UNL     1       7.167  29.769  57.522  1.00  0.00     0.189 A 
ENDROOT
BRANCH   1   7
HETATM    7  N   UNL     1       5.611  28.135  56.455  1.00  0.00    -0.360 N 
HETATM    8  C   UNL     1       5.655  26.720  56.879  1.00  0.00     0.152 C 
HETATM    9  C   UNL     1       6.778  25.953  56.134  1.00  0.00     0.255 C 
HETATM   10  N   UNL     1       6.604  26.118  54.619  1.00  0.00    -0.064 N 
HETATM   11  H   UNL     1       5.685  25.713  54.401  1.00  0.00     0.280 HD
HETATM   12  C   UNL     1       6.505  27.584  54.209  1.00  0.00     0.255 C 
HETATM   13  C   UNL     1       5.382  28.295  54.999  1.00  0.00     0.152 C 
BRANCH  10  14
HETATM   14  C   UNL     1       7.577  25.307  53.781  1.00  0.00     0.273 C 
BRANCH  14  15
HETATM   15  C   UNL     1       7.641  23.818  53.999  1.00  0.00    -0.033 A 
HETATM   16  C   UNL     1       7.806  22.971  52.889  1.00  0.00     0.009 A 
HETATM   17  C   UNL     1       7.912  21.587  53.051  1.00  0.00     0.001 A 
HETATM   18  C   UNL     1       7.850  21.029  54.323  1.00  0.00     0.000 A 
HETATM   19  C   UNL     1       7.699  21.853  55.434  1.00  0.00     0.001 A 
HETATM   20  C   UNL     1       7.610  23.238  55.276  1.00  0.00     0.009 A 
ENDBRANCH  14  15
ENDBRANCH  10  14
ENDBRANCH   1   7
BRANCH   6  21
HETATM   21  N   UNL     1       8.371  29.183  57.045  1.00  0.00    -0.108 N 
HETATM   22  O   UNL     1       8.896  28.328  57.769  1.00  0.00    -0.532 OA
HETATM   23  O   UNL     1       8.836  29.614  55.983  1.00  0.00    -0.532 OA
ENDBRANCH   6  21
BRANCH   3  24
HETATM   24  N   UNL     1       3.831  31.810  58.649  1.00  0.00    -0.211 N 
HETATM   25  C   UNL     1       3.843  33.254  58.364  1.00  0.00     0.169 C 
HETATM   26  C   UNL     1       4.465  34.072  59.514  1.00  0.00     0.255 C 
HETATM   27  N   UNL     1       3.765  33.722  60.831  1.00  0.00    -0.064 N 
HETATM   28  H   UNL     1       2.772  33.952  60.704  1.00  0.00     0.280 HD
HETATM   29  C   UNL     1       3.860  32.225  61.109  1.00  0.00     0.255 C 
HETATM   30  C   UNL     1       3.242  31.422  59.939  1.00  0.00     0.169 C 
BRANCH  27  31
HETATM   31  C   UNL     1       4.242  34.562  61.993  1.00  0.00     0.273 C 
BRANCH  31  32
HETATM   32  C   UNL     1       5.433  33.957  62.686  1.00  0.00    -0.033 A 
HETATM   33  C   UNL     1       5.461  33.840  64.085  1.00  0.00     0.009 A 
HETATM   34  C   UNL     1       6.585  33.322  64.731  1.00  0.00     0.001 A 
HETATM   35  C   UNL     1       7.688  32.910  63.987  1.00  0.00     0.000 A 
HETATM   36  C   UNL     1       7.668  33.007  62.597  1.00  0.00     0.001 A 
HETATM   37  C   UNL     1       6.547  33.528  61.948  1.00  0.00     0.009 A 
ENDBRANCH  31  32
ENDBRANCH  27  31
ENDBRANCH   3  24
BRANCH   5  38
HETATM   38  N   UNL     1       8.465  31.537  58.626  1.00  0.00    -0.284 NA
HETATM   39  H   UNL     1       9.088  30.845  59.036  1.00  0.00     0.125 HD
HETATM   40  H   UNL     1       8.392  32.357  59.225  1.00  0.00     0.125 HD
ENDBRANCH   5  38
TORSDOF 8
ENDMDL
MODEL 7
REMARK VINA RESULT:      -9.7      3.009      7.701
REMARK  8 active torsions:
REMARK  status: ('A' for Active; 'I' for Inactive)
REMARK    1  A    between atoms: C_4  and  C_5 
REMARK    2  A    between atoms: C_5  and  N_6 
REMARK    3  A    between atoms: N_10  and  C_11 
REMARK    4  A    between atoms: C_13  and  N_14 
REMARK    5  A    between atoms: N_17  and  C_19 
REMARK    6  A    between atoms: C_19  and  C_20 
REMARK    7  A    between atoms: C_29  and  N_30 
REMARK    8  A    between atoms: C_31  and  N_32 
ROOT
HETATM    1  C   UNL     1       4.748  29.886  54.679  1.00  0.00     0.181 A 
HETATM    2  N   UNL     1       5.846  29.100  54.560  1.00  0.00    -0.042 NA
HETATM    3  C   UNL     1       6.675  28.895  55.596  1.00  0.00     0.728 A 
HETATM    4  N   UNL     1       6.511  29.481  56.782  1.00  0.00    -0.048 NA
HETATM    5  C   UNL     1       5.443  30.279  56.940  1.00  0.00     0.157 A 
HETATM    6  C   UNL     1       4.558  30.512  55.899  1.00  0.00     0.189 A 
ENDROOT
BRANCH   1   7
HETATM    7  N   UNL     1       3.958  29.946  53.543  1.00  0.00    -0.360 N 
HETATM    8  C   UNL     1       3.170  28.866  52.915  1.00  0.00     0.152 C 
HETATM    9  C   UNL     1       3.766  28.475  51.537  1.00  0.00     0.255 C 
HETATM   10  N   UNL     1       3.887  29.720  50.651  1.00  0.00    -0.064 N 
HETATM   11  H   UNL     1       2.929  30.076  50.542  1.00  0.00     0.280 HD
HETATM   12  C   UNL     1       4.656  30.843  51.340  1.00  0.00     0.255 C 
HETATM   13  C   UNL     1       4.024  31.172  52.713  1.00  0.00     0.152 C 
BRANCH  10  14
HETATM   14  C   UNL     1       4.345  29.441  49.230  1.00  0.00     0.273 C 
BRANCH  14  15
HETATM   15  C   UNL     1       3.726  28.282  48.494  1.00  0.00    -0.033 A 
HETATM   16  C   UNL     1       4.492  27.125  48.270  1.00  0.00     0.009 A 
HETATM   17  C   UNL     1       3.943  26.012  47.628  1.00  0.00     0.001 A 
HETATM   18  C   UNL     1       2.621  26.040  47.196  1.00  0.00     0.000 A 
HETATM   19  C   UNL     1       1.844  27.172  47.420  1.00  0.00     0.001 A 
HETATM   20  C   UNL     1       2.386  28.280  48.076  1.00  0.00     0.009 A 
ENDBRANCH  14  15
ENDBRANCH  10  14
ENDBRANCH   1   7
BRANCH   6  21
HETATM   21  N   UNL     1       3.404  31.293  56.178  1.00  0.00    -0.108 N 
HETATM   22  O   UNL     1       3.490  32.508  55.959  1.00  0.00    -0.532 OA
HETATM   23  O   UNL     1       2.429  30.717  56.676  1.00  0.00    -0.532 OA
ENDBRANCH   6  21
BRANCH   3  24
HETATM   24  N   UNL     1       7.721  27.996  55.421  1.00  0.00    -0.211 N 
HETATM   25  C   UNL     1       8.058  27.653  54.030  1.00  0.00     0.169 C 
HETATM   26  C   UNL     1       7.198  26.494  53.488  1.00  0.00     0.255 C 
HETATM   27  N   UNL     1       7.287  25.298  54.442  1.00  0.00    -0.064 N 
HETATM   28  H   UNL     1       8.279  25.036  54.491  1.00  0.00     0.280 HD
HETATM   29  C   UNL     1       6.846  25.697  55.847  1.00  0.00     0.255 C 
HETATM   30  C   UNL     1       7.712  26.870  56.367  1.00  0.00     0.169 C 
BRANCH  27  31
HETATM   31  C   UNL     1       6.558  24.079  53.928  1.00  0.00     0.273 C 
BRANCH  31  32
HETATM   32  C   UNL     1       7.344  22.812  54.133  1.00  0.00    -0.033 A 
HETATM   33  C   UNL     1       7.853  22.101  53.034  1.00  0.00     0.009 A 
HETATM   34  C   UNL     1       8.542  20.902  53.223  1.00  0.00     0.001 A 
HETATM   35  C   UNL     1       8.735  20.404  54.510  1.00  0.00     0.000 A 
HETATM   36  C   UNL     1       8.247  21.107  55.610  1.00  0.00     0.001 A 
HETATM   37  C   UNL     1       7.555  22.305  55.425  1.00  0.00     0.009 A 
ENDBRANCH  31  32
ENDBRANCH  27  31
ENDBRANCH   3  24
BRANCH   5  38
HETATM   38  N   UNL     1       5.354  30.869  58.195  1.00  0.00    -0.284 NA
HETATM   39  H   UNL     1       4.499  30.591  58.668  1.00  0.00     0.125 HD
HETATM   40  H   UNL     1       5.473  31.879  58.226  1.00  0.00     0.125 HD
ENDBRANCH   5  38
TORSDOF 8
ENDMDL
MODEL 8
REMARK VINA RESULT:      -9.5      4.207      8.273
REMARK  8 active torsions:
REMARK  status: ('A' for Active; 'I' for Inactive)
REMARK    1  A    between atoms: C_4  and  C_5 
REMARK    2  A    between atoms: C_5  and  N_6 
REMARK    3  A    between atoms: N_10  and  C_11 
REMARK    4  A    between atoms: C_13  and  N_14 
REMARK    5  A    between atoms: N_17  and  C_19 
REMARK    6  A    between atoms: C_19  and  C_20 
REMARK    7  A    between atoms: C_29  and  N_30 
REMARK    8  A    between atoms: C_31  and  N_32 
ROOT
HETATM    1  C   UNL     1       4.673  28.889  53.535  1.00  0.00     0.181 A 
HETATM    2  N   UNL     1       4.249  29.614  52.472  1.00  0.00    -0.042 NA
HETATM    3  C   UNL     1       3.575  30.764  52.634  1.00  0.00     0.728 A 
HETATM    4  N   UNL     1       3.235  31.242  53.830  1.00  0.00    -0.048 NA
HETATM    5  C   UNL     1       3.623  30.548  54.911  1.00  0.00     0.157 A 
HETATM    6  C   UNL     1       4.327  29.360  54.790  1.00  0.00     0.189 A 
ENDROOT
BRANCH   1   7
HETATM    7  N   UNL     1       5.410  27.764  53.207  1.00  0.00    -0.360 N 
HETATM    8  C   UNL     1       4.928  26.388  52.963  1.00  0.00     0.152 C 
HETATM    9  C   UNL     1       5.409  25.426  54.080  1.00  0.00     0.255 C 
HETATM   10  N   UNL     1       6.934  25.510  54.217  1.00  0.00    -0.064 N 
HETATM   11  H   UNL     1       7.309  25.220  53.306  1.00  0.00     0.280 HD
HETATM   12  C   UNL     1       7.415  26.944  54.413  1.00  0.00     0.255 C 
HETATM   13  C   UNL     1       6.888  27.854  53.278  1.00  0.00     0.152 C 
BRANCH  10  14
HETATM   14  C   UNL     1       7.533  24.519  55.200  1.00  0.00     0.273 C 
BRANCH  14  15
HETATM   15  C   UNL     1       7.752  23.101  54.742  1.00  0.00    -0.033 A 
HETATM   16  C   UNL     1       7.691  22.060  55.685  1.00  0.00     0.009 A 
HETATM   17  C   UNL     1       7.846  20.727  55.296  1.00  0.00     0.001 A 
HETATM   18  C   UNL     1       8.070  20.414  53.959  1.00  0.00     0.000 A 
HETATM   19  C   UNL     1       8.120  21.430  53.010  1.00  0.00     0.001 A 
HETATM   20  C   UNL     1       7.949  22.762  53.394  1.00  0.00     0.009 A 
ENDBRANCH  14  15
ENDBRANCH  10  14
ENDBRANCH   1   7
BRANCH   6  21
HETATM   21  N   UNL     1       4.782  28.739  55.985  1.00  0.00    -0.108 N 
HETATM   22  O   UNL     1       5.756  29.259  56.544  1.00  0.00    -0.532 OA
HETATM   23  O   UNL     1       4.219  27.697  56.339  1.00  0.00    -0.532 OA
ENDBRANCH   6  21
BRANCH   3  24
HETATM   24  N   UNL     1       3.264  31.499  51.495  1.00  0.00    -0.211 N 
HETATM   25  C   UNL     1       2.197  30.953  50.640  1.00  0.00     0.169 C 
HETATM   26  C   UNL     1       2.731  29.925  49.622  1.00  0.00     0.255 C 
HETATM   27  N   UNL     1       3.885  30.542  48.826  1.00  0.00    -0.064 N 
HETATM   28  H   UNL     1       3.505  31.372  48.354  1.00  0.00     0.280 HD
HETATM   29  C   UNL     1       4.994  31.012  49.764  1.00  0.00     0.255 C 
HETATM   30  C   UNL     1       4.435  32.033  50.785  1.00  0.00     0.169 C 
BRANCH  27  31
HETATM   31  C   UNL     1       4.395  29.636  47.730  1.00  0.00     0.273 C 
BRANCH  31  32
HETATM   32  C   UNL     1       3.959  28.208  47.918  1.00  0.00    -0.033 A 
HETATM   33  C   UNL     1       4.607  27.380  48.849  1.00  0.00     0.009 A 
HETATM   34  C   UNL     1       4.233  26.043  48.989  1.00  0.00     0.001 A 
HETATM   35  C   UNL     1       3.206  25.521  48.206  1.00  0.00     0.000 A 
HETATM   36  C   UNL     1       2.546  26.335  47.288  1.00  0.00     0.001 A 
HETATM   37  C   UNL     1       2.919  27.672  47.143  1.00  0.00     0.009 A 
ENDBRANCH  31  32
ENDBRANCH  27  31
ENDBRANCH   3  24
BRANCH   5  38
HETATM   38  N   UNL     1       3.211  31.098  56.119  1.00  0.00    -0.284 NA
HETATM   39  H   UNL     1       2.475  30.539  56.542  1.00  0.00     0.125 HD
HETATM   40  H   UNL     1       2.953  32.082  56.101  1.00  0.00     0.125 HD
ENDBRANCH   5  38
TORSDOF 8
ENDMDL
MODEL 9
REMARK VINA RESULT:      -9.4      3.556      7.649
REMARK  8 active torsions:
REMARK  status: ('A' for Active; 'I' for Inactive)
REMARK    1  A    between atoms: C_4  and  C_5 
REMARK    2  A    between atoms: C_5  and  N_6 
REMARK    3  A    between atoms: N_10  and  C_11 
REMARK    4  A    between atoms: C_13  and  N_14 
REMARK    5  A    between atoms: N_17  and  C_19 
REMARK    6  A    between atoms: C_19  and  C_20 
REMARK    7  A    between atoms: C_29  and  N_30 
REMARK    8  A    between atoms: C_31  and  N_32 
ROOT
HETATM    1  C   UNL     1       4.789  29.861  55.153  1.00  0.00     0.181 A 
HETATM    2  N   UNL     1       4.441  30.011  53.852  1.00  0.00    -0.042 NA
HETATM    3  C   UNL     1       3.648  31.018  53.451  1.00  0.00     0.728 A 
HETATM    4  N   UNL     1       3.111  31.897  54.297  1.00  0.00    -0.048 NA
HETATM    5  C   UNL     1       3.419  31.778  55.598  1.00  0.00     0.157 A 
HETATM    6  C   UNL     1       4.240  30.758  56.053  1.00  0.00     0.189 A 
ENDROOT
BRANCH   1   7
HETATM    7  N   UNL     1       5.665  28.816  55.397  1.00  0.00    -0.360 N 
HETATM    8  C   UNL     1       7.136  28.800  55.262  1.00  0.00     0.152 C 
HETATM    9  C   UNL     1       7.575  27.872  54.100  1.00  0.00     0.255 C 
HETATM   10  N   UNL     1       6.977  26.474  54.296  1.00  0.00    -0.064 N 
HETATM   11  H   UNL     1       7.354  26.135  55.189  1.00  0.00     0.280 HD
HETATM   12  C   UNL     1       5.465  26.518  54.488  1.00  0.00     0.255 C 
HETATM   13  C   UNL     1       5.092  27.472  55.648  1.00  0.00     0.152 C 
BRANCH  10  14
HETATM   14  C   UNL     1       7.440  25.443  53.281  1.00  0.00     0.273 C 
BRANCH  14  15
HETATM   15  C   UNL     1       7.566  24.009  53.725  1.00  0.00    -0.033 A 
HETATM   16  C   UNL     1       7.800  23.012  52.762  1.00  0.00     0.009 A 
HETATM   17  C   UNL     1       7.965  21.676  53.135  1.00  0.00     0.001 A 
HETATM   18  C   UNL     1       7.894  21.315  54.476  1.00  0.00     0.000 A 
HETATM   19  C   UNL     1       7.676  22.289  55.445  1.00  0.00     0.001 A 
HETATM   20  C   UNL     1       7.528  23.628  55.075  1.00  0.00     0.009 A 
ENDBRANCH  14  15
ENDBRANCH  10  14
ENDBRANCH   1   7
BRANCH   6  21
HETATM   21  N   UNL     1       4.592  30.760  57.430  1.00  0.00    -0.108 N 
HETATM   22  O   UNL     1       3.681  30.525  58.235  1.00  0.00    -0.532 OA
HETATM   23  O   UNL     1       5.755  31.058  57.724  1.00  0.00    -0.532 OA
ENDBRANCH   6  21
BRANCH   3  24
HETATM   24  N   UNL     1       3.421  31.161  52.087  1.00  0.00    -0.211 N 
HETATM   25  C   UNL     1       2.530  30.166  51.468  1.00  0.00     0.169 C 
HETATM   26  C   UNL     1       3.287  28.894  51.034  1.00  0.00     0.255 C 
HETATM   27  N   UNL     1       4.472  29.280  50.144  1.00  0.00    -0.064 N 
HETATM   28  H   UNL     1       4.080  29.776  49.334  1.00  0.00     0.280 HD
HETATM   29  C   UNL     1       5.400  30.247  50.873  1.00  0.00     0.255 C 
HETATM   30  C   UNL     1       4.619  31.510  51.311  1.00  0.00     0.169 C 
BRANCH  27  31
HETATM   31  C   UNL     1       5.203  28.081  49.585  1.00  0.00     0.273 C 
BRANCH  31  32
HETATM   32  C   UNL     1       4.311  27.204  48.748  1.00  0.00    -0.033 A 
HETATM   33  C   UNL     1       3.574  27.745  47.683  1.00  0.00     0.009 A 
HETATM   34  C   UNL     1       2.712  26.940  46.937  1.00  0.00     0.001 A 
HETATM   35  C   UNL     1       2.581  25.588  47.243  1.00  0.00     0.000 A 
HETATM   36  C   UNL     1       3.317  25.035  48.289  1.00  0.00     0.001 A 
HETATM   37  C   UNL     1       4.178  25.838  49.040  1.00  0.00     0.009 A 
ENDBRANCH  31  32
ENDBRANCH  27  31
ENDBRANCH   3  24
BRANCH   5  38
HETATM   38  N   UNL     1       2.804  32.717  56.417  1.00  0.00    -0.284 NA
HETATM   39  H   UNL     1       3.337  32.860  57.271  1.00  0.00     0.125 HD
HETATM   40  H   UNL     1       1.822  32.555  56.628  1.00  0.00     0.125 HD
ENDBRANCH   5  38
TORSDOF 8
ENDMDL
MODEL 10
REMARK VINA RESULT:      -9.3      2.423      3.716
REMARK  8 active torsions:
REMARK  status: ('A' for Active; 'I' for Inactive)
REMARK    1  A    between atoms: C_4  and  C_5 
REMARK    2  A    between atoms: C_5  and  N_6 
REMARK    3  A    between atoms: N_10  and  C_11 
REMARK    4  A    between atoms: C_13  and  N_14 
REMARK    5  A    between atoms: N_17  and  C_19 
REMARK    6  A    between atoms: C_19  and  C_20 
REMARK    7  A    between atoms: C_29  and  N_30 
REMARK    8  A    between atoms: C_31  and  N_32 
ROOT
HETATM    1  C   UNL     1       5.040  31.526  58.243  1.00  0.00     0.181 A 
HETATM    2  N   UNL     1       5.904  30.494  58.079  1.00  0.00    -0.042 NA
HETATM    3  C   UNL     1       6.369  30.156  56.866  1.00  0.00     0.728 A 
HETATM    4  N   UNL     1       5.981  30.766  55.746  1.00  0.00    -0.048 NA
HETATM    5  C   UNL     1       5.116  31.786  55.860  1.00  0.00     0.157 A 
HETATM    6  C   UNL     1       4.617  32.173  57.094  1.00  0.00     0.189 A 
ENDROOT
BRANCH   1   7
HETATM    7  N   UNL     1       4.705  31.793  59.559  1.00  0.00    -0.360 N 
HETATM    8  C   UNL     1       3.369  31.772  60.189  1.00  0.00     0.152 C 
HETATM    9  C   UNL     1       2.928  33.201  60.600  1.00  0.00     0.255 C 
HETATM   10  N   UNL     1       4.000  33.839  61.492  1.00  0.00    -0.064 N 
HETATM   11  H   UNL     1       4.069  33.232  62.318  1.00  0.00     0.280 HD
HETATM   12  C   UNL     1       5.381  33.800  60.847  1.00  0.00     0.255 C 
HETATM   13  C   UNL     1       5.753  32.353  60.445  1.00  0.00     0.152 C 
BRANCH  10  14
HETATM   14  C   UNL     1       3.622  35.197  62.058  1.00  0.00     0.273 C 
BRANCH  14  15
HETATM   15  C   UNL     1       3.821  35.438  63.532  1.00  0.00    -0.033 A 
HETATM   16  C   UNL     1       4.559  36.560  63.948  1.00  0.00     0.009 A 
HETATM   17  C   UNL     1       4.731  36.844  65.305  1.00  0.00     0.001 A 
HETATM   18  C   UNL     1       4.174  36.008  66.267  1.00  0.00     0.000 A 
HETATM   19  C   UNL     1       3.431  34.900  65.874  1.00  0.00     0.001 A 
HETATM   20  C   UNL     1       3.242  34.624  64.517  1.00  0.00     0.009 A 
ENDBRANCH  14  15
ENDBRANCH  10  14
ENDBRANCH   1   7
BRANCH   6  21
HETATM   21  N   UNL     1       3.780  33.321  57.136  1.00  0.00    -0.108 N 
HETATM   22  O   UNL     1       4.334  34.402  57.371  1.00  0.00    -0.532 OA
HETATM   23  O   UNL     1       2.563  33.148  57.001  1.00  0.00    -0.532 OA
ENDBRANCH   6  21
BRANCH   3  24
HETATM   24  N   UNL     1       7.328  29.153  56.796  1.00  0.00    -0.211 N 
HETATM   25  C   UNL     1       7.839  28.833  55.452  1.00  0.00     0.169 C 
HETATM   26  C   UNL     1       6.956  27.803  54.720  1.00  0.00     0.255 C 
HETATM   27  N   UNL     1       6.769  26.566  55.605  1.00  0.00    -0.064 N 
HETATM   28  H   UNL     1       7.709  26.191  55.786  1.00  0.00     0.280 HD
HETATM   29  C   UNL     1       6.160  26.953  56.950  1.00  0.00     0.255 C 
HETATM   30  C   UNL     1       7.055  27.997  57.662  1.00  0.00     0.169 C 
BRANCH  27  31
HETATM   31  C   UNL     1       6.005  25.460  54.916  1.00  0.00     0.273 C 
BRANCH  31  32
HETATM   32  C   UNL     1       6.892  24.312  54.515  1.00  0.00    -0.033 A 
HETATM   33  C   UNL     1       7.731  23.696  55.458  1.00  0.00     0.009 A 
HETATM   34  C   UNL     1       8.588  22.663  55.075  1.00  0.00     0.001 A 
HETATM   35  C   UNL     1       8.612  22.231  53.751  1.00  0.00     0.000 A 
HETATM   36  C   UNL     1       7.775  22.825  52.809  1.00  0.00     0.001 A 
HETATM   37  C   UNL     1       6.919  23.861  53.187  1.00  0.00     0.009 A 
ENDBRANCH  31  32
ENDBRANCH  27  31
ENDBRANCH   3  24
BRANCH   5  38
HETATM   38  N   UNL     1       4.743  32.355  54.648  1.00  0.00    -0.284 NA
HETATM   39  H   UNL     1       4.949  31.729  53.874  1.00  0.00     0.125 HD
HETATM   40  H   UNL     1       5.099  33.289  54.462  1.00  0.00     0.125 HD
ENDBRANCH   5  38
TORSDOF 8
ENDMDL
