MODEL 1
REMARK VINA RESULT:      -8.4      0.000      0.000
REMARK  9 active torsions:
REMARK  status: ('A' for Active; 'I' for Inactive)
REMARK    1  A    between atoms: C_2  and  N_3 
REMARK    2  A    between atoms: N_3  and  C_30 
REMARK    3  A    between atoms: N_3  and  C_5 
REMARK    4  A    between atoms: C_5  and  C_6 
REMARK    5  A    between atoms: C_5  and  C_14 
REMARK    6  A    between atoms: C_8  and  O_9 
REMARK    7  A    between atoms: C_14  and  N_15 
REMARK       I    between atoms: N_15  and  C_16 
REMARK    8  A    between atoms: C_16  and  C_17 
REMARK    9  A    between atoms: C_18  and  N_19 
ROOT
HETATM    1  C   UNL     1       8.028  26.694  57.462  1.00  0.00     0.161 C 
ENDROOT
BRANCH   1   2
HETATM    2  C   UNL     1       7.971  28.114  56.803  1.00  0.00     0.238 C 
BRANCH   2   3
HETATM    3  N   UNL     1       8.144  29.257  57.850  1.00  0.00    -0.062 N 
HETATM    4  H   UNL     1       7.979  28.813  58.760  1.00  0.00     0.280 HD
BRANCH   3   5
HETATM    5  C   UNL     1       7.056  30.325  57.736  1.00  0.00     0.231 C 
HETATM    6  C   UNL     1       7.065  31.313  58.888  1.00  0.00     0.034 C 
ENDBRANCH   3   5
BRANCH   3   7
HETATM    7  C   UNL     1       9.556  29.820  57.892  1.00  0.00     0.231 C 
HETATM    8  C   UNL     1      10.262  29.699  56.552  1.00  0.00     0.034 C 
ENDBRANCH   3   7
ENDBRANCH   2   3
BRANCH   2   9
HETATM    9  C   UNL     1       6.666  28.271  56.027  1.00  0.00    -0.023 A 
HETATM   10  C   UNL     1       6.656  28.550  54.647  1.00  0.00     0.046 A 
HETATM   11  C   UNL     1       5.446  28.682  53.961  1.00  0.00     0.068 A 
HETATM   12  C   UNL     1       4.241  28.476  54.627  1.00  0.00     0.037 A 
HETATM   13  C   UNL     1       4.236  28.200  55.992  1.00  0.00     0.003 A 
HETATM   14  C   UNL     1       5.439  28.114  56.691  1.00  0.00     0.009 A 
BRANCH  11  15
HETATM   15  O   UNL     1       5.361  28.950  52.624  1.00  0.00    -0.356 OA
HETATM   16  C   UNL     1       4.061  28.754  52.071  1.00  0.00     0.210 C 
ENDBRANCH  11  15
ENDBRANCH   2   9
ENDBRANCH   1   2
BRANCH   1  17
HETATM   17  N   UNL     1       8.180  25.616  56.507  1.00  0.00    -0.354 N 
HETATM   18  C   UNL     1       7.210  24.636  56.426  1.00  0.00     0.253 C 
HETATM   19  O   UNL     1       6.168  24.689  57.068  1.00  0.00    -0.268 OA
HETATM   20  H   UNL     1       9.080  25.425  56.074  1.00  0.00     0.162 HD
BRANCH  18  21
HETATM   21  C   UNL     1       7.523  23.538  55.488  1.00  0.00     0.053 A 
HETATM   22  C   UNL     1       7.305  23.668  54.101  1.00  0.00     0.026 A 
HETATM   23  C   UNL     1       7.610  22.542  53.316  1.00  0.00     0.025 A 
HETATM   24  C   UNL     1       8.067  21.344  53.882  1.00  0.00     0.008 A 
HETATM   25  C   UNL     1       8.253  21.230  55.260  1.00  0.00    -0.061 A 
HETATM   26  C   UNL     1       8.736  19.951  55.877  1.00  0.00     0.048 C 
HETATM   27  C   UNL     1       7.983  22.341  56.063  1.00  0.00     0.025 A 
BRANCH  22  28
HETATM   28  N   UNL     1       6.826  24.868  53.539  1.00  0.00    -0.283 NA
HETATM   29  C   UNL     1       5.369  25.108  53.519  1.00  0.00     0.096 C 
HETATM   30  C   UNL     1       4.986  25.107  52.045  1.00  0.00     0.016 C 
HETATM   31  C   UNL     1       6.211  25.724  51.400  1.00  0.00     0.016 C 
HETATM   32  C   UNL     1       7.357  25.071  52.167  1.00  0.00     0.096 C 
ENDBRANCH  22  28
ENDBRANCH  18  21
ENDBRANCH   1  17
TORSDOF 9
ENDMDL
MODEL 2
REMARK VINA RESULT:      -8.4      1.730      3.882
REMARK  9 active torsions:
REMARK  status: ('A' for Active; 'I' for Inactive)
REMARK    1  A    between atoms: C_2  and  N_3 
REMARK    2  A    between atoms: N_3  and  C_30 
REMARK    3  A    between atoms: N_3  and  C_5 
REMARK    4  A    between atoms: C_5  and  C_6 
REMARK    5  A    between atoms: C_5  and  C_14 
REMARK    6  A    between atoms: C_8  and  O_9 
REMARK    7  A    between atoms: C_14  and  N_15 
REMARK       I    between atoms: N_15  and  C_16 
REMARK    8  A    between atoms: C_16  and  C_17 
REMARK    9  A    between atoms: C_18  and  N_19 
ROOT
HETATM    1  C   UNL     1       7.676  26.213  57.805  1.00  0.00     0.161 C 
ENDROOT
BRANCH   1   2
HETATM    2  C   UNL     1       7.116  27.591  57.316  1.00  0.00     0.238 C 
BRANCH   2   3
HETATM    3  N   UNL     1       6.562  27.519  55.859  1.00  0.00    -0.062 N 
HETATM    4  H   UNL     1       6.733  26.554  55.557  1.00  0.00     0.280 HD
BRANCH   3   5
HETATM    5  C   UNL     1       7.366  28.379  54.884  1.00  0.00     0.231 C 
HETATM    6  C   UNL     1       6.672  28.576  53.548  1.00  0.00     0.034 C 
ENDBRANCH   3   5
BRANCH   3   7
HETATM    7  C   UNL     1       5.060  27.739  55.779  1.00  0.00     0.231 C 
HETATM    8  C   UNL     1       4.615  28.958  56.570  1.00  0.00     0.034 C 
ENDBRANCH   3   7
ENDBRANCH   2   3
BRANCH   2   9
HETATM    9  C   UNL     1       8.195  28.663  57.442  1.00  0.00    -0.023 A 
HETATM   10  C   UNL     1       7.965  29.866  58.136  1.00  0.00     0.046 A 
HETATM   11  C   UNL     1       8.975  30.826  58.240  1.00  0.00     0.068 A 
HETATM   12  C   UNL     1      10.237  30.571  57.712  1.00  0.00     0.037 A 
HETATM   13  C   UNL     1      10.479  29.386  57.022  1.00  0.00     0.003 A 
HETATM   14  C   UNL     1       9.461  28.445  56.874  1.00  0.00     0.009 A 
BRANCH  11  15
HETATM   15  O   UNL     1       8.823  32.013  58.899  1.00  0.00    -0.356 OA
HETATM   16  C   UNL     1       9.416  32.041  60.195  1.00  0.00     0.210 C 
ENDBRANCH  11  15
ENDBRANCH   2   9
ENDBRANCH   1   2
BRANCH   1  17
HETATM   17  N   UNL     1       7.947  25.282  56.730  1.00  0.00    -0.354 N 
HETATM   18  C   UNL     1       6.959  24.408  56.321  1.00  0.00     0.253 C 
HETATM   19  O   UNL     1       5.819  24.450  56.768  1.00  0.00    -0.268 OA
HETATM   20  H   UNL     1       8.900  25.085  56.438  1.00  0.00     0.162 HD
BRANCH  18  21
HETATM   21  C   UNL     1       7.383  23.441  55.288  1.00  0.00     0.053 A 
HETATM   22  C   UNL     1       7.198  23.699  53.914  1.00  0.00     0.026 A 
HETATM   23  C   UNL     1       7.612  22.688  53.029  1.00  0.00     0.025 A 
HETATM   24  C   UNL     1       8.143  21.473  53.487  1.00  0.00     0.008 A 
HETATM   25  C   UNL     1       8.294  21.229  54.852  1.00  0.00    -0.061 A 
HETATM   26  C   UNL     1       8.855  19.931  55.352  1.00  0.00     0.048 C 
HETATM   27  C   UNL     1       7.916  22.226  55.754  1.00  0.00     0.025 A 
BRANCH  22  28
HETATM   28  N   UNL     1       6.646  24.914  53.461  1.00  0.00    -0.283 NA
HETATM   29  C   UNL     1       5.178  25.023  53.341  1.00  0.00     0.096 C 
HETATM   30  C   UNL     1       4.910  25.177  51.850  1.00  0.00     0.016 C 
HETATM   31  C   UNL     1       6.113  25.978  51.393  1.00  0.00     0.016 C 
HETATM   32  C   UNL     1       7.257  25.338  52.175  1.00  0.00     0.096 C 
ENDBRANCH  22  28
ENDBRANCH  18  21
ENDBRANCH   1  17
TORSDOF 9
ENDMDL
MODEL 3
REMARK VINA RESULT:      -8.4      2.041      5.074
REMARK  9 active torsions:
REMARK  status: ('A' for Active; 'I' for Inactive)
REMARK    1  A    between atoms: C_2  and  N_3 
REMARK    2  A    between atoms: N_3  and  C_30 
REMARK    3  A    between atoms: N_3  and  C_5 
REMARK    4  A    between atoms: C_5  and  C_6 
REMARK    5  A    between atoms: C_5  and  C_14 
REMARK    6  A    between atoms: C_8  and  O_9 
REMARK    7  A    between atoms: C_14  and  N_15 
REMARK       I    between atoms: N_15  and  C_16 
REMARK    8  A    between atoms: C_16  and  C_17 
REMARK    9  A    between atoms: C_18  and  N_19 
ROOT
HETATM    1  C   UNL     1       5.833  26.299  51.316  1.00  0.00     0.161 C 
ENDROOT
BRANCH   1   2
HETATM    2  C   UNL     1       4.789  27.354  51.817  1.00  0.00     0.238 C 
BRANCH   2   3
HETATM    3  N   UNL     1       4.576  28.507  50.788  1.00  0.00    -0.062 N 
HETATM    4  H   UNL     1       5.012  29.331  51.217  1.00  0.00     0.280 HD
BRANCH   3   5
HETATM    5  C   UNL     1       3.103  28.885  50.629  1.00  0.00     0.231 C 
HETATM    6  C   UNL     1       2.770  30.249  51.207  1.00  0.00     0.034 C 
ENDBRANCH   3   5
BRANCH   3   7
HETATM    7  C   UNL     1       5.297  28.273  49.470  1.00  0.00     0.231 C 
HETATM    8  C   UNL     1       4.332  27.966  48.336  1.00  0.00     0.034 C 
ENDBRANCH   3   7
ENDBRANCH   2   3
BRANCH   2   9
HETATM    9  C   UNL     1       5.217  27.901  53.176  1.00  0.00    -0.023 A 
HETATM   10  C   UNL     1       6.569  28.147  53.482  1.00  0.00     0.046 A 
HETATM   11  C   UNL     1       6.930  28.653  54.733  1.00  0.00     0.068 A 
HETATM   12  C   UNL     1       5.947  28.979  55.664  1.00  0.00     0.037 A 
HETATM   13  C   UNL     1       4.606  28.740  55.375  1.00  0.00     0.003 A 
HETATM   14  C   UNL     1       4.243  28.190  54.146  1.00  0.00     0.009 A 
BRANCH  11  15
HETATM   15  O   UNL     1       8.220  28.917  55.097  1.00  0.00    -0.356 OA
HETATM   16  C   UNL     1       8.367  29.355  56.446  1.00  0.00     0.210 C 
ENDBRANCH  11  15
ENDBRANCH   2   9
ENDBRANCH   1   2
BRANCH   1  17
HETATM   17  N   UNL     1       6.089  25.239  52.269  1.00  0.00    -0.354 N 
HETATM   18  C   UNL     1       7.388  24.832  52.502  1.00  0.00     0.253 C 
HETATM   19  O   UNL     1       8.353  25.400  52.005  1.00  0.00    -0.268 OA
HETATM   20  H   UNL     1       5.340  24.627  52.581  1.00  0.00     0.162 HD
BRANCH  18  21
HETATM   21  C   UNL     1       7.515  23.679  53.417  1.00  0.00     0.053 A 
HETATM   22  C   UNL     1       7.303  23.809  54.805  1.00  0.00     0.026 A 
HETATM   23  C   UNL     1       7.487  22.648  55.575  1.00  0.00     0.025 A 
HETATM   24  C   UNL     1       7.898  21.435  55.002  1.00  0.00     0.008 A 
HETATM   25  C   UNL     1       8.126  21.335  53.629  1.00  0.00    -0.061 A 
HETATM   26  C   UNL     1       8.571  20.045  53.007  1.00  0.00     0.048 C 
HETATM   27  C   UNL     1       7.926  22.466  52.835  1.00  0.00     0.025 A 
BRANCH  22  28
HETATM   28  N   UNL     1       6.909  25.035  55.377  1.00  0.00    -0.283 NA
HETATM   29  C   UNL     1       7.794  25.665  56.380  1.00  0.00     0.096 C 
HETATM   30  C   UNL     1       7.008  25.627  57.683  1.00  0.00     0.016 C 
HETATM   31  C   UNL     1       5.584  25.817  57.200  1.00  0.00     0.016 C 
HETATM   32  C   UNL     1       5.540  24.951  55.945  1.00  0.00     0.096 C 
ENDBRANCH  22  28
ENDBRANCH  18  21
ENDBRANCH   1  17
TORSDOF 9
ENDMDL
MODEL 4
REMARK VINA RESULT:      -8.4      2.615      5.320
REMARK  9 active torsions:
REMARK  status: ('A' for Active; 'I' for Inactive)
REMARK    1  A    between atoms: C_2  and  N_3 
REMARK    2  A    between atoms: N_3  and  C_30 
REMARK    3  A    between atoms: N_3  and  C_5 
REMARK    4  A    between atoms: C_5  and  C_6 
REMARK    5  A    between atoms: C_5  and  C_14 
REMARK    6  A    between atoms: C_8  and  O_9 
REMARK    7  A    between atoms: C_14  and  N_15 
REMARK       I    between atoms: N_15  and  C_16 
REMARK    8  A    between atoms: C_16  and  C_17 
REMARK    9  A    between atoms: C_18  and  N_19 
ROOT
HETATM    1  C   UNL     1       4.840  25.575  51.793  1.00  0.00     0.161 C 
ENDROOT
BRANCH   1   2
HETATM    2  C   UNL     1       5.613  26.904  51.491  1.00  0.00     0.238 C 
BRANCH   2   3
HETATM    3  N   UNL     1       5.333  28.005  52.559  1.00  0.00    -0.062 N 
HETATM    4  H   UNL     1       5.417  28.894  52.053  1.00  0.00     0.280 HD
BRANCH   3   5
HETATM    5  C   UNL     1       6.415  28.066  53.636  1.00  0.00     0.231 C 
HETATM    6  C   UNL     1       5.967  28.788  54.894  1.00  0.00     0.034 C 
ENDBRANCH   3   5
BRANCH   3   7
HETATM    7  C   UNL     1       3.917  27.955  53.112  1.00  0.00     0.231 C 
HETATM    8  C   UNL     1       3.013  28.995  52.470  1.00  0.00     0.034 C 
ENDBRANCH   3   7
ENDBRANCH   2   3
BRANCH   2   9
HETATM    9  C   UNL     1       5.267  27.396  50.088  1.00  0.00    -0.023 A 
HETATM   10  C   UNL     1       4.635  26.562  49.146  1.00  0.00     0.046 A 
HETATM   11  C   UNL     1       4.325  27.043  47.872  1.00  0.00     0.068 A 
HETATM   12  C   UNL     1       4.583  28.372  47.546  1.00  0.00     0.037 A 
HETATM   13  C   UNL     1       5.209  29.208  48.467  1.00  0.00     0.003 A 
HETATM   14  C   UNL     1       5.564  28.720  49.724  1.00  0.00     0.009 A 
BRANCH  11  15
HETATM   15  O   UNL     1       3.711  26.292  46.910  1.00  0.00    -0.356 OA
HETATM   16  C   UNL     1       2.987  25.173  47.418  1.00  0.00     0.210 C 
ENDBRANCH  11  15
ENDBRANCH   2   9
ENDBRANCH   1   2
BRANCH   1  17
HETATM   17  N   UNL     1       5.491  24.736  52.777  1.00  0.00    -0.354 N 
HETATM   18  C   UNL     1       6.818  24.391  52.607  1.00  0.00     0.253 C 
HETATM   19  O   UNL     1       7.503  24.847  51.700  1.00  0.00    -0.268 OA
HETATM   20  H   UNL     1       4.947  24.199  53.447  1.00  0.00     0.162 HD
BRANCH  18  21
HETATM   21  C   UNL     1       7.342  23.452  53.621  1.00  0.00     0.053 A 
HETATM   22  C   UNL     1       7.438  23.811  54.981  1.00  0.00     0.026 A 
HETATM   23  C   UNL     1       7.986  22.845  55.842  1.00  0.00     0.025 A 
HETATM   24  C   UNL     1       8.448  21.608  55.372  1.00  0.00     0.008 A 
HETATM   25  C   UNL     1       8.366  21.283  54.017  1.00  0.00    -0.061 A 
HETATM   26  C   UNL     1       8.862  19.965  53.502  1.00  0.00     0.048 C 
HETATM   27  C   UNL     1       7.802  22.214  53.141  1.00  0.00     0.025 A 
BRANCH  22  28
HETATM   28  N   UNL     1       6.990  25.064  55.446  1.00  0.00    -0.283 NA
HETATM   29  C   UNL     1       7.911  25.891  56.252  1.00  0.00     0.096 C 
HETATM   30  C   UNL     1       7.278  25.958  57.636  1.00  0.00     0.016 C 
HETATM   31  C   UNL     1       5.799  25.963  57.306  1.00  0.00     0.016 C 
HETATM   32  C   UNL     1       5.705  24.940  56.178  1.00  0.00     0.096 C 
ENDBRANCH  22  28
ENDBRANCH  18  21
ENDBRANCH   1  17
TORSDOF 9
ENDMDL
MODEL 5
REMARK VINA RESULT:      -8.3      1.418      2.001
REMARK  9 active torsions:
REMARK  status: ('A' for Active; 'I' for Inactive)
REMARK    1  A    between atoms: C_2  and  N_3 
REMARK    2  A    between atoms: N_3  and  C_30 
REMARK    3  A    between atoms: N_3  and  C_5 
REMARK    4  A    between atoms: C_5  and  C_6 
REMARK    5  A    between atoms: C_5  and  C_14 
REMARK    6  A    between atoms: C_8  and  O_9 
REMARK    7  A    between atoms: C_14  and  N_15 
REMARK       I    between atoms: N_15  and  C_16 
REMARK    8  A    between atoms: C_16  and  C_17 
REMARK    9  A    between atoms: C_18  and  N_19 
ROOT
HETATM    1  C   UNL     1       7.830  27.447  57.314  1.00  0.00     0.161 C 
ENDROOT
BRANCH   1   2
HETATM    2  C   UNL     1       8.011  28.805  56.554  1.00  0.00     0.238 C 
BRANCH   2   3
HETATM    3  N   UNL     1       8.466  29.956  57.503  1.00  0.00    -0.062 N 
HETATM    4  H   UNL     1       7.856  30.748  57.274  1.00  0.00     0.280 HD
BRANCH   3   5
HETATM    5  C   UNL     1       9.878  30.451  57.189  1.00  0.00     0.231 C 
HETATM    6  C   UNL     1      10.822  29.338  56.769  1.00  0.00     0.034 C 
ENDBRANCH   3   5
BRANCH   3   7
HETATM    7  C   UNL     1       8.238  29.644  58.974  1.00  0.00     0.231 C 
HETATM    8  C   UNL     1       8.912  30.656  59.886  1.00  0.00     0.034 C 
ENDBRANCH   3   7
ENDBRANCH   2   3
BRANCH   2   9
HETATM    9  C   UNL     1       6.718  29.168  55.829  1.00  0.00    -0.023 A 
HETATM   10  C   UNL     1       5.880  30.205  56.285  1.00  0.00     0.046 A 
HETATM   11  C   UNL     1       4.706  30.518  55.597  1.00  0.00     0.068 A 
HETATM   12  C   UNL     1       4.388  29.849  54.418  1.00  0.00     0.037 A 
HETATM   13  C   UNL     1       5.206  28.822  53.956  1.00  0.00     0.003 A 
HETATM   14  C   UNL     1       6.355  28.472  54.665  1.00  0.00     0.009 A 
BRANCH  11  15
HETATM   15  O   UNL     1       3.849  31.511  55.980  1.00  0.00    -0.356 OA
HETATM   16  C   UNL     1       2.643  31.565  55.221  1.00  0.00     0.210 C 
ENDBRANCH  11  15
ENDBRANCH   2   9
ENDBRANCH   1   2
BRANCH   1  17
HETATM   17  N   UNL     1       7.992  26.283  56.468  1.00  0.00    -0.354 N 
HETATM   18  C   UNL     1       7.140  25.207  56.621  1.00  0.00     0.253 C 
HETATM   19  O   UNL     1       6.182  25.231  57.384  1.00  0.00    -0.268 OA
HETATM   20  H   UNL     1       8.850  26.134  55.945  1.00  0.00     0.162 HD
BRANCH  18  21
HETATM   21  C   UNL     1       7.465  24.041  55.772  1.00  0.00     0.053 A 
HETATM   22  C   UNL     1       7.149  24.016  54.399  1.00  0.00     0.026 A 
HETATM   23  C   UNL     1       7.477  22.838  53.706  1.00  0.00     0.025 A 
HETATM   24  C   UNL     1       8.051  21.733  54.352  1.00  0.00     0.008 A 
HETATM   25  C   UNL     1       8.334  21.771  55.717  1.00  0.00    -0.061 A 
HETATM   26  C   UNL     1       8.942  20.593  56.418  1.00  0.00     0.048 C 
HETATM   27  C   UNL     1       8.042  22.938  56.426  1.00  0.00     0.025 A 
BRANCH  22  28
HETATM   28  N   UNL     1       6.554  25.122  53.759  1.00  0.00    -0.283 NA
HETATM   29  C   UNL     1       5.100  25.090  53.495  1.00  0.00     0.096 C 
HETATM   30  C   UNL     1       4.972  25.057  51.979  1.00  0.00     0.016 C 
HETATM   31  C   UNL     1       6.150  25.906  51.543  1.00  0.00     0.016 C 
HETATM   32  C   UNL     1       7.255  25.455  52.494  1.00  0.00     0.096 C 
ENDBRANCH  22  28
ENDBRANCH  18  21
ENDBRANCH   1  17
TORSDOF 9
ENDMDL
MODEL 6
REMARK VINA RESULT:      -8.3      2.295      7.130
REMARK  9 active torsions:
REMARK  status: ('A' for Active; 'I' for Inactive)
REMARK    1  A    between atoms: C_2  and  N_3 
REMARK    2  A    between atoms: N_3  and  C_30 
REMARK    3  A    between atoms: N_3  and  C_5 
REMARK    4  A    between atoms: C_5  and  C_6 
REMARK    5  A    between atoms: C_5  and  C_14 
REMARK    6  A    between atoms: C_8  and  O_9 
REMARK    7  A    between atoms: C_14  and  N_15 
REMARK       I    between atoms: N_15  and  C_16 
REMARK    8  A    between atoms: C_16  and  C_17 
REMARK    9  A    between atoms: C_18  and  N_19 
ROOT
HETATM    1  C   UNL     1       8.357  26.195  57.286  1.00  0.00     0.161 C 
ENDROOT
BRANCH   1   2
HETATM    2  C   UNL     1       7.857  25.868  55.838  1.00  0.00     0.238 C 
BRANCH   2   3
HETATM    3  N   UNL     1       6.411  26.392  55.580  1.00  0.00    -0.062 N 
HETATM    4  H   UNL     1       6.249  27.096  56.309  1.00  0.00     0.280 HD
BRANCH   3   5
HETATM    5  C   UNL     1       5.348  25.323  55.827  1.00  0.00     0.231 C 
HETATM    6  C   UNL     1       4.811  25.331  57.248  1.00  0.00     0.034 C 
ENDBRANCH   3   5
BRANCH   3   7
HETATM    7  C   UNL     1       6.264  27.109  54.247  1.00  0.00     0.231 C 
HETATM    8  C   UNL     1       7.472  27.972  53.923  1.00  0.00     0.034 C 
ENDBRANCH   3   7
ENDBRANCH   2   3
BRANCH   2   9
HETATM    9  C   UNL     1       7.952  24.366  55.585  1.00  0.00    -0.023 A 
HETATM   10  C   UNL     1       7.884  23.828  54.285  1.00  0.00     0.046 A 
HETATM   11  C   UNL     1       7.979  22.449  54.085  1.00  0.00     0.068 A 
HETATM   12  C   UNL     1       8.206  21.601  55.165  1.00  0.00     0.037 A 
HETATM   13  C   UNL     1       8.274  22.119  56.456  1.00  0.00     0.003 A 
HETATM   14  C   UNL     1       8.132  23.489  56.667  1.00  0.00     0.009 A 
BRANCH  11  15
HETATM   15  O   UNL     1       7.924  21.860  52.854  1.00  0.00    -0.356 OA
HETATM   16  C   UNL     1       8.221  20.466  52.860  1.00  0.00     0.210 C 
ENDBRANCH  11  15
ENDBRANCH   2   9
ENDBRANCH   1   2
BRANCH   1  17
HETATM   17  N   UNL     1       7.829  27.436  57.815  1.00  0.00    -0.354 N 
HETATM   18  C   UNL     1       8.540  28.607  57.641  1.00  0.00     0.253 C 
HETATM   19  O   UNL     1       9.562  28.661  56.968  1.00  0.00    -0.268 OA
HETATM   20  H   UNL     1       7.089  27.433  58.512  1.00  0.00     0.162 HD
BRANCH  18  21
HETATM   21  C   UNL     1       7.952  29.787  58.310  1.00  0.00     0.053 A 
HETATM   22  C   UNL     1       6.748  30.367  57.861  1.00  0.00     0.026 A 
HETATM   23  C   UNL     1       6.308  31.506  58.557  1.00  0.00     0.025 A 
HETATM   24  C   UNL     1       7.045  32.060  59.614  1.00  0.00     0.008 A 
HETATM   25  C   UNL     1       8.248  31.483  60.026  1.00  0.00    -0.061 A 
HETATM   26  C   UNL     1       9.047  32.072  61.151  1.00  0.00     0.048 C 
HETATM   27  C   UNL     1       8.696  30.335  59.369  1.00  0.00     0.025 A 
BRANCH  22  28
HETATM   28  N   UNL     1       6.021  29.817  56.786  1.00  0.00    -0.283 NA
HETATM   29  C   UNL     1       5.593  30.711  55.690  1.00  0.00     0.096 C 
HETATM   30  C   UNL     1       4.072  30.734  55.767  1.00  0.00     0.016 C 
HETATM   31  C   UNL     1       3.757  29.322  56.221  1.00  0.00     0.016 C 
HETATM   32  C   UNL     1       4.838  29.059  57.266  1.00  0.00     0.096 C 
ENDBRANCH  22  28
ENDBRANCH  18  21
ENDBRANCH   1  17
TORSDOF 9
ENDMDL
MODEL 7
REMARK VINA RESULT:      -8.1      2.153      6.021
REMARK  9 active torsions:
REMARK  status: ('A' for Active; 'I' for Inactive)
REMARK    1  A    between atoms: C_2  and  N_3 
REMARK    2  A    between atoms: N_3  and  C_30 
REMARK    3  A    between atoms: N_3  and  C_5 
REMARK    4  A    between atoms: C_5  and  C_6 
REMARK    5  A    between atoms: C_5  and  C_14 
REMARK    6  A    between atoms: C_8  and  O_9 
REMARK    7  A    between atoms: C_14  and  N_15 
REMARK       I    between atoms: N_15  and  C_16 
REMARK    8  A    between atoms: C_16  and  C_17 
REMARK    9  A    between atoms: C_18  and  N_19 
ROOT
HETATM    1  C   UNL     1       6.608  29.018  55.431  1.00  0.00     0.161 C 
ENDROOT
BRANCH   1   2
HETATM    2  C   UNL     1       7.726  28.215  56.179  1.00  0.00     0.238 C 
BRANCH   2   3
HETATM    3  N   UNL     1       7.158  26.968  56.924  1.00  0.00    -0.062 N 
HETATM    4  H   UNL     1       7.527  27.038  57.879  1.00  0.00     0.280 HD
BRANCH   3   5
HETATM    5  C   UNL     1       7.724  25.655  56.384  1.00  0.00     0.231 C 
HETATM    6  C   UNL     1       8.750  25.021  57.307  1.00  0.00     0.034 C 
ENDBRANCH   3   5
BRANCH   3   7
HETATM    7  C   UNL     1       5.642  26.981  57.043  1.00  0.00     0.231 C 
HETATM    8  C   UNL     1       5.051  25.582  56.988  1.00  0.00     0.034 C 
ENDBRANCH   3   7
ENDBRANCH   2   3
BRANCH   2   9
HETATM    9  C   UNL     1       8.471  29.138  57.139  1.00  0.00    -0.023 A 
HETATM   10  C   UNL     1       7.940  29.484  58.396  1.00  0.00     0.046 A 
HETATM   11  C   UNL     1       8.649  30.326  59.256  1.00  0.00     0.068 A 
HETATM   12  C   UNL     1       9.916  30.779  58.901  1.00  0.00     0.037 A 
HETATM   13  C   UNL     1      10.454  30.446  57.660  1.00  0.00     0.003 A 
HETATM   14  C   UNL     1       9.731  29.644  56.778  1.00  0.00     0.009 A 
BRANCH  11  15
HETATM   15  O   UNL     1       8.195  30.701  60.489  1.00  0.00    -0.356 OA
HETATM   16  C   UNL     1       9.223  30.858  61.465  1.00  0.00     0.210 C 
ENDBRANCH  11  15
ENDBRANCH   2   9
ENDBRANCH   1   2
BRANCH   1  17
HETATM   17  N   UNL     1       6.340  28.531  54.094  1.00  0.00    -0.354 N 
HETATM   18  C   UNL     1       5.035  28.299  53.703  1.00  0.00     0.253 C 
HETATM   19  O   UNL     1       4.077  28.580  54.412  1.00  0.00    -0.268 OA
HETATM   20  H   UNL     1       7.080  28.127  53.527  1.00  0.00     0.162 HD
BRANCH  18  21
HETATM   21  C   UNL     1       4.895  27.710  52.355  1.00  0.00     0.053 A 
HETATM   22  C   UNL     1       5.572  26.528  51.990  1.00  0.00     0.026 A 
HETATM   23  C   UNL     1       5.385  26.087  50.669  1.00  0.00     0.025 A 
HETATM   24  C   UNL     1       4.601  26.801  49.751  1.00  0.00     0.008 A 
HETATM   25  C   UNL     1       3.959  27.981  50.127  1.00  0.00    -0.061 A 
HETATM   26  C   UNL     1       3.124  28.756  49.152  1.00  0.00     0.048 C 
HETATM   27  C   UNL     1       4.106  28.431  51.441  1.00  0.00     0.025 A 
BRANCH  22  28
HETATM   28  N   UNL     1       6.374  25.825  52.911  1.00  0.00    -0.283 NA
HETATM   29  C   UNL     1       7.801  25.614  52.590  1.00  0.00     0.096 C 
HETATM   30  C   UNL     1       7.949  24.109  52.408  1.00  0.00     0.016 C 
HETATM   31  C   UNL     1       6.958  23.569  53.420  1.00  0.00     0.016 C 
HETATM   32  C   UNL     1       5.771  24.515  53.261  1.00  0.00     0.096 C 
ENDBRANCH  22  28
ENDBRANCH  18  21
ENDBRANCH   1  17
TORSDOF 9
ENDMDL
MODEL 8
REMARK VINA RESULT:      -7.9      1.930      7.536
REMARK  9 active torsions:
REMARK  status: ('A' for Active; 'I' for Inactive)
REMARK    1  A    between atoms: C_2  and  N_3 
REMARK    2  A    between atoms: N_3  and  C_30 
REMARK    3  A    between atoms: N_3  and  C_5 
REMARK    4  A    between atoms: C_5  and  C_6 
REMARK    5  A    between atoms: C_5  and  C_14 
REMARK    6  A    between atoms: C_8  and  O_9 
REMARK    7  A    between atoms: C_14  and  N_15 
REMARK       I    between atoms: N_15  and  C_16 
REMARK    8  A    between atoms: C_16  and  C_17 
REMARK    9  A    between atoms: C_18  and  N_19 
ROOT
HETATM    1  C   UNL     1       6.285  25.149  56.475  1.00  0.00     0.161 C 
ENDROOT
BRANCH   1   2
HETATM    2  C   UNL     1       7.351  24.727  55.407  1.00  0.00     0.238 C 
BRANCH   2   3
HETATM    3  N   UNL     1       6.892  25.057  53.954  1.00  0.00    -0.062 N 
HETATM    4  H   UNL     1       7.107  24.215  53.409  1.00  0.00     0.280 HD
BRANCH   3   5
HETATM    5  C   UNL     1       7.732  26.161  53.311  1.00  0.00     0.231 C 
HETATM    6  C   UNL     1       7.173  27.552  53.547  1.00  0.00     0.034 C 
ENDBRANCH   3   5
BRANCH   3   7
HETATM    7  C   UNL     1       5.392  25.279  53.835  1.00  0.00     0.231 C 
HETATM    8  C   UNL     1       4.832  24.728  52.534  1.00  0.00     0.034 C 
ENDBRANCH   3   7
ENDBRANCH   2   3
BRANCH   2   9
HETATM    9  C   UNL     1       7.674  23.243  55.558  1.00  0.00    -0.023 A 
HETATM   10  C   UNL     1       7.556  22.346  54.480  1.00  0.00     0.046 A 
HETATM   11  C   UNL     1       7.865  20.994  54.647  1.00  0.00     0.068 A 
HETATM   12  C   UNL     1       8.354  20.536  55.867  1.00  0.00     0.037 A 
HETATM   13  C   UNL     1       8.475  21.411  56.943  1.00  0.00     0.003 A 
HETATM   14  C   UNL     1       8.123  22.752  56.796  1.00  0.00     0.009 A 
BRANCH  11  15
HETATM   15  O   UNL     1       7.776  20.070  53.645  1.00  0.00    -0.356 OA
HETATM   16  C   UNL     1       8.730  20.248  52.600  1.00  0.00     0.210 C 
ENDBRANCH  11  15
ENDBRANCH   2   9
ENDBRANCH   1   2
BRANCH   1  17
HETATM   17  N   UNL     1       6.068  26.580  56.544  1.00  0.00    -0.354 N 
HETATM   18  C   UNL     1       6.794  27.336  57.443  1.00  0.00     0.253 C 
HETATM   19  O   UNL     1       7.693  26.860  58.126  1.00  0.00    -0.268 OA
HETATM   20  H   UNL     1       5.239  27.001  56.134  1.00  0.00     0.162 HD
BRANCH  18  21
HETATM   21  C   UNL     1       6.415  28.763  57.490  1.00  0.00     0.053 A 
HETATM   22  C   UNL     1       7.367  29.773  57.742  1.00  0.00     0.026 A 
HETATM   23  C   UNL     1       6.878  31.089  57.798  1.00  0.00     0.025 A 
HETATM   24  C   UNL     1       5.514  31.381  57.650  1.00  0.00     0.008 A 
HETATM   25  C   UNL     1       4.586  30.363  57.426  1.00  0.00    -0.061 A 
HETATM   26  C   UNL     1       3.124  30.664  57.274  1.00  0.00     0.048 C 
HETATM   27  C   UNL     1       5.047  29.048  57.340  1.00  0.00     0.025 A 
BRANCH  22  28
HETATM   28  N   UNL     1       8.734  29.472  57.909  1.00  0.00    -0.283 NA
HETATM   29  C   UNL     1       9.554  30.355  58.763  1.00  0.00     0.096 C 
HETATM   30  C   UNL     1      10.552  31.008  57.816  1.00  0.00     0.016 C 
HETATM   31  C   UNL     1      10.808  29.901  56.813  1.00  0.00     0.016 C 
HETATM   32  C   UNL     1       9.415  29.316  56.599  1.00  0.00     0.096 C 
ENDBRANCH  22  28
ENDBRANCH  18  21
ENDBRANCH   1  17
TORSDOF 9
ENDMDL
MODEL 9
REMARK VINA RESULT:      -7.8      2.640      5.322
REMARK  9 active torsions:
REMARK  status: ('A' for Active; 'I' for Inactive)
REMARK    1  A    between atoms: C_2  and  N_3 
REMARK    2  A    between atoms: N_3  and  C_30 
REMARK    3  A    between atoms: N_3  and  C_5 
REMARK    4  A    between atoms: C_5  and  C_6 
REMARK    5  A    between atoms: C_5  and  C_14 
REMARK    6  A    between atoms: C_8  and  O_9 
REMARK    7  A    between atoms: C_14  and  N_15 
REMARK       I    between atoms: N_15  and  C_16 
REMARK    8  A    between atoms: C_16  and  C_17 
REMARK    9  A    between atoms: C_18  and  N_19 
ROOT
HETATM    1  C   UNL     1       6.037  26.801  51.404  1.00  0.00     0.161 C 
ENDROOT
BRANCH   1   2
HETATM    2  C   UNL     1       4.577  27.367  51.357  1.00  0.00     0.238 C 
BRANCH   2   3
HETATM    3  N   UNL     1       4.288  28.144  50.036  1.00  0.00    -0.062 N 
HETATM    4  H   UNL     1       3.815  29.005  50.332  1.00  0.00     0.280 HD
BRANCH   3   5
HETATM    5  C   UNL     1       3.271  27.429  49.146  1.00  0.00     0.231 C 
HETATM    6  C   UNL     1       3.760  26.082  48.643  1.00  0.00     0.034 C 
ENDBRANCH   3   5
BRANCH   3   7
HETATM    7  C   UNL     1       5.551  28.572  49.305  1.00  0.00     0.231 C 
HETATM    8  C   UNL     1       5.828  30.058  49.461  1.00  0.00     0.034 C 
ENDBRANCH   3   7
ENDBRANCH   2   3
BRANCH   2   9
HETATM    9  C   UNL     1       4.323  28.245  52.579  1.00  0.00    -0.023 A 
HETATM   10  C   UNL     1       3.746  29.524  52.465  1.00  0.00     0.046 A 
HETATM   11  C   UNL     1       3.520  30.302  53.602  1.00  0.00     0.068 A 
HETATM   12  C   UNL     1       3.807  29.791  54.865  1.00  0.00     0.037 A 
HETATM   13  C   UNL     1       4.379  28.528  54.994  1.00  0.00     0.003 A 
HETATM   14  C   UNL     1       4.651  27.766  53.859  1.00  0.00     0.009 A 
BRANCH  11  15
HETATM   15  O   UNL     1       2.963  31.549  53.565  1.00  0.00    -0.356 OA
HETATM   16  C   UNL     1       2.949  32.144  52.269  1.00  0.00     0.210 C 
ENDBRANCH  11  15
ENDBRANCH   2   9
ENDBRANCH   1   2
BRANCH   1  17
HETATM   17  N   UNL     1       6.196  25.679  52.306  1.00  0.00    -0.354 N 
HETATM   18  C   UNL     1       7.458  25.169  52.543  1.00  0.00     0.253 C 
HETATM   19  O   UNL     1       8.471  25.690  52.093  1.00  0.00    -0.268 OA
HETATM   20  H   UNL     1       5.399  25.107  52.573  1.00  0.00     0.162 HD
BRANCH  18  21
HETATM   21  C   UNL     1       7.482  23.965  53.400  1.00  0.00     0.053 A 
HETATM   22  C   UNL     1       7.177  24.031  54.775  1.00  0.00     0.026 A 
HETATM   23  C   UNL     1       7.269  22.825  55.490  1.00  0.00     0.025 A 
HETATM   24  C   UNL     1       7.679  21.630  54.882  1.00  0.00     0.008 A 
HETATM   25  C   UNL     1       8.000  21.593  53.524  1.00  0.00    -0.061 A 
HETATM   26  C   UNL     1       8.446  20.322  52.865  1.00  0.00     0.048 C 
HETATM   27  C   UNL     1       7.893  22.771  52.782  1.00  0.00     0.025 A 
BRANCH  22  28
HETATM   28  N   UNL     1       6.784  25.239  55.385  1.00  0.00    -0.283 NA
HETATM   29  C   UNL     1       7.778  25.984  56.185  1.00  0.00     0.096 C 
HETATM   30  C   UNL     1       7.259  25.928  57.616  1.00  0.00     0.016 C 
HETATM   31  C   UNL     1       5.758  25.971  57.410  1.00  0.00     0.016 C 
HETATM   32  C   UNL     1       5.560  25.055  56.206  1.00  0.00     0.096 C 
ENDBRANCH  22  28
ENDBRANCH  18  21
ENDBRANCH   1  17
TORSDOF 9
ENDMDL
MODEL 10
REMARK VINA RESULT:      -7.5      2.330      8.023
REMARK  9 active torsions:
REMARK  status: ('A' for Active; 'I' for Inactive)
REMARK    1  A    between atoms: C_2  and  N_3 
REMARK    2  A    between atoms: N_3  and  C_30 
REMARK    3  A    between atoms: N_3  and  C_5 
REMARK    4  A    between atoms: C_5  and  C_6 
REMARK    5  A    between atoms: C_5  and  C_14 
REMARK    6  A    between atoms: C_8  and  O_9 
REMARK    7  A    between atoms: C_14  and  N_15 
REMARK       I    between atoms: N_15  and  C_16 
REMARK    8  A    between atoms: C_16  and  C_17 
REMARK    9  A    between atoms: C_18  and  N_19 
ROOT
HETATM    1  C   UNL     1       7.793  26.389  57.397  1.00  0.00     0.161 C 
ENDROOT
BRANCH   1   2
HETATM    2  C   UNL     1       7.848  25.956  55.892  1.00  0.00     0.238 C 
BRANCH   2   3
HETATM    3  N   UNL     1       6.567  26.380  55.110  1.00  0.00    -0.062 N 
HETATM    4  H   UNL     1       6.095  27.057  55.718  1.00  0.00     0.280 HD
BRANCH   3   5
HETATM    5  C   UNL     1       5.568  25.233  54.956  1.00  0.00     0.231 C 
HETATM    6  C   UNL     1       5.044  25.081  53.540  1.00  0.00     0.034 C 
ENDBRANCH   3   5
BRANCH   3   7
HETATM    7  C   UNL     1       6.873  27.106  53.809  1.00  0.00     0.231 C 
HETATM    8  C   UNL     1       7.931  28.182  53.988  1.00  0.00     0.034 C 
ENDBRANCH   3   7
ENDBRANCH   2   3
BRANCH   2   9
HETATM    9  C   UNL     1       8.080  24.451  55.795  1.00  0.00    -0.023 A 
HETATM   10  C   UNL     1       8.369  23.824  54.568  1.00  0.00     0.046 A 
HETATM   11  C   UNL     1       8.582  22.445  54.511  1.00  0.00     0.068 A 
HETATM   12  C   UNL     1       8.574  21.689  55.680  1.00  0.00     0.037 A 
HETATM   13  C   UNL     1       8.289  22.295  56.901  1.00  0.00     0.003 A 
HETATM   14  C   UNL     1       8.028  23.664  56.957  1.00  0.00     0.009 A 
BRANCH  11  15
HETATM   15  O   UNL     1       8.868  21.772  53.357  1.00  0.00    -0.356 OA
HETATM   16  C   UNL     1       8.584  20.376  53.410  1.00  0.00     0.210 C 
ENDBRANCH  11  15
ENDBRANCH   2   9
ENDBRANCH   1   2
BRANCH   1  17
HETATM   17  N   UNL     1       7.069  27.623  57.619  1.00  0.00    -0.354 N 
HETATM   18  C   UNL     1       7.755  28.822  57.636  1.00  0.00     0.253 C 
HETATM   19  O   UNL     1       8.948  28.899  57.372  1.00  0.00    -0.268 OA
HETATM   20  H   UNL     1       6.128  27.614  58.003  1.00  0.00     0.162 HD
BRANCH  18  21
HETATM   21  C   UNL     1       6.926  29.999  57.970  1.00  0.00     0.053 A 
HETATM   22  C   UNL     1       7.282  30.882  59.010  1.00  0.00     0.026 A 
HETATM   23  C   UNL     1       6.395  31.944  59.255  1.00  0.00     0.025 A 
HETATM   24  C   UNL     1       5.202  32.097  58.534  1.00  0.00     0.008 A 
HETATM   25  C   UNL     1       4.857  31.196  57.526  1.00  0.00    -0.061 A 
HETATM   26  C   UNL     1       3.581  31.347  56.753  1.00  0.00     0.048 C 
HETATM   27  C   UNL     1       5.732  30.146  57.242  1.00  0.00     0.025 A 
BRANCH  22  28
HETATM   28  N   UNL     1       8.473  30.713  59.744  1.00  0.00    -0.283 NA
HETATM   29  C   UNL     1       8.387  30.590  61.214  1.00  0.00     0.096 C 
HETATM   30  C   UNL     1       9.076  31.834  61.759  1.00  0.00     0.016 C 
HETATM   31  C   UNL     1      10.172  32.061  60.737  1.00  0.00     0.016 C 
HETATM   32  C   UNL     1       9.464  31.770  59.417  1.00  0.00     0.096 C 
ENDBRANCH  22  28
ENDBRANCH  18  21
ENDBRANCH   1  17
TORSDOF 9
ENDMDL
