MODEL 1
REMARK VINA RESULT:      -8.6      0.000      0.000
REMARK  4 active torsions:
REMARK  status: ('A' for Active; 'I' for Inactive)
REMARK    1  A    between atoms: C_6  and  N_7 
REMARK       I    between atoms: N_7  and  C_8 
REMARK    2  A    between atoms: C_8  and  C_9 
REMARK    3  A    between atoms: C_9  and  O_10 
REMARK    4  A    between atoms: O_10  and  C_11 
ROOT
HETATM    1  N   UNL     1       8.252  28.277  56.232  1.00  0.00    -0.323 N 
HETATM    2  C   UNL     1       7.887  27.026  56.702  1.00  0.00     0.256 C 
HETATM    3  O   UNL     1       8.220  26.554  57.786  1.00  0.00    -0.270 OA
HETATM    4  H   UNL     1       7.851  28.568  55.343  1.00  0.00     0.169 HD
ENDROOT
BRANCH   2   5
HETATM    5  C   UNL     1       6.956  26.251  55.726  1.00  0.00     0.141 C 
HETATM    6  C   UNL     1       6.020  25.279  56.464  1.00  0.00     0.057 C 
HETATM    7  C   UNL     1       6.051  27.295  55.034  1.00  0.00     0.057 C 
BRANCH   5   8
HETATM    8  O   UNL     1       7.652  25.610  54.650  1.00  0.00    -0.331 OA
BRANCH   8   9
HETATM    9  C   UNL     1       7.800  24.255  54.587  1.00  0.00     0.072 A 
HETATM   10  C   UNL     1       8.145  23.399  55.631  1.00  0.00     0.060 A 
HETATM   11  C   UNL     1       8.249  22.024  55.400  1.00  0.00     0.036 A 
HETATM   12 CL   UNL     1       8.659  20.972  56.700  1.00  0.00    -0.084 Cl
HETATM   13  C   UNL     1       8.023  21.492  54.133  1.00  0.00     0.024 A 
HETATM   14  C   UNL     1       7.697  22.344  53.081  1.00  0.00     0.004 A 
HETATM   15  C   UNL     1       7.591  23.718  53.311  1.00  0.00     0.037 A 
ENDBRANCH   8   9
ENDBRANCH   5   8
ENDBRANCH   2   5
BRANCH   1  16
HETATM   16  C   UNL     1       9.056  29.249  56.878  1.00  0.00     0.060 A 
HETATM   17  C   UNL     1      10.423  29.372  56.642  1.00  0.00     0.050 A 
HETATM   18  C   UNL     1      11.127  30.348  57.325  1.00  0.00     0.119 A 
HETATM   19  N   UNL     1      10.571  31.188  58.224  1.00  0.00    -0.264 NA
HETATM   20  C   UNL     1       9.240  31.069  58.457  1.00  0.00     0.054 A 
HETATM   21  C   UNL     1       8.678  31.996  59.495  1.00  0.00     0.072 C 
HETATM   22  C   UNL     1       8.448  30.126  57.795  1.00  0.00     0.085 A 
HETATM   23 CL   UNL     1       6.748  29.999  58.120  1.00  0.00    -0.080 Cl
ENDBRANCH   1  16
TORSDOF 4
ENDMDL
MODEL 2
REMARK VINA RESULT:      -8.5      2.272      2.783
REMARK  4 active torsions:
REMARK  status: ('A' for Active; 'I' for Inactive)
REMARK    1  A    between atoms: C_6  and  N_7 
REMARK       I    between atoms: N_7  and  C_8 
REMARK    2  A    between atoms: C_8  and  C_9 
REMARK    3  A    between atoms: C_9  and  O_10 
REMARK    4  A    between atoms: O_10  and  C_11 
ROOT
HETATM    1  N   UNL     1       6.943  26.642  55.406  1.00  0.00    -0.323 N 
HETATM    2  C   UNL     1       7.235  26.671  54.051  1.00  0.00     0.256 C 
HETATM    3  O   UNL     1       7.633  27.657  53.435  1.00  0.00    -0.270 OA
HETATM    4  H   UNL     1       6.685  25.741  55.800  1.00  0.00     0.169 HD
ENDROOT
BRANCH   2   5
HETATM    5  C   UNL     1       7.048  25.293  53.353  1.00  0.00     0.141 C 
HETATM    6  C   UNL     1       5.786  24.562  53.841  1.00  0.00     0.057 C 
HETATM    7  C   UNL     1       6.843  25.569  51.847  1.00  0.00     0.057 C 
BRANCH   5   8
HETATM    8  O   UNL     1       8.209  24.454  53.411  1.00  0.00    -0.331 OA
BRANCH   8   9
HETATM    9  C   UNL     1       8.160  23.182  53.902  1.00  0.00     0.072 A 
HETATM   10  C   UNL     1       8.309  22.790  55.230  1.00  0.00     0.060 A 
HETATM   11  C   UNL     1       8.227  21.436  55.570  1.00  0.00     0.036 A 
HETATM   12 CL   UNL     1       8.394  20.960  57.216  1.00  0.00    -0.084 Cl
HETATM   13  C   UNL     1       8.007  20.465  54.596  1.00  0.00     0.024 A 
HETATM   14  C   UNL     1       7.877  20.849  53.264  1.00  0.00     0.004 A 
HETATM   15  C   UNL     1       7.958  22.201  52.923  1.00  0.00     0.037 A 
ENDBRANCH   8   9
ENDBRANCH   5   8
ENDBRANCH   2   5
BRANCH   1  16
HETATM   16  C   UNL     1       7.040  27.704  56.339  1.00  0.00     0.060 A 
HETATM   17  C   UNL     1       8.192  27.950  57.081  1.00  0.00     0.050 A 
HETATM   18  C   UNL     1       8.191  29.009  57.972  1.00  0.00     0.119 A 
HETATM   19  N   UNL     1       7.131  29.817  58.181  1.00  0.00    -0.264 NA
HETATM   20  C   UNL     1       6.006  29.578  57.460  1.00  0.00     0.054 A 
HETATM   21  C   UNL     1       4.841  30.477  57.759  1.00  0.00     0.072 C 
HETATM   22  C   UNL     1       5.927  28.545  56.521  1.00  0.00     0.085 A 
HETATM   23 CL   UNL     1       4.471  28.265  55.620  1.00  0.00    -0.080 Cl
ENDBRANCH   1  16
TORSDOF 4
ENDMDL
MODEL 3
REMARK VINA RESULT:      -8.4      2.236      2.846
REMARK  4 active torsions:
REMARK  status: ('A' for Active; 'I' for Inactive)
REMARK    1  A    between atoms: C_6  and  N_7 
REMARK       I    between atoms: N_7  and  C_8 
REMARK    2  A    between atoms: C_8  and  C_9 
REMARK    3  A    between atoms: C_9  and  O_10 
REMARK    4  A    between atoms: O_10  and  C_11 
ROOT
HETATM    1  N   UNL     1       6.328  27.245  55.127  1.00  0.00    -0.323 N 
HETATM    2  C   UNL     1       7.180  26.963  54.071  1.00  0.00     0.256 C 
HETATM    3  O   UNL     1       8.062  27.710  53.655  1.00  0.00    -0.270 OA
HETATM    4  H   UNL     1       5.686  26.508  55.408  1.00  0.00     0.169 HD
ENDROOT
BRANCH   2   5
HETATM    5  C   UNL     1       6.945  25.554  53.453  1.00  0.00     0.141 C 
HETATM    6  C   UNL     1       5.730  24.844  54.073  1.00  0.00     0.057 C 
HETATM    7  C   UNL     1       6.618  25.762  51.957  1.00  0.00     0.057 C 
BRANCH   5   8
HETATM    8  O   UNL     1       8.111  24.721  53.454  1.00  0.00    -0.331 OA
BRANCH   8   9
HETATM    9  C   UNL     1       8.083  23.435  53.908  1.00  0.00     0.072 A 
HETATM   10  C   UNL     1       8.241  23.007  55.225  1.00  0.00     0.060 A 
HETATM   11  C   UNL     1       8.179  21.643  55.526  1.00  0.00     0.036 A 
HETATM   12 CL   UNL     1       8.359  21.123  57.158  1.00  0.00    -0.084 Cl
HETATM   13  C   UNL     1       7.970  20.697  54.525  1.00  0.00     0.024 A 
HETATM   14  C   UNL     1       7.831  21.117  53.205  1.00  0.00     0.004 A 
HETATM   15  C   UNL     1       7.891  22.480  52.903  1.00  0.00     0.037 A 
ENDBRANCH   8   9
ENDBRANCH   5   8
ENDBRANCH   2   5
BRANCH   1  16
HETATM   16  C   UNL     1       6.296  28.413  55.929  1.00  0.00     0.060 A 
HETATM   17  C   UNL     1       5.419  29.468  55.687  1.00  0.00     0.050 A 
HETATM   18  C   UNL     1       5.463  30.570  56.521  1.00  0.00     0.119 A 
HETATM   19  N   UNL     1       6.319  30.697  57.557  1.00  0.00    -0.264 NA
HETATM   20  C   UNL     1       7.176  29.672  57.795  1.00  0.00     0.054 A 
HETATM   21  C   UNL     1       8.136  29.879  58.930  1.00  0.00     0.072 C 
HETATM   22  C   UNL     1       7.184  28.511  57.015  1.00  0.00     0.085 A 
HETATM   23 CL   UNL     1       8.296  27.220  57.345  1.00  0.00    -0.080 Cl
ENDBRANCH   1  16
TORSDOF 4
ENDMDL
MODEL 4
REMARK VINA RESULT:      -8.4      1.721      2.410
REMARK  4 active torsions:
REMARK  status: ('A' for Active; 'I' for Inactive)
REMARK    1  A    between atoms: C_6  and  N_7 
REMARK       I    between atoms: N_7  and  C_8 
REMARK    2  A    between atoms: C_8  and  C_9 
REMARK    3  A    between atoms: C_9  and  O_10 
REMARK    4  A    between atoms: O_10  and  C_11 
ROOT
HETATM    1  N   UNL     1       7.455  28.138  56.354  1.00  0.00    -0.323 N 
HETATM    2  C   UNL     1       7.397  26.818  56.772  1.00  0.00     0.256 C 
HETATM    3  O   UNL     1       7.377  26.448  57.943  1.00  0.00    -0.270 OA
HETATM    4  H   UNL     1       7.399  28.305  55.352  1.00  0.00     0.169 HD
ENDROOT
BRANCH   2   5
HETATM    5  C   UNL     1       7.319  25.805  55.593  1.00  0.00     0.141 C 
HETATM    6  C   UNL     1       5.978  25.053  55.563  1.00  0.00     0.057 C 
HETATM    7  C   UNL     1       7.396  26.621  54.284  1.00  0.00     0.057 C 
BRANCH   5   8
HETATM    8  O   UNL     1       8.437  24.911  55.526  1.00  0.00    -0.331 OA
BRANCH   8   9
HETATM    9  C   UNL     1       8.279  23.555  55.482  1.00  0.00     0.072 A 
HETATM   10  C   UNL     1       8.080  22.771  54.348  1.00  0.00     0.060 A 
HETATM   11  C   UNL     1       7.942  21.385  54.475  1.00  0.00     0.036 A 
HETATM   12 CL   UNL     1       7.714  20.420  53.067  1.00  0.00    -0.084 Cl
HETATM   13  C   UNL     1       7.989  20.772  55.725  1.00  0.00     0.024 A 
HETATM   14  C   UNL     1       8.168  21.553  56.863  1.00  0.00     0.004 A 
HETATM   15  C   UNL     1       8.308  22.938  56.738  1.00  0.00     0.037 A 
ENDBRANCH   8   9
ENDBRANCH   5   8
ENDBRANCH   2   5
BRANCH   1  16
HETATM   16  C   UNL     1       7.499  29.304  57.159  1.00  0.00     0.060 A 
HETATM   17  C   UNL     1       6.351  29.953  57.606  1.00  0.00     0.050 A 
HETATM   18  C   UNL     1       6.493  31.088  58.384  1.00  0.00     0.119 A 
HETATM   19  N   UNL     1       7.684  31.620  58.730  1.00  0.00    -0.264 NA
HETATM   20  C   UNL     1       8.805  30.990  58.295  1.00  0.00     0.054 A 
HETATM   21  C   UNL     1      10.103  31.644  58.670  1.00  0.00     0.072 C 
HETATM   22  C   UNL     1       8.754  29.825  57.524  1.00  0.00     0.085 A 
HETATM   23 CL   UNL     1      10.207  29.048  56.980  1.00  0.00    -0.080 Cl
ENDBRANCH   1  16
TORSDOF 4
ENDMDL
MODEL 5
REMARK VINA RESULT:      -8.2      2.420      7.672
REMARK  4 active torsions:
REMARK  status: ('A' for Active; 'I' for Inactive)
REMARK    1  A    between atoms: C_6  and  N_7 
REMARK       I    between atoms: N_7  and  C_8 
REMARK    2  A    between atoms: C_8  and  C_9 
REMARK    3  A    between atoms: C_9  and  O_10 
REMARK    4  A    between atoms: O_10  and  C_11 
ROOT
HETATM    1  N   UNL     1       8.129  24.712  55.903  1.00  0.00    -0.323 N 
HETATM    2  C   UNL     1       7.008  25.511  56.058  1.00  0.00     0.256 C 
HETATM    3  O   UNL     1       5.848  25.107  56.073  1.00  0.00    -0.270 OA
HETATM    4  H   UNL     1       9.033  25.170  55.976  1.00  0.00     0.169 HD
ENDROOT
BRANCH   2   5
HETATM    5  C   UNL     1       7.351  27.016  56.257  1.00  0.00     0.141 C 
HETATM    6  C   UNL     1       7.571  27.744  54.920  1.00  0.00     0.057 C 
HETATM    7  C   UNL     1       6.124  27.679  56.924  1.00  0.00     0.057 C 
BRANCH   5   8
HETATM    8  O   UNL     1       8.427  27.246  57.176  1.00  0.00    -0.331 OA
BRANCH   8   9
HETATM    9  C   UNL     1       8.905  28.499  57.433  1.00  0.00     0.072 A 
HETATM   10  C   UNL     1       8.332  29.461  58.262  1.00  0.00     0.060 A 
HETATM   11  C   UNL     1       8.956  30.702  58.424  1.00  0.00     0.036 A 
HETATM   12 CL   UNL     1       8.251  31.879  59.463  1.00  0.00    -0.084 Cl
HETATM   13  C   UNL     1      10.143  30.999  57.758  1.00  0.00     0.024 A 
HETATM   14  C   UNL     1      10.710  30.048  56.914  1.00  0.00     0.004 A 
HETATM   15  C   UNL     1      10.088  28.808  56.752  1.00  0.00     0.037 A 
ENDBRANCH   8   9
ENDBRANCH   5   8
ENDBRANCH   2   5
BRANCH   1  16
HETATM   16  C   UNL     1       8.177  23.305  55.737  1.00  0.00     0.060 A 
HETATM   17  C   UNL     1       8.304  22.425  56.809  1.00  0.00     0.050 A 
HETATM   18  C   UNL     1       8.346  21.067  56.549  1.00  0.00     0.119 A 
HETATM   19  N   UNL     1       8.286  20.535  55.310  1.00  0.00    -0.264 NA
HETATM   20  C   UNL     1       8.164  21.390  54.263  1.00  0.00     0.054 A 
HETATM   21  C   UNL     1       8.144  20.754  52.904  1.00  0.00     0.072 C 
HETATM   22  C   UNL     1       8.090  22.776  54.437  1.00  0.00     0.085 A 
HETATM   23 CL   UNL     1       7.938  23.841  53.075  1.00  0.00    -0.080 Cl
ENDBRANCH   1  16
TORSDOF 4
ENDMDL
MODEL 6
REMARK VINA RESULT:      -8.1      3.072      7.475
REMARK  4 active torsions:
REMARK  status: ('A' for Active; 'I' for Inactive)
REMARK    1  A    between atoms: C_6  and  N_7 
REMARK       I    between atoms: N_7  and  C_8 
REMARK    2  A    between atoms: C_8  and  C_9 
REMARK    3  A    between atoms: C_9  and  O_10 
REMARK    4  A    between atoms: O_10  and  C_11 
ROOT
HETATM    1  N   UNL     1       6.896  23.722  54.074  1.00  0.00    -0.323 N 
HETATM    2  C   UNL     1       7.213  24.884  53.388  1.00  0.00     0.256 C 
HETATM    3  O   UNL     1       8.158  25.011  52.613  1.00  0.00    -0.270 OA
HETATM    4  H   UNL     1       6.047  23.737  54.633  1.00  0.00     0.169 HD
ENDROOT
BRANCH   2   5
HETATM    5  C   UNL     1       6.216  26.048  53.658  1.00  0.00     0.141 C 
HETATM    6  C   UNL     1       6.763  27.403  53.179  1.00  0.00     0.057 C 
HETATM    7  C   UNL     1       4.948  25.764  52.824  1.00  0.00     0.057 C 
BRANCH   5   8
HETATM    8  O   UNL     1       5.750  26.106  55.012  1.00  0.00    -0.331 OA
BRANCH   8   9
HETATM    9  C   UNL     1       6.273  26.979  55.922  1.00  0.00     0.072 A 
HETATM   10  C   UNL     1       5.719  28.189  56.337  1.00  0.00     0.060 A 
HETATM   11  C   UNL     1       6.384  28.969  57.288  1.00  0.00     0.036 A 
HETATM   12 CL   UNL     1       5.685  30.454  57.809  1.00  0.00    -0.084 Cl
HETATM   13  C   UNL     1       7.603  28.561  57.824  1.00  0.00     0.024 A 
HETATM   14  C   UNL     1       8.170  27.363  57.399  1.00  0.00     0.004 A 
HETATM   15  C   UNL     1       7.507  26.581  56.449  1.00  0.00     0.037 A 
ENDBRANCH   8   9
ENDBRANCH   5   8
ENDBRANCH   2   5
BRANCH   1  16
HETATM   16  C   UNL     1       7.568  22.475  54.029  1.00  0.00     0.060 A 
HETATM   17  C   UNL     1       7.661  21.712  52.868  1.00  0.00     0.050 A 
HETATM   18  C   UNL     1       8.333  20.504  52.922  1.00  0.00     0.119 A 
HETATM   19  N   UNL     1       8.898  20.006  54.042  1.00  0.00    -0.264 NA
HETATM   20  C   UNL     1       8.808  20.746  55.175  1.00  0.00     0.054 A 
HETATM   21  C   UNL     1       9.414  20.131  56.403  1.00  0.00     0.072 C 
HETATM   22  C   UNL     1       8.167  21.989  55.206  1.00  0.00     0.085 A 
HETATM   23 CL   UNL     1       8.066  22.908  56.674  1.00  0.00    -0.080 Cl
ENDBRANCH   1  16
TORSDOF 4
ENDMDL
MODEL 7
REMARK VINA RESULT:      -8.1      5.067      9.477
REMARK  4 active torsions:
REMARK  status: ('A' for Active; 'I' for Inactive)
REMARK    1  A    between atoms: C_6  and  N_7 
REMARK       I    between atoms: N_7  and  C_8 
REMARK    2  A    between atoms: C_8  and  C_9 
REMARK    3  A    between atoms: C_9  and  O_10 
REMARK    4  A    between atoms: O_10  and  C_11 
ROOT
HETATM    1  N   UNL     1       6.560  31.002  59.445  1.00  0.00    -0.323 N 
HETATM    2  C   UNL     1       5.896  32.210  59.309  1.00  0.00     0.256 C 
HETATM    3  O   UNL     1       5.923  32.922  58.308  1.00  0.00    -0.270 OA
HETATM    4  H   UNL     1       6.397  30.483  60.305  1.00  0.00     0.169 HD
ENDROOT
BRANCH   2   5
HETATM    5  C   UNL     1       5.050  32.590  60.558  1.00  0.00     0.141 C 
HETATM    6  C   UNL     1       5.075  34.102  60.839  1.00  0.00     0.057 C 
HETATM    7  C   UNL     1       3.582  32.224  60.243  1.00  0.00     0.057 C 
BRANCH   5   8
HETATM    8  O   UNL     1       5.368  31.823  61.726  1.00  0.00    -0.331 OA
BRANCH   8   9
HETATM    9  C   UNL     1       5.856  32.401  62.862  1.00  0.00     0.072 A 
HETATM   10  C   UNL     1       5.118  32.894  63.935  1.00  0.00     0.060 A 
HETATM   11  C   UNL     1       5.776  33.456  65.035  1.00  0.00     0.036 A 
HETATM   12 CL   UNL     1       4.857  34.048  66.365  1.00  0.00    -0.084 Cl
HETATM   13  C   UNL     1       7.166  33.539  65.071  1.00  0.00     0.024 A 
HETATM   14  C   UNL     1       7.908  33.065  63.993  1.00  0.00     0.004 A 
HETATM   15  C   UNL     1       7.252  32.504  62.894  1.00  0.00     0.037 A 
ENDBRANCH   8   9
ENDBRANCH   5   8
ENDBRANCH   2   5
BRANCH   1  16
HETATM   16  C   UNL     1       7.382  30.349  58.493  1.00  0.00     0.060 A 
HETATM   17  C   UNL     1       6.894  29.387  57.612  1.00  0.00     0.050 A 
HETATM   18  C   UNL     1       7.773  28.801  56.719  1.00  0.00     0.119 A 
HETATM   19  N   UNL     1       9.090  29.092  56.657  1.00  0.00    -0.264 NA
HETATM   20  C   UNL     1       9.569  30.028  57.516  1.00  0.00     0.054 A 
HETATM   21  C   UNL     1      11.045  30.286  57.437  1.00  0.00     0.072 C 
HETATM   22  C   UNL     1       8.746  30.688  58.435  1.00  0.00     0.085 A 
HETATM   23 CL   UNL     1       9.392  31.876  59.521  1.00  0.00    -0.080 Cl
ENDBRANCH   1  16
TORSDOF 4
ENDMDL
MODEL 8
REMARK VINA RESULT:      -8.1      3.749      7.140
REMARK  4 active torsions:
REMARK  status: ('A' for Active; 'I' for Inactive)
REMARK    1  A    between atoms: C_6  and  N_7 
REMARK       I    between atoms: N_7  and  C_8 
REMARK    2  A    between atoms: C_8  and  C_9 
REMARK    3  A    between atoms: C_9  and  O_10 
REMARK    4  A    between atoms: O_10  and  C_11 
ROOT
HETATM    1  N   UNL     1       7.234  23.912  55.891  1.00  0.00    -0.323 N 
HETATM    2  C   UNL     1       7.858  24.956  56.556  1.00  0.00     0.256 C 
HETATM    3  O   UNL     1       8.976  24.904  57.062  1.00  0.00    -0.270 OA
HETATM    4  H   UNL     1       6.334  24.113  55.463  1.00  0.00     0.169 HD
ENDROOT
BRANCH   2   5
HETATM    5  C   UNL     1       7.012  26.261  56.578  1.00  0.00     0.141 C 
HETATM    6  C   UNL     1       5.512  25.978  56.770  1.00  0.00     0.057 C 
HETATM    7  C   UNL     1       7.468  27.079  57.807  1.00  0.00     0.057 C 
BRANCH   5   8
HETATM    8  O   UNL     1       7.255  27.126  55.461  1.00  0.00    -0.331 OA
BRANCH   8   9
HETATM    9  C   UNL     1       6.355  27.267  54.444  1.00  0.00     0.072 A 
HETATM   10  C   UNL     1       6.210  26.440  53.333  1.00  0.00     0.060 A 
HETATM   11  C   UNL     1       5.228  26.722  52.378  1.00  0.00     0.036 A 
HETATM   12 CL   UNL     1       5.043  25.685  51.016  1.00  0.00    -0.084 Cl
HETATM   13  C   UNL     1       4.394  27.829  52.514  1.00  0.00     0.024 A 
HETATM   14  C   UNL     1       4.548  28.670  53.612  1.00  0.00     0.004 A 
HETATM   15  C   UNL     1       5.527  28.389  54.568  1.00  0.00     0.037 A 
ENDBRANCH   8   9
ENDBRANCH   5   8
ENDBRANCH   2   5
BRANCH   1  16
HETATM   16  C   UNL     1       7.735  22.607  55.657  1.00  0.00     0.060 A 
HETATM   17  C   UNL     1       8.165  21.771  56.685  1.00  0.00     0.050 A 
HETATM   18  C   UNL     1       8.643  20.515  56.360  1.00  0.00     0.119 A 
HETATM   19  N   UNL     1       8.735  20.047  55.097  1.00  0.00    -0.264 NA
HETATM   20  C   UNL     1       8.318  20.859  54.094  1.00  0.00     0.054 A 
HETATM   21  C   UNL     1       8.479  20.311  52.705  1.00  0.00     0.072 C 
HETATM   22  C   UNL     1       7.799  22.136  54.334  1.00  0.00     0.085 A 
HETATM   23 CL   UNL     1       7.280  23.150  53.025  1.00  0.00    -0.080 Cl
ENDBRANCH   1  16
TORSDOF 4
ENDMDL
MODEL 9
REMARK VINA RESULT:      -8.0      3.624      5.831
REMARK  4 active torsions:
REMARK  status: ('A' for Active; 'I' for Inactive)
REMARK    1  A    between atoms: C_6  and  N_7 
REMARK       I    between atoms: N_7  and  C_8 
REMARK    2  A    between atoms: C_8  and  C_9 
REMARK    3  A    between atoms: C_9  and  O_10 
REMARK    4  A    between atoms: O_10  and  C_11 
ROOT
HETATM    1  N   UNL     1       5.180  26.890  53.905  1.00  0.00    -0.323 N 
HETATM    2  C   UNL     1       6.410  27.179  54.476  1.00  0.00     0.256 C 
HETATM    3  O   UNL     1       7.189  28.042  54.077  1.00  0.00    -0.270 OA
HETATM    4  H   UNL     1       4.608  26.195  54.378  1.00  0.00     0.169 HD
ENDROOT
BRANCH   2   5
HETATM    5  C   UNL     1       6.721  26.317  55.733  1.00  0.00     0.141 C 
HETATM    6  C   UNL     1       6.725  27.153  57.024  1.00  0.00     0.057 C 
HETATM    7  C   UNL     1       5.575  25.290  55.876  1.00  0.00     0.057 C 
BRANCH   5   8
HETATM    8  O   UNL     1       7.905  25.519  55.608  1.00  0.00    -0.331 OA
BRANCH   8   9
HETATM    9  C   UNL     1       7.874  24.249  55.111  1.00  0.00     0.072 A 
HETATM   10  C   UNL     1       7.771  23.066  55.839  1.00  0.00     0.060 A 
HETATM   11  C   UNL     1       7.746  21.837  55.172  1.00  0.00     0.036 A 
HETATM   12 CL   UNL     1       7.602  20.379  56.078  1.00  0.00    -0.084 Cl
HETATM   13  C   UNL     1       7.834  21.774  53.783  1.00  0.00     0.024 A 
HETATM   14  C   UNL     1       7.956  22.951  53.052  1.00  0.00     0.004 A 
HETATM   15  C   UNL     1       7.980  24.180  53.716  1.00  0.00     0.037 A 
ENDBRANCH   8   9
ENDBRANCH   5   8
ENDBRANCH   2   5
BRANCH   1  16
HETATM   16  C   UNL     1       4.577  27.507  52.781  1.00  0.00     0.060 A 
HETATM   17  C   UNL     1       3.654  28.544  52.897  1.00  0.00     0.050 A 
HETATM   18  C   UNL     1       3.115  29.081  51.742  1.00  0.00     0.119 A 
HETATM   19  N   UNL     1       3.417  28.652  50.498  1.00  0.00    -0.264 NA
HETATM   20  C   UNL     1       4.315  27.641  50.383  1.00  0.00     0.054 A 
HETATM   21  C   UNL     1       4.585  27.171  48.983  1.00  0.00     0.072 C 
HETATM   22  C   UNL     1       4.926  27.055  51.496  1.00  0.00     0.085 A 
HETATM   23 CL   UNL     1       6.067  25.761  51.311  1.00  0.00    -0.080 Cl
ENDBRANCH   1  16
TORSDOF 4
ENDMDL
MODEL 10
REMARK VINA RESULT:      -7.9      3.824      7.002
REMARK  4 active torsions:
REMARK  status: ('A' for Active; 'I' for Inactive)
REMARK    1  A    between atoms: C_6  and  N_7 
REMARK       I    between atoms: N_7  and  C_8 
REMARK    2  A    between atoms: C_8  and  C_9 
REMARK    3  A    between atoms: C_9  and  O_10 
REMARK    4  A    between atoms: O_10  and  C_11 
ROOT
HETATM    1  N   UNL     1       7.512  24.776  55.208  1.00  0.00    -0.323 N 
HETATM    2  C   UNL     1       6.410  25.399  55.770  1.00  0.00     0.256 C 
HETATM    3  O   UNL     1       5.576  24.850  56.486  1.00  0.00    -0.270 OA
HETATM    4  H   UNL     1       8.158  25.365  54.690  1.00  0.00     0.169 HD
ENDROOT
BRANCH   2   5
HETATM    5  C   UNL     1       6.330  26.918  55.442  1.00  0.00     0.141 C 
HETATM    6  C   UNL     1       6.413  27.791  56.705  1.00  0.00     0.057 C 
HETATM    7  C   UNL     1       7.568  27.264  54.584  1.00  0.00     0.057 C 
BRANCH   5   8
HETATM    8  O   UNL     1       5.212  27.273  54.618  1.00  0.00    -0.331 OA
BRANCH   8   9
HETATM    9  C   UNL     1       5.186  27.009  53.279  1.00  0.00     0.072 A 
HETATM   10  C   UNL     1       5.375  27.919  52.241  1.00  0.00     0.060 A 
HETATM   11  C   UNL     1       5.322  27.483  50.914  1.00  0.00     0.036 A 
HETATM   12 CL   UNL     1       5.573  28.611  49.637  1.00  0.00    -0.084 Cl
HETATM   13  C   UNL     1       5.072  26.147  50.608  1.00  0.00     0.024 A 
HETATM   14  C   UNL     1       4.863  25.237  51.640  1.00  0.00     0.004 A 
HETATM   15  C   UNL     1       4.917  25.671  52.967  1.00  0.00     0.037 A 
ENDBRANCH   8   9
ENDBRANCH   5   8
ENDBRANCH   2   5
BRANCH   1  16
HETATM   16  C   UNL     1       7.902  23.419  55.335  1.00  0.00     0.060 A 
HETATM   17  C   UNL     1       8.161  22.823  56.567  1.00  0.00     0.050 A 
HETATM   18  C   UNL     1       8.541  21.493  56.592  1.00  0.00     0.119 A 
HETATM   19  N   UNL     1       8.692  20.732  55.488  1.00  0.00    -0.264 NA
HETATM   20  C   UNL     1       8.442  21.310  54.286  1.00  0.00     0.054 A 
HETATM   21  C   UNL     1       8.665  20.436  53.086  1.00  0.00     0.072 C 
HETATM   22  C   UNL     1       8.031  22.642  54.170  1.00  0.00     0.085 A 
HETATM   23 CL   UNL     1       7.724  23.351  52.616  1.00  0.00    -0.080 Cl
ENDBRANCH   1  16
TORSDOF 4
ENDMDL
