MODEL 1
REMARK VINA RESULT:      -9.4      0.000      0.000
REMARK  4 active torsions:
REMARK  status: ('A' for Active; 'I' for Inactive)
REMARK    1  A    between atoms: C_3  and  C_4 
REMARK       I    between atoms: C_4  and  N_5 
REMARK    2  A    between atoms: N_5  and  C_6 
REMARK    3  A    between atoms: C_6  and  C_7 
REMARK    4  A    between atoms: C_23  and  O_24 
ROOT
HETATM    1  C   UNL     1       6.334  26.850  55.607  1.00  0.00     0.276 C 
HETATM    2  N   UNL     1       6.800  26.471  54.369  1.00  0.00    -0.348 N 
HETATM    3  O   UNL     1       5.339  26.315  56.093  1.00  0.00    -0.265 OA
HETATM    4  H   UNL     1       7.622  26.913  53.969  1.00  0.00     0.163 HD
ENDROOT
BRANCH   1   5
HETATM    5  C   UNL     1       7.090  27.899  56.266  1.00  0.00     0.150 A 
HETATM    6  C   UNL     1       6.683  28.959  57.069  1.00  0.00    -0.009 A 
HETATM    7  C   UNL     1       5.304  29.322  57.489  1.00  0.00     0.052 C 
HETATM    8  C   UNL     1       7.873  29.659  57.437  1.00  0.00     0.009 A 
HETATM    9  C   UNL     1       8.922  28.984  56.833  1.00  0.00     0.087 A 
HETATM   10  C   UNL     1       8.168  30.791  58.219  1.00  0.00     0.051 A 
HETATM   11  O   UNL     1       8.457  27.922  56.123  1.00  0.00    -0.304 OA
HETATM   12  C   UNL     1      10.258  29.362  56.950  1.00  0.00     0.041 A 
HETATM   13  C   UNL     1      10.529  30.494  57.735  1.00  0.00     0.039 A 
HETATM   14  C   UNL     1       9.502  31.204  58.364  1.00  0.00     0.069 A 
BRANCH  14  15
HETATM   15  O   UNL     1       9.656  32.317  59.148  1.00  0.00    -0.356 OA
HETATM   16  C   UNL     1       9.052  32.294  60.434  1.00  0.00     0.210 C 
ENDBRANCH  14  15
ENDBRANCH   1   5
BRANCH   2  17
HETATM   17  C   UNL     1       6.119  25.444  53.628  1.00  0.00     0.201 C 
BRANCH  17  18
HETATM   18  C   UNL     1       6.762  24.120  53.841  1.00  0.00     0.123 A 
HETATM   19  N   UNL     1       7.244  23.285  52.939  1.00  0.00    -0.232 NA
HETATM   20  C   UNL     1       7.727  22.212  53.651  1.00  0.00     0.085 A 
HETATM   21  C   UNL     1       7.537  22.393  55.016  1.00  0.00     0.062 A 
HETATM   22  C   UNL     1       8.347  21.036  53.202  1.00  0.00     0.034 A 
HETATM   23  N   UNL     1       6.921  23.613  55.110  1.00  0.00    -0.341 N 
HETATM   24  C   UNL     1       7.931  21.464  55.981  1.00  0.00     0.032 A 
HETATM   25  H   UNL     1       6.635  24.064  55.967  1.00  0.00     0.167 HD
HETATM   26  C   UNL     1       8.547  20.299  55.514  1.00  0.00     0.002 A 
HETATM   27  C   UNL     1       8.753  20.085  54.148  1.00  0.00     0.002 A 
ENDBRANCH  17  18
ENDBRANCH   2  17
TORSDOF 4
ENDMDL
MODEL 2
REMARK VINA RESULT:      -9.3      6.287     10.054
REMARK  4 active torsions:
REMARK  status: ('A' for Active; 'I' for Inactive)
REMARK    1  A    between atoms: C_3  and  C_4 
REMARK       I    between atoms: C_4  and  N_5 
REMARK    2  A    between atoms: N_5  and  C_6 
REMARK    3  A    between atoms: C_6  and  C_7 
REMARK    4  A    between atoms: C_23  and  O_24 
ROOT
HETATM    1  C   UNL     1       4.968  32.458  62.583  1.00  0.00     0.276 C 
HETATM    2  N   UNL     1       5.625  33.029  61.517  1.00  0.00    -0.348 N 
HETATM    3  O   UNL     1       4.145  31.562  62.405  1.00  0.00    -0.265 OA
HETATM    4  H   UNL     1       6.305  33.768  61.665  1.00  0.00     0.163 HD
ENDROOT
BRANCH   1   5
HETATM    5  C   UNL     1       5.318  32.985  63.889  1.00  0.00     0.150 A 
HETATM    6  C   UNL     1       6.553  33.212  64.486  1.00  0.00    -0.009 A 
HETATM    7  C   UNL     1       7.908  32.965  63.927  1.00  0.00     0.052 C 
HETATM    8  C   UNL     1       6.277  33.749  65.780  1.00  0.00     0.009 A 
HETATM    9  C   UNL     1       4.896  33.811  65.887  1.00  0.00     0.087 A 
HETATM   10  C   UNL     1       7.051  34.190  66.869  1.00  0.00     0.051 A 
HETATM   11  O   UNL     1       4.312  33.349  64.750  1.00  0.00    -0.304 OA
HETATM   12  C   UNL     1       4.225  34.283  67.013  1.00  0.00     0.041 A 
HETATM   13  C   UNL     1       5.018  34.717  68.087  1.00  0.00     0.039 A 
HETATM   14  C   UNL     1       6.414  34.674  68.022  1.00  0.00     0.069 A 
BRANCH  14  15
HETATM   15  O   UNL     1       7.277  35.072  69.009  1.00  0.00    -0.356 OA
HETATM   16  C   UNL     1       6.737  35.253  70.311  1.00  0.00     0.210 C 
ENDBRANCH  14  15
ENDBRANCH   1   5
BRANCH   2  17
HETATM   17  C   UNL     1       5.346  32.584  60.178  1.00  0.00     0.201 C 
BRANCH  17  18
HETATM   18  C   UNL     1       6.553  31.970  59.561  1.00  0.00     0.123 A 
HETATM   19  N   UNL     1       7.793  32.423  59.555  1.00  0.00    -0.232 NA
HETATM   20  C   UNL     1       8.523  31.489  58.857  1.00  0.00     0.085 A 
HETATM   21  C   UNL     1       7.713  30.444  58.428  1.00  0.00     0.062 A 
HETATM   22  C   UNL     1       9.890  31.461  58.546  1.00  0.00     0.034 A 
HETATM   23  N   UNL     1       6.466  30.774  58.887  1.00  0.00    -0.341 N 
HETATM   24  C   UNL     1       8.184  29.353  57.696  1.00  0.00     0.032 A 
HETATM   25  H   UNL     1       5.626  30.230  58.754  1.00  0.00     0.167 HD
HETATM   26  C   UNL     1       9.550  29.342  57.395  1.00  0.00     0.002 A 
HETATM   27  C   UNL     1      10.392  30.377  57.812  1.00  0.00     0.002 A 
ENDBRANCH  17  18
ENDBRANCH   2  17
TORSDOF 4
ENDMDL
MODEL 3
REMARK VINA RESULT:      -9.2      2.953      8.683
REMARK  4 active torsions:
REMARK  status: ('A' for Active; 'I' for Inactive)
REMARK    1  A    between atoms: C_3  and  C_4 
REMARK       I    between atoms: C_4  and  N_5 
REMARK    2  A    between atoms: N_5  and  C_6 
REMARK    3  A    between atoms: C_6  and  C_7 
REMARK    4  A    between atoms: C_23  and  O_24 
ROOT
HETATM    1  C   UNL     1       5.825  28.221  55.407  1.00  0.00     0.276 C 
HETATM    2  N   UNL     1       6.500  28.814  56.449  1.00  0.00    -0.348 N 
HETATM    3  O   UNL     1       4.910  28.812  54.835  1.00  0.00    -0.265 OA
HETATM    4  H   UNL     1       7.255  28.325  56.919  1.00  0.00     0.163 HD
ENDROOT
BRANCH   1   5
HETATM    5  C   UNL     1       6.269  26.885  55.052  1.00  0.00     0.150 A 
HETATM    6  C   UNL     1       6.144  25.670  55.716  1.00  0.00    -0.009 A 
HETATM    7  C   UNL     1       5.494  25.395  57.024  1.00  0.00     0.052 C 
HETATM    8  C   UNL     1       6.771  24.695  54.881  1.00  0.00     0.009 A 
HETATM    9  C   UNL     1       7.238  25.378  53.770  1.00  0.00     0.087 A 
HETATM   10  C   UNL     1       6.988  23.306  54.951  1.00  0.00     0.051 A 
HETATM   11  O   UNL     1       6.940  26.701  53.868  1.00  0.00    -0.304 OA
HETATM   12  C   UNL     1       7.915  24.773  52.714  1.00  0.00     0.041 A 
HETATM   13  C   UNL     1       8.121  23.387  52.805  1.00  0.00     0.039 A 
HETATM   14  C   UNL     1       7.666  22.657  53.908  1.00  0.00     0.069 A 
BRANCH  14  15
HETATM   15  O   UNL     1       7.814  21.308  54.095  1.00  0.00    -0.356 OA
HETATM   16  C   UNL     1       8.325  20.553  53.006  1.00  0.00     0.210 C 
ENDBRANCH  14  15
ENDBRANCH   1   5
BRANCH   2  17
HETATM   17  C   UNL     1       6.134  30.134  56.884  1.00  0.00     0.201 C 
BRANCH  17  18
HETATM   18  C   UNL     1       6.860  30.503  58.129  1.00  0.00     0.123 A 
HETATM   19  N   UNL     1       8.034  30.075  58.553  1.00  0.00    -0.232 NA
HETATM   20  C   UNL     1       8.251  30.718  59.750  1.00  0.00     0.085 A 
HETATM   21  C   UNL     1       7.187  31.556  60.064  1.00  0.00     0.062 A 
HETATM   22  C   UNL     1       9.338  30.639  60.633  1.00  0.00     0.034 A 
HETATM   23  N   UNL     1       6.316  31.400  59.019  1.00  0.00    -0.341 N 
HETATM   24  C   UNL     1       7.134  32.335  61.221  1.00  0.00     0.032 A 
HETATM   25  H   UNL     1       5.427  31.868  58.919  1.00  0.00     0.167 HD
HETATM   26  C   UNL     1       8.227  32.244  62.090  1.00  0.00     0.002 A 
HETATM   27  C   UNL     1       9.312  31.411  61.803  1.00  0.00     0.002 A 
ENDBRANCH  17  18
ENDBRANCH   2  17
TORSDOF 4
ENDMDL
MODEL 4
REMARK VINA RESULT:      -9.1      2.625      8.717
REMARK  4 active torsions:
REMARK  status: ('A' for Active; 'I' for Inactive)
REMARK    1  A    between atoms: C_3  and  C_4 
REMARK       I    between atoms: C_4  and  N_5 
REMARK    2  A    between atoms: N_5  and  C_6 
REMARK    3  A    between atoms: C_6  and  C_7 
REMARK    4  A    between atoms: C_23  and  O_24 
ROOT
HETATM    1  C   UNL     1       7.447  27.851  55.515  1.00  0.00     0.276 C 
HETATM    2  N   UNL     1       6.698  28.343  56.560  1.00  0.00    -0.348 N 
HETATM    3  O   UNL     1       7.979  28.614  54.712  1.00  0.00    -0.265 OA
HETATM    4  H   UNL     1       6.259  27.712  57.223  1.00  0.00     0.163 HD
ENDROOT
BRANCH   1   5
HETATM    5  C   UNL     1       7.550  26.405  55.447  1.00  0.00     0.150 A 
HETATM    6  C   UNL     1       7.263  25.511  54.420  1.00  0.00    -0.009 A 
HETATM    7  C   UNL     1       6.749  25.806  53.057  1.00  0.00     0.052 C 
HETATM    8  C   UNL     1       7.567  24.211  54.928  1.00  0.00     0.009 A 
HETATM    9  C   UNL     1       8.014  24.397  56.226  1.00  0.00     0.087 A 
HETATM   10  C   UNL     1       7.510  22.900  54.422  1.00  0.00     0.051 A 
HETATM   11  O   UNL     1       8.005  25.719  56.547  1.00  0.00    -0.304 OA
HETATM   12  C   UNL     1       8.411  23.359  57.067  1.00  0.00     0.041 A 
HETATM   13  C   UNL     1       8.346  22.059  56.541  1.00  0.00     0.039 A 
HETATM   14  C   UNL     1       7.902  21.825  55.236  1.00  0.00     0.069 A 
BRANCH  14  15
HETATM   15  O   UNL     1       7.801  20.602  54.628  1.00  0.00    -0.356 OA
HETATM   16  C   UNL     1       7.991  20.558  53.221  1.00  0.00     0.210 C 
ENDBRANCH  14  15
ENDBRANCH   1   5
BRANCH   2  17
HETATM   17  C   UNL     1       6.526  29.762  56.716  1.00  0.00     0.201 C 
BRANCH  17  18
HETATM   18  C   UNL     1       7.100  30.227  58.007  1.00  0.00     0.123 A 
HETATM   19  N   UNL     1       8.190  29.804  58.622  1.00  0.00    -0.232 NA
HETATM   20  C   UNL     1       8.278  30.555  59.772  1.00  0.00     0.085 A 
HETATM   21  C   UNL     1       7.222  31.454  59.862  1.00  0.00     0.062 A 
HETATM   22  C   UNL     1       9.238  30.527  60.795  1.00  0.00     0.034 A 
HETATM   23  N   UNL     1       6.488  31.225  58.729  1.00  0.00    -0.341 N 
HETATM   24  C   UNL     1       7.056  32.344  60.924  1.00  0.00     0.032 A 
HETATM   25  H   UNL     1       5.641  31.709  58.469  1.00  0.00     0.167 HD
HETATM   26  C   UNL     1       8.022  32.303  61.935  1.00  0.00     0.002 A 
HETATM   27  C   UNL     1       9.096  31.410  61.874  1.00  0.00     0.002 A 
ENDBRANCH  17  18
ENDBRANCH   2  17
TORSDOF 4
ENDMDL
MODEL 5
REMARK VINA RESULT:      -9.0      3.603      6.302
REMARK  4 active torsions:
REMARK  status: ('A' for Active; 'I' for Inactive)
REMARK    1  A    between atoms: C_3  and  C_4 
REMARK       I    between atoms: C_4  and  N_5 
REMARK    2  A    between atoms: N_5  and  C_6 
REMARK    3  A    between atoms: C_6  and  C_7 
REMARK    4  A    between atoms: C_23  and  O_24 
ROOT
HETATM    1  C   UNL     1       8.706  31.570  59.286  1.00  0.00     0.276 C 
HETATM    2  N   UNL     1       8.384  30.333  58.776  1.00  0.00    -0.348 N 
HETATM    3  O   UNL     1       9.577  32.258  58.758  1.00  0.00    -0.265 OA
HETATM    4  H   UNL     1       7.663  29.766  59.213  1.00  0.00     0.163 HD
ENDROOT
BRANCH   1   5
HETATM    5  C   UNL     1       7.956  31.978  60.460  1.00  0.00     0.150 A 
HETATM    6  C   UNL     1       6.596  32.195  60.651  1.00  0.00    -0.009 A 
HETATM    7  C   UNL     1       5.493  32.064  59.663  1.00  0.00     0.052 C 
HETATM    8  C   UNL     1       6.442  32.575  62.020  1.00  0.00     0.009 A 
HETATM    9  C   UNL     1       7.714  32.569  62.569  1.00  0.00     0.087 A 
HETATM   10  C   UNL     1       5.359  32.923  62.847  1.00  0.00     0.051 A 
HETATM   11  O   UNL     1       8.633  32.210  61.633  1.00  0.00    -0.304 OA
HETATM   12  C   UNL     1       7.988  32.888  63.897  1.00  0.00     0.041 A 
HETATM   13  C   UNL     1       6.892  33.232  64.704  1.00  0.00     0.039 A 
HETATM   14  C   UNL     1       5.591  33.251  64.192  1.00  0.00     0.069 A 
BRANCH  14  15
HETATM   15  O   UNL     1       4.456  33.570  64.890  1.00  0.00    -0.356 OA
HETATM   16  C   UNL     1       4.618  33.970  66.244  1.00  0.00     0.210 C 
ENDBRANCH  14  15
ENDBRANCH   1   5
BRANCH   2  17
HETATM   17  C   UNL     1       9.071  29.832  57.618  1.00  0.00     0.201 C 
BRANCH  17  18
HETATM   18  C   UNL     1       8.471  28.551  57.157  1.00  0.00     0.123 A 
HETATM   19  N   UNL     1       8.244  27.453  57.854  1.00  0.00    -0.232 NA
HETATM   20  C   UNL     1       7.677  26.565  56.968  1.00  0.00     0.085 A 
HETATM   21  C   UNL     1       7.555  27.132  55.705  1.00  0.00     0.062 A 
HETATM   22  C   UNL     1       7.236  25.249  57.167  1.00  0.00     0.034 A 
HETATM   23  N   UNL     1       8.068  28.394  55.851  1.00  0.00    -0.341 N 
HETATM   24  C   UNL     1       7.013  26.462  54.607  1.00  0.00     0.032 A 
HETATM   25  H   UNL     1       8.136  29.091  55.123  1.00  0.00     0.167 HD
HETATM   26  C   UNL     1       6.578  25.151  54.824  1.00  0.00     0.002 A 
HETATM   27  C   UNL     1       6.686  24.551  56.083  1.00  0.00     0.002 A 
ENDBRANCH  17  18
ENDBRANCH   2  17
TORSDOF 4
ENDMDL
MODEL 6
REMARK VINA RESULT:      -8.8      4.313      7.884
REMARK  4 active torsions:
REMARK  status: ('A' for Active; 'I' for Inactive)
REMARK    1  A    between atoms: C_3  and  C_4 
REMARK       I    between atoms: C_4  and  N_5 
REMARK    2  A    between atoms: N_5  and  C_6 
REMARK    3  A    between atoms: C_6  and  C_7 
REMARK    4  A    between atoms: C_23  and  O_24 
ROOT
HETATM    1  C   UNL     1       7.008  27.291  53.258  1.00  0.00     0.276 C 
HETATM    2  N   UNL     1       6.020  27.164  52.309  1.00  0.00    -0.348 N 
HETATM    3  O   UNL     1       7.518  28.386  53.489  1.00  0.00    -0.265 OA
HETATM    4  H   UNL     1       5.600  26.259  52.119  1.00  0.00     0.163 HD
ENDROOT
BRANCH   1   5
HETATM    5  C   UNL     1       7.384  26.066  53.939  1.00  0.00     0.150 A 
HETATM    6  C   UNL     1       7.723  24.810  53.449  1.00  0.00    -0.009 A 
HETATM    7  C   UNL     1       7.795  24.360  52.034  1.00  0.00     0.052 C 
HETATM    8  C   UNL     1       8.005  23.999  54.591  1.00  0.00     0.009 A 
HETATM    9  C   UNL     1       7.816  24.811  55.698  1.00  0.00     0.087 A 
HETATM   10  C   UNL     1       8.400  22.666  54.801  1.00  0.00     0.051 A 
HETATM   11  O   UNL     1       7.439  26.060  55.312  1.00  0.00    -0.304 OA
HETATM   12  C   UNL     1       7.993  24.385  57.013  1.00  0.00     0.041 A 
HETATM   13  C   UNL     1       8.388  23.051  57.198  1.00  0.00     0.039 A 
HETATM   14  C   UNL     1       8.590  22.196  56.110  1.00  0.00     0.069 A 
BRANCH  14  15
HETATM   15  O   UNL     1       8.974  20.883  56.179  1.00  0.00    -0.356 OA
HETATM   16  C   UNL     1       8.865  20.111  54.992  1.00  0.00     0.210 C 
ENDBRANCH  14  15
ENDBRANCH   1   5
BRANCH   2  17
HETATM   17  C   UNL     1       5.578  28.316  51.571  1.00  0.00     0.201 C 
BRANCH  17  18
HETATM   18  C   UNL     1       4.645  27.923  50.481  1.00  0.00     0.123 A 
HETATM   19  N   UNL     1       3.470  28.442  50.179  1.00  0.00    -0.232 NA
HETATM   20  C   UNL     1       3.019  27.726  49.094  1.00  0.00     0.085 A 
HETATM   21  C   UNL     1       3.936  26.749  48.726  1.00  0.00     0.062 A 
HETATM   22  C   UNL     1       1.829  27.851  48.362  1.00  0.00     0.034 A 
HETATM   23  N   UNL     1       4.960  26.895  49.623  1.00  0.00    -0.341 N 
HETATM   24  C   UNL     1       3.743  25.873  47.657  1.00  0.00     0.032 A 
HETATM   25  H   UNL     1       5.805  26.341  49.648  1.00  0.00     0.167 HD
HETATM   26  C   UNL     1       2.551  26.012  46.939  1.00  0.00     0.002 A 
HETATM   27  C   UNL     1       1.607  26.984  47.283  1.00  0.00     0.002 A 
ENDBRANCH  17  18
ENDBRANCH   2  17
TORSDOF 4
ENDMDL
MODEL 7
REMARK VINA RESULT:      -8.7      4.547      7.601
REMARK  4 active torsions:
REMARK  status: ('A' for Active; 'I' for Inactive)
REMARK    1  A    between atoms: C_3  and  C_4 
REMARK       I    between atoms: C_4  and  N_5 
REMARK    2  A    between atoms: N_5  and  C_6 
REMARK    3  A    between atoms: C_6  and  C_7 
REMARK    4  A    between atoms: C_23  and  O_24 
ROOT
HETATM    1  C   UNL     1       5.820  27.098  52.800  1.00  0.00     0.276 C 
HETATM    2  N   UNL     1       5.400  26.043  53.577  1.00  0.00    -0.348 N 
HETATM    3  O   UNL     1       6.765  27.800  53.155  1.00  0.00    -0.265 OA
HETATM    4  H   UNL     1       4.620  25.463  53.282  1.00  0.00     0.163 HD
ENDROOT
BRANCH   1   5
HETATM    5  C   UNL     1       5.080  27.302  51.569  1.00  0.00     0.150 A 
HETATM    6  C   UNL     1       4.099  28.228  51.230  1.00  0.00    -0.009 A 
HETATM    7  C   UNL     1       3.516  29.305  52.073  1.00  0.00     0.052 C 
HETATM    8  C   UNL     1       3.742  27.952  49.875  1.00  0.00     0.009 A 
HETATM    9  C   UNL     1       4.523  26.878  49.479  1.00  0.00     0.087 A 
HETATM   10  C   UNL     1       2.840  28.500  48.944  1.00  0.00     0.051 A 
HETATM   11  O   UNL     1       5.332  26.480  50.497  1.00  0.00    -0.304 OA
HETATM   12  C   UNL     1       4.470  26.303  48.211  1.00  0.00     0.041 A 
HETATM   13  C   UNL     1       3.563  26.867  47.299  1.00  0.00     0.039 A 
HETATM   14  C   UNL     1       2.756  27.952  47.655  1.00  0.00     0.069 A 
BRANCH  14  15
HETATM   15  O   UNL     1       1.843  28.574  46.845  1.00  0.00    -0.356 OA
HETATM   16  C   UNL     1       0.540  28.010  46.782  1.00  0.00     0.210 C 
ENDBRANCH  14  15
ENDBRANCH   1   5
BRANCH   2  17
HETATM   17  C   UNL     1       6.061  25.756  54.820  1.00  0.00     0.201 C 
BRANCH  17  18
HETATM   18  C   UNL     1       6.670  24.399  54.798  1.00  0.00     0.123 A 
HETATM   19  N   UNL     1       6.984  23.623  55.819  1.00  0.00    -0.232 NA
HETATM   20  C   UNL     1       7.512  22.480  55.264  1.00  0.00     0.085 A 
HETATM   21  C   UNL     1       7.520  22.559  53.876  1.00  0.00     0.062 A 
HETATM   22  C   UNL     1       8.008  21.323  55.882  1.00  0.00     0.034 A 
HETATM   23  N   UNL     1       6.981  23.788  53.606  1.00  0.00    -0.341 N 
HETATM   24  C   UNL     1       7.999  21.542  53.049  1.00  0.00     0.032 A 
HETATM   25  H   UNL     1       6.835  24.178  52.686  1.00  0.00     0.167 HD
HETATM   26  C   UNL     1       8.490  20.396  53.683  1.00  0.00     0.002 A 
HETATM   27  C   UNL     1       8.495  20.285  55.076  1.00  0.00     0.002 A 
ENDBRANCH  17  18
ENDBRANCH   2  17
TORSDOF 4
ENDMDL
MODEL 8
REMARK VINA RESULT:      -8.6      8.503     13.785
REMARK  4 active torsions:
REMARK  status: ('A' for Active; 'I' for Inactive)
REMARK    1  A    between atoms: C_3  and  C_4 
REMARK       I    between atoms: C_4  and  N_5 
REMARK    2  A    between atoms: N_5  and  C_6 
REMARK    3  A    between atoms: C_6  and  C_7 
REMARK    4  A    between atoms: C_23  and  O_24 
ROOT
HETATM    1  C   UNL     1       4.714  34.154  64.797  1.00  0.00     0.276 C 
HETATM    2  N   UNL     1       5.449  35.020  65.574  1.00  0.00    -0.348 N 
HETATM    3  O   UNL     1       3.582  33.815  65.137  1.00  0.00    -0.265 OA
HETATM    4  H   UNL     1       6.384  35.301  65.292  1.00  0.00     0.163 HD
ENDROOT
BRANCH   1   5
HETATM    5  C   UNL     1       5.366  33.693  63.585  1.00  0.00     0.150 A 
HETATM    6  C   UNL     1       6.677  33.299  63.341  1.00  0.00    -0.009 A 
HETATM    7  C   UNL     1       7.817  33.241  64.294  1.00  0.00     0.052 C 
HETATM    8  C   UNL     1       6.734  32.941  61.959  1.00  0.00     0.009 A 
HETATM    9  C   UNL     1       5.460  33.144  61.454  1.00  0.00     0.087 A 
HETATM   10  C   UNL     1       7.731  32.467  61.087  1.00  0.00     0.051 A 
HETATM   11  O   UNL     1       4.630  33.599  62.429  1.00  0.00    -0.304 OA
HETATM   12  C   UNL     1       5.104  32.907  60.128  1.00  0.00     0.041 A 
HETATM   13  C   UNL     1       6.115  32.434  59.276  1.00  0.00     0.039 A 
HETATM   14  C   UNL     1       7.414  32.215  59.743  1.00  0.00     0.069 A 
BRANCH  14  15
HETATM   15  O   UNL     1       8.470  31.757  59.000  1.00  0.00    -0.356 OA
HETATM   16  C   UNL     1       8.266  30.572  58.243  1.00  0.00     0.210 C 
ENDBRANCH  14  15
ENDBRANCH   1   5
BRANCH   2  17
HETATM   17  C   UNL     1       4.899  35.532  66.799  1.00  0.00     0.201 C 
BRANCH  17  18
HETATM   18  C   UNL     1       5.597  34.954  67.978  1.00  0.00     0.123 A 
HETATM   19  N   UNL     1       5.193  33.984  68.778  1.00  0.00    -0.232 NA
HETATM   20  C   UNL     1       6.199  33.828  69.704  1.00  0.00     0.085 A 
HETATM   21  C   UNL     1       7.238  34.719  69.465  1.00  0.00     0.062 A 
HETATM   22  C   UNL     1       6.299  32.940  70.785  1.00  0.00     0.034 A 
HETATM   23  N   UNL     1       6.831  35.423  68.364  1.00  0.00    -0.341 N 
HETATM   24  C   UNL     1       8.393  34.786  70.247  1.00  0.00     0.032 A 
HETATM   25  H   UNL     1       7.351  36.161  67.911  1.00  0.00     0.167 HD
HETATM   26  C   UNL     1       8.476  33.893  71.321  1.00  0.00     0.002 A 
HETATM   27  C   UNL     1       7.448  32.984  71.588  1.00  0.00     0.002 A 
ENDBRANCH  17  18
ENDBRANCH   2  17
TORSDOF 4
ENDMDL
MODEL 9
REMARK VINA RESULT:      -8.5      8.173     13.422
REMARK  4 active torsions:
REMARK  status: ('A' for Active; 'I' for Inactive)
REMARK    1  A    between atoms: C_3  and  C_4 
REMARK       I    between atoms: C_4  and  N_5 
REMARK    2  A    between atoms: N_5  and  C_6 
REMARK    3  A    between atoms: C_6  and  C_7 
REMARK    4  A    between atoms: C_23  and  O_24 
ROOT
HETATM    1  C   UNL     1       4.829  33.363  64.173  1.00  0.00     0.276 C 
HETATM    2  N   UNL     1       5.436  33.677  65.368  1.00  0.00    -0.348 N 
HETATM    3  O   UNL     1       3.625  33.556  64.012  1.00  0.00    -0.265 OA
HETATM    4  H   UNL     1       6.430  33.519  65.499  1.00  0.00     0.163 HD
ENDROOT
BRANCH   1   5
HETATM    5  C   UNL     1       5.701  32.806  63.156  1.00  0.00     0.150 A 
HETATM    6  C   UNL     1       5.627  32.834  61.767  1.00  0.00    -0.009 A 
HETATM    7  C   UNL     1       4.590  33.468  60.911  1.00  0.00     0.052 C 
HETATM    8  C   UNL     1       6.771  32.122  61.293  1.00  0.00     0.009 A 
HETATM    9  C   UNL     1       7.463  31.706  62.420  1.00  0.00     0.087 A 
HETATM   10  C   UNL     1       7.292  31.790  60.029  1.00  0.00     0.051 A 
HETATM   11  O   UNL     1       6.822  32.114  63.547  1.00  0.00    -0.304 OA
HETATM   12  C   UNL     1       8.647  30.973  62.377  1.00  0.00     0.041 A 
HETATM   13  C   UNL     1       9.147  30.653  61.105  1.00  0.00     0.039 A 
HETATM   14  C   UNL     1       8.483  31.053  59.942  1.00  0.00     0.069 A 
BRANCH  14  15
HETATM   15  O   UNL     1       8.884  30.794  58.658  1.00  0.00    -0.356 OA
HETATM   16  C   UNL     1       7.942  30.170  57.797  1.00  0.00     0.210 C 
ENDBRANCH  14  15
ENDBRANCH   1   5
BRANCH   2  17
HETATM   17  C   UNL     1       4.661  34.230  66.445  1.00  0.00     0.201 C 
BRANCH  17  18
HETATM   18  C   UNL     1       5.438  34.229  67.713  1.00  0.00     0.123 A 
HETATM   19  N   UNL     1       5.048  33.846  68.915  1.00  0.00    -0.232 NA
HETATM   20  C   UNL     1       6.136  34.042  69.735  1.00  0.00     0.085 A 
HETATM   21  C   UNL     1       7.212  34.555  69.020  1.00  0.00     0.062 A 
HETATM   22  C   UNL     1       6.285  33.804  71.109  1.00  0.00     0.034 A 
HETATM   23  N   UNL     1       6.743  34.665  67.738  1.00  0.00    -0.341 N 
HETATM   24  C   UNL     1       8.450  34.851  69.594  1.00  0.00     0.032 A 
HETATM   25  H   UNL     1       7.267  35.006  66.946  1.00  0.00     0.167 HD
HETATM   26  C   UNL     1       8.579  34.608  70.966  1.00  0.00     0.002 A 
HETATM   27  C   UNL     1       7.516  34.093  71.713  1.00  0.00     0.002 A 
ENDBRANCH  17  18
ENDBRANCH   2  17
TORSDOF 4
ENDMDL
MODEL 10
REMARK VINA RESULT:      -8.5      4.173      6.654
REMARK  4 active torsions:
REMARK  status: ('A' for Active; 'I' for Inactive)
REMARK    1  A    between atoms: C_3  and  C_4 
REMARK       I    between atoms: C_4  and  N_5 
REMARK    2  A    between atoms: N_5  and  C_6 
REMARK    3  A    between atoms: C_6  and  C_7 
REMARK    4  A    between atoms: C_23  and  O_24 
ROOT
HETATM    1  C   UNL     1       5.652  32.088  59.086  1.00  0.00     0.276 C 
HETATM    2  N   UNL     1       4.923  30.941  58.875  1.00  0.00    -0.348 N 
HETATM    3  O   UNL     1       6.147  32.699  58.140  1.00  0.00    -0.265 OA
HETATM    4  H   UNL     1       4.514  30.438  59.656  1.00  0.00     0.163 HD
ENDROOT
BRANCH   1   5
HETATM    5  C   UNL     1       5.783  32.501  60.471  1.00  0.00     0.150 A 
HETATM    6  C   UNL     1       4.876  33.096  61.342  1.00  0.00    -0.009 A 
HETATM    7  C   UNL     1       3.466  33.488  61.079  1.00  0.00     0.052 C 
HETATM    8  C   UNL     1       5.566  33.264  62.581  1.00  0.00     0.009 A 
HETATM    9  C   UNL     1       6.844  32.766  62.384  1.00  0.00     0.087 A 
HETATM   10  C   UNL     1       5.240  33.784  63.847  1.00  0.00     0.051 A 
HETATM   11  O   UNL     1       6.983  32.305  61.112  1.00  0.00    -0.304 OA
HETATM   12  C   UNL     1       7.831  32.750  63.367  1.00  0.00     0.041 A 
HETATM   13  C   UNL     1       7.483  33.274  64.622  1.00  0.00     0.039 A 
HETATM   14  C   UNL     1       6.205  33.786  64.865  1.00  0.00     0.069 A 
BRANCH  14  15
HETATM   15  O   UNL     1       5.764  34.318  66.048  1.00  0.00    -0.356 OA
HETATM   16  C   UNL     1       4.402  34.103  66.390  1.00  0.00     0.210 C 
ENDBRANCH  14  15
ENDBRANCH   1   5
BRANCH   2  17
HETATM   17  C   UNL     1       4.738  30.442  57.540  1.00  0.00     0.201 C 
BRANCH  17  18
HETATM   18  C   UNL     1       5.421  29.132  57.363  1.00  0.00     0.123 A 
HETATM   19  N   UNL     1       6.702  28.849  57.505  1.00  0.00    -0.232 NA
HETATM   20  C   UNL     1       6.815  27.505  57.232  1.00  0.00     0.085 A 
HETATM   21  C   UNL     1       5.577  26.956  56.916  1.00  0.00     0.062 A 
HETATM   22  C   UNL     1       7.946  26.675  57.232  1.00  0.00     0.034 A 
HETATM   23  N   UNL     1       4.709  28.011  57.006  1.00  0.00    -0.341 N 
HETATM   24  C   UNL     1       5.389  25.610  56.595  1.00  0.00     0.032 A 
HETATM   25  H   UNL     1       3.714  27.970  56.839  1.00  0.00     0.167 HD
HETATM   26  C   UNL     1       6.528  24.799  56.601  1.00  0.00     0.002 A 
HETATM   27  C   UNL     1       7.787  25.320  56.914  1.00  0.00     0.002 A 
ENDBRANCH  17  18
ENDBRANCH   2  17
TORSDOF 4
ENDMDL
