MODEL 1
REMARK VINA RESULT:     -11.7      0.000      0.000
REMARK  9 active torsions:
REMARK  status: ('A' for Active; 'I' for Inactive)
REMARK    1  A    between atoms: C_4  and  S_5 
REMARK    2  A    between atoms: S_5  and  C_6 
REMARK    3  A    between atoms: C_6  and  C_7 
REMARK       I    between atoms: C_7  and  N_8 
REMARK    4  A    between atoms: N_8  and  C_9 
REMARK    5  A    between atoms: C_9  and  C_10 
REMARK    6  A    between atoms: C_20  and  C_21 
REMARK    7  A    between atoms: C_26  and  C_27 
REMARK       I    between atoms: C_27  and  N_28 
REMARK    8  A    between atoms: N_28  and  C_29 
REMARK    9  A    between atoms: C_31  and  C_32 
ROOT
HETATM    1  C   UNL     1       5.103  32.486  57.611  1.00  0.00     0.069 C 
HETATM    2  C   UNL     1       5.867  31.183  57.578  1.00  0.00     0.019 C 
HETATM    3  N   UNL     1       5.466  30.281  56.599  1.00  0.00    -0.353 N 
HETATM    4  C   UNL     1       5.812  28.935  56.590  1.00  0.00     0.087 C 
HETATM    5  C   UNL     1       6.799  28.519  57.416  1.00  0.00     0.057 C 
HETATM    6  C   UNL     1       7.167  27.060  57.633  1.00  0.00     0.019 C 
HETATM    7  N   UNL     1       7.472  25.850  57.813  1.00  0.00    -0.096 N 
HETATM    8  C   UNL     1       7.602  29.528  58.239  1.00  0.00     0.129 C 
HETATM    9  C   UNL     1       6.878  30.859  58.420  1.00  0.00     0.048 C 
HETATM   10  H   UNL     1       4.558  30.476  56.180  1.00  0.00     0.166 HD
ENDROOT
BRANCH   4  11
HETATM   11  S   UNL     1       4.978  27.802  55.534  1.00  0.00    -0.102 SA
BRANCH  11  12
HETATM   12  C   UNL     1       6.247  27.628  54.239  1.00  0.00     0.183 C 
BRANCH  12  13
HETATM   13  C   UNL     1       6.263  26.296  53.513  1.00  0.00     0.227 C 
HETATM   14  N   UNL     1       7.440  25.594  53.474  1.00  0.00    -0.356 N 
HETATM   15  H   UNL     1       8.289  26.043  53.799  1.00  0.00     0.162 HD
HETATM   16  O   UNL     1       5.242  25.892  52.954  1.00  0.00    -0.273 OA
BRANCH  14  17
HETATM   17  C   UNL     1       7.546  24.389  52.681  1.00  0.00     0.161 C 
BRANCH  17  18
HETATM   18  C   UNL     1       7.723  23.147  53.512  1.00  0.00    -0.041 A 
HETATM   19  C   UNL     1       7.603  23.182  54.909  1.00  0.00     0.009 A 
HETATM   20  C   UNL     1       7.705  22.011  55.662  1.00  0.00     0.001 A 
HETATM   21  C   UNL     1       7.911  20.788  55.026  1.00  0.00     0.000 A 
HETATM   22  C   UNL     1       8.016  20.735  53.639  1.00  0.00     0.001 A 
HETATM   23  C   UNL     1       7.920  21.907  52.885  1.00  0.00     0.009 A 
ENDBRANCH  17  18
ENDBRANCH  14  17
ENDBRANCH  12  13
ENDBRANCH  11  12
ENDBRANCH   4  11
BRANCH   8  24
HETATM   24  C   UNL     1       8.979  29.714  57.646  1.00  0.00     0.066 A 
HETATM   25  O   UNL     1       9.093  29.516  56.301  1.00  0.00    -0.326 OA
HETATM   26  C   UNL     1      10.398  29.717  55.980  1.00  0.00     0.142 A 
HETATM   27  C   UNL     1      11.130  30.015  57.105  1.00  0.00     0.027 A 
HETATM   28  C   UNL     1      10.217  30.009  58.185  1.00  0.00     0.035 A 
ENDBRANCH   8  24
BRANCH   9  29
HETATM   29  C   UNL     1       7.197  31.722  59.611  1.00  0.00     0.255 C 
HETATM   30  N   UNL     1       6.447  31.474  60.741  1.00  0.00    -0.323 N 
HETATM   31  H   UNL     1       5.729  30.762  60.699  1.00  0.00     0.169 HD
HETATM   32  O   UNL     1       8.038  32.610  59.505  1.00  0.00    -0.268 OA
BRANCH  30  33
HETATM   33  C   UNL     1       6.550  32.110  61.998  1.00  0.00     0.035 A 
HETATM   34  C   UNL     1       5.478  32.703  62.669  1.00  0.00     0.045 A 
HETATM   35  C   UNL     1       5.666  33.336  63.912  1.00  0.00     0.050 A 
HETATM   36  C   UNL     1       6.948  33.359  64.480  1.00  0.00     0.016 A 
HETATM   37  C   UNL     1       8.021  32.768  63.820  1.00  0.00     0.003 A 
HETATM   38  C   UNL     1       7.822  32.153  62.582  1.00  0.00     0.029 A 
BRANCH  35  39
HETATM   39  C   UNL     1       4.519  34.010  64.624  1.00  0.00     0.417 C 
HETATM   40  F   UNL     1       4.359  33.616  65.917  1.00  0.00    -0.166 F 
HETATM   41  F   UNL     1       4.653  35.365  64.661  1.00  0.00    -0.166 F 
HETATM   42  F   UNL     1       3.324  33.773  64.013  1.00  0.00    -0.166 F 
ENDBRANCH  35  39
ENDBRANCH  30  33
ENDBRANCH   9  29
TORSDOF 9
ENDMDL
MODEL 2
REMARK VINA RESULT:     -11.0      1.306      1.957
REMARK  9 active torsions:
REMARK  status: ('A' for Active; 'I' for Inactive)
REMARK    1  A    between atoms: C_4  and  S_5 
REMARK    2  A    between atoms: S_5  and  C_6 
REMARK    3  A    between atoms: C_6  and  C_7 
REMARK       I    between atoms: C_7  and  N_8 
REMARK    4  A    between atoms: N_8  and  C_9 
REMARK    5  A    between atoms: C_9  and  C_10 
REMARK    6  A    between atoms: C_20  and  C_21 
REMARK    7  A    between atoms: C_26  and  C_27 
REMARK       I    between atoms: C_27  and  N_28 
REMARK    8  A    between atoms: N_28  and  C_29 
REMARK    9  A    between atoms: C_31  and  C_32 
ROOT
HETATM    1  C   UNL     1       4.785  32.104  56.645  1.00  0.00     0.069 C 
HETATM    2  C   UNL     1       5.605  30.850  56.834  1.00  0.00     0.019 C 
HETATM    3  N   UNL     1       5.352  29.829  55.924  1.00  0.00    -0.353 N 
HETATM    4  C   UNL     1       5.758  28.511  56.098  1.00  0.00     0.087 C 
HETATM    5  C   UNL     1       6.668  28.239  57.061  1.00  0.00     0.057 C 
HETATM    6  C   UNL     1       7.075  26.834  57.474  1.00  0.00     0.019 C 
HETATM    7  N   UNL     1       7.412  25.669  57.815  1.00  0.00    -0.096 N 
HETATM    8  C   UNL     1       7.332  29.373  57.846  1.00  0.00     0.129 C 
HETATM    9  C   UNL     1       6.534  30.672  57.804  1.00  0.00     0.048 C 
HETATM   10  H   UNL     1       4.487  29.928  55.396  1.00  0.00     0.166 HD
ENDROOT
BRANCH   4  11
HETATM   11  S   UNL     1       5.093  27.229  55.094  1.00  0.00    -0.102 SA
BRANCH  11  12
HETATM   12  C   UNL     1       6.051  27.528  53.574  1.00  0.00     0.183 C 
BRANCH  12  13
HETATM   13  C   UNL     1       6.526  26.284  52.844  1.00  0.00     0.227 C 
HETATM   14  N   UNL     1       7.391  25.443  53.495  1.00  0.00    -0.356 N 
HETATM   15  H   UNL     1       7.798  25.743  54.374  1.00  0.00     0.162 HD
HETATM   16  O   UNL     1       6.155  26.075  51.688  1.00  0.00    -0.273 OA
BRANCH  14  17
HETATM   17  C   UNL     1       7.981  24.320  52.799  1.00  0.00     0.161 C 
BRANCH  17  18
HETATM   18  C   UNL     1       7.876  23.029  53.564  1.00  0.00    -0.041 A 
HETATM   19  C   UNL     1       7.996  21.788  52.921  1.00  0.00     0.009 A 
HETATM   20  C   UNL     1       7.963  20.600  53.654  1.00  0.00     0.001 A 
HETATM   21  C   UNL     1       7.825  20.639  55.040  1.00  0.00     0.000 A 
HETATM   22  C   UNL     1       7.722  21.863  55.694  1.00  0.00     0.001 A 
HETATM   23  C   UNL     1       7.749  23.052  54.962  1.00  0.00     0.009 A 
ENDBRANCH  17  18
ENDBRANCH  14  17
ENDBRANCH  12  13
ENDBRANCH  11  12
ENDBRANCH   4  11
BRANCH   8  24
HETATM   24  C   UNL     1       8.755  29.573  57.379  1.00  0.00     0.066 A 
HETATM   25  O   UNL     1       9.638  30.042  58.308  1.00  0.00    -0.326 OA
HETATM   26  C   UNL     1      10.840  30.161  57.686  1.00  0.00     0.142 A 
HETATM   27  C   UNL     1      10.736  29.801  56.364  1.00  0.00     0.027 A 
HETATM   28  C   UNL     1       9.389  29.424  56.161  1.00  0.00     0.035 A 
ENDBRANCH   8  24
BRANCH   9  29
HETATM   29  C   UNL     1       6.685  31.672  58.920  1.00  0.00     0.255 C 
HETATM   30  N   UNL     1       5.655  31.698  59.836  1.00  0.00    -0.323 N 
HETATM   31  H   UNL     1       4.866  31.078  59.696  1.00  0.00     0.169 HD
HETATM   32  O   UNL     1       7.653  32.426  58.927  1.00  0.00    -0.268 OA
BRANCH  30  33
HETATM   33  C   UNL     1       5.547  32.511  60.986  1.00  0.00     0.035 A 
HETATM   34  C   UNL     1       6.436  32.471  62.063  1.00  0.00     0.045 A 
HETATM   35  C   UNL     1       6.248  33.301  63.184  1.00  0.00     0.050 A 
HETATM   36  C   UNL     1       5.158  34.182  63.207  1.00  0.00     0.016 A 
HETATM   37  C   UNL     1       4.269  34.230  62.137  1.00  0.00     0.003 A 
HETATM   38  C   UNL     1       4.461  33.394  61.037  1.00  0.00     0.029 A 
BRANCH  35  39
HETATM   39  C   UNL     1       7.184  33.236  64.366  1.00  0.00     0.417 C 
HETATM   40  F   UNL     1       6.557  33.083  65.565  1.00  0.00    -0.166 F 
HETATM   41  F   UNL     1       8.068  32.203  64.274  1.00  0.00    -0.166 F 
HETATM   42  F   UNL     1       7.942  34.361  64.484  1.00  0.00    -0.166 F 
ENDBRANCH  35  39
ENDBRANCH  30  33
ENDBRANCH   9  29
TORSDOF 9
ENDMDL
MODEL 3
REMARK VINA RESULT:     -10.6      4.935     10.865
REMARK  9 active torsions:
REMARK  status: ('A' for Active; 'I' for Inactive)
REMARK    1  A    between atoms: C_4  and  S_5 
REMARK    2  A    between atoms: S_5  and  C_6 
REMARK    3  A    between atoms: C_6  and  C_7 
REMARK       I    between atoms: C_7  and  N_8 
REMARK    4  A    between atoms: N_8  and  C_9 
REMARK    5  A    between atoms: C_9  and  C_10 
REMARK    6  A    between atoms: C_20  and  C_21 
REMARK    7  A    between atoms: C_26  and  C_27 
REMARK       I    between atoms: C_27  and  N_28 
REMARK    8  A    between atoms: N_28  and  C_29 
REMARK    9  A    between atoms: C_31  and  C_32 
ROOT
HETATM    1  C   UNL     1       8.740  26.919  57.389  1.00  0.00     0.069 C 
HETATM    2  C   UNL     1       7.492  27.671  56.993  1.00  0.00     0.019 C 
HETATM    3  N   UNL     1       7.433  28.995  57.416  1.00  0.00    -0.353 N 
HETATM    4  C   UNL     1       6.272  29.758  57.431  1.00  0.00     0.087 C 
HETATM    5  C   UNL     1       5.190  29.298  56.762  1.00  0.00     0.057 C 
HETATM    6  C   UNL     1       3.813  29.938  56.830  1.00  0.00     0.019 C 
HETATM    7  N   UNL     1       2.671  30.469  56.887  1.00  0.00    -0.096 N 
HETATM    8  C   UNL     1       5.287  28.036  55.902  1.00  0.00     0.129 C 
HETATM    9  C   UNL     1       6.466  27.146  56.281  1.00  0.00     0.048 C 
HETATM   10  H   UNL     1       8.100  29.243  58.145  1.00  0.00     0.166 HD
ENDROOT
BRANCH   4  11
HETATM   11  S   UNL     1       6.213  31.282  58.308  1.00  0.00    -0.102 SA
BRANCH  11  12
HETATM   12  C   UNL     1       8.000  31.592  58.467  1.00  0.00     0.183 C 
BRANCH  12  13
HETATM   13  C   UNL     1       8.530  31.658  59.888  1.00  0.00     0.227 C 
HETATM   14  N   UNL     1       7.936  30.868  60.837  1.00  0.00    -0.356 N 
HETATM   15  H   UNL     1       7.079  30.378  60.601  1.00  0.00     0.162 HD
HETATM   16  O   UNL     1       9.448  32.433  60.163  1.00  0.00    -0.273 OA
BRANCH  14  17
HETATM   17  C   UNL     1       8.308  30.992  62.230  1.00  0.00     0.161 C 
BRANCH  17  18
HETATM   18  C   UNL     1       7.390  31.895  63.008  1.00  0.00    -0.041 A 
HETATM   19  C   UNL     1       7.892  32.839  63.916  1.00  0.00     0.009 A 
HETATM   20  C   UNL     1       7.032  33.714  64.582  1.00  0.00     0.001 A 
HETATM   21  C   UNL     1       5.661  33.666  64.338  1.00  0.00     0.000 A 
HETATM   22  C   UNL     1       5.149  32.746  63.427  1.00  0.00     0.001 A 
HETATM   23  C   UNL     1       6.007  31.866  62.764  1.00  0.00     0.009 A 
ENDBRANCH  17  18
ENDBRANCH  14  17
ENDBRANCH  12  13
ENDBRANCH  11  12
ENDBRANCH   4  11
BRANCH   8  24
HETATM   24  C   UNL     1       5.306  28.400  54.435  1.00  0.00     0.066 A 
HETATM   25  O   UNL     1       4.113  28.767  53.885  1.00  0.00    -0.326 OA
HETATM   26  C   UNL     1       4.347  29.035  52.574  1.00  0.00     0.142 A 
HETATM   27  C   UNL     1       5.670  28.820  52.267  1.00  0.00     0.027 A 
HETATM   28  C   UNL     1       6.292  28.405  53.467  1.00  0.00     0.035 A 
ENDBRANCH   8  24
BRANCH   9  29
HETATM   29  C   UNL     1       6.407  25.671  55.986  1.00  0.00     0.255 C 
HETATM   30  N   UNL     1       7.454  25.173  55.240  1.00  0.00    -0.323 N 
HETATM   31  H   UNL     1       8.170  25.815  54.921  1.00  0.00     0.169 HD
HETATM   32  O   UNL     1       5.437  25.019  56.361  1.00  0.00    -0.268 OA
BRANCH  30  33
HETATM   33  C   UNL     1       7.666  23.835  54.841  1.00  0.00     0.035 A 
HETATM   34  C   UNL     1       8.038  22.805  55.709  1.00  0.00     0.045 A 
HETATM   35  C   UNL     1       8.250  21.499  55.230  1.00  0.00     0.050 A 
HETATM   36  C   UNL     1       8.075  21.235  53.864  1.00  0.00     0.016 A 
HETATM   37  C   UNL     1       7.702  22.255  52.993  1.00  0.00     0.003 A 
HETATM   38  C   UNL     1       7.506  23.548  53.479  1.00  0.00     0.029 A 
BRANCH  35  39
HETATM   39  C   UNL     1       8.686  20.391  56.157  1.00  0.00     0.417 C 
HETATM   40  F   UNL     1       8.051  19.206  55.944  1.00  0.00    -0.166 F 
HETATM   41  F   UNL     1      10.019  20.123  56.057  1.00  0.00    -0.166 F 
HETATM   42  F   UNL     1       8.469  20.700  57.466  1.00  0.00    -0.166 F 
ENDBRANCH  35  39
ENDBRANCH  30  33
ENDBRANCH   9  29
TORSDOF 9
ENDMDL
MODEL 4
REMARK VINA RESULT:     -10.3      2.510      3.805
REMARK  9 active torsions:
REMARK  status: ('A' for Active; 'I' for Inactive)
REMARK    1  A    between atoms: C_4  and  S_5 
REMARK    2  A    between atoms: S_5  and  C_6 
REMARK    3  A    between atoms: C_6  and  C_7 
REMARK       I    between atoms: C_7  and  N_8 
REMARK    4  A    between atoms: N_8  and  C_9 
REMARK    5  A    between atoms: C_9  and  C_10 
REMARK    6  A    between atoms: C_20  and  C_21 
REMARK    7  A    between atoms: C_26  and  C_27 
REMARK       I    between atoms: C_27  and  N_28 
REMARK    8  A    between atoms: N_28  and  C_29 
REMARK    9  A    between atoms: C_31  and  C_32 
ROOT
HETATM    1  C   UNL     1       5.051  32.796  57.554  1.00  0.00     0.069 C 
HETATM    2  C   UNL     1       5.678  31.426  57.448  1.00  0.00     0.019 C 
HETATM    3  N   UNL     1       5.159  30.608  56.449  1.00  0.00    -0.353 N 
HETATM    4  C   UNL     1       5.367  29.236  56.378  1.00  0.00     0.087 C 
HETATM    5  C   UNL     1       6.329  28.690  57.156  1.00  0.00     0.057 C 
HETATM    6  C   UNL     1       6.553  27.194  57.307  1.00  0.00     0.019 C 
HETATM    7  N   UNL     1       6.738  25.953  57.432  1.00  0.00    -0.096 N 
HETATM    8  C   UNL     1       7.253  29.580  57.990  1.00  0.00     0.129 C 
HETATM    9  C   UNL     1       6.674  30.968  58.244  1.00  0.00     0.048 C 
HETATM   10  H   UNL     1       4.265  30.911  56.067  1.00  0.00     0.166 HD
ENDROOT
BRANCH   4  11
HETATM   11  S   UNL     1       4.393  28.236  55.309  1.00  0.00    -0.102 SA
BRANCH  11  12
HETATM   12  C   UNL     1       5.532  28.136  53.892  1.00  0.00     0.183 C 
BRANCH  12  13
HETATM   13  C   UNL     1       5.325  26.949  52.968  1.00  0.00     0.227 C 
HETATM   14  N   UNL     1       5.496  27.140  51.621  1.00  0.00    -0.356 N 
HETATM   15  H   UNL     1       5.610  28.085  51.271  1.00  0.00     0.162 HD
HETATM   16  O   UNL     1       4.982  25.863  53.436  1.00  0.00    -0.273 OA
BRANCH  14  17
HETATM   17  C   UNL     1       5.178  26.083  50.687  1.00  0.00     0.161 C 
BRANCH  17  18
HETATM   18  C   UNL     1       4.487  26.579  49.445  1.00  0.00    -0.041 A 
HETATM   19  C   UNL     1       3.682  25.731  48.671  1.00  0.00     0.009 A 
HETATM   20  C   UNL     1       2.995  26.222  47.559  1.00  0.00     0.001 A 
HETATM   21  C   UNL     1       3.092  27.569  47.217  1.00  0.00     0.000 A 
HETATM   22  C   UNL     1       3.874  28.426  47.986  1.00  0.00     0.001 A 
HETATM   23  C   UNL     1       4.566  27.936  49.095  1.00  0.00     0.009 A 
ENDBRANCH  17  18
ENDBRANCH  14  17
ENDBRANCH  12  13
ENDBRANCH  11  12
ENDBRANCH   4  11
BRANCH   8  24
HETATM   24  C   UNL     1       8.625  29.650  57.361  1.00  0.00     0.066 A 
HETATM   25  O   UNL     1       9.656  29.989  58.188  1.00  0.00    -0.326 OA
HETATM   26  C   UNL     1      10.783  30.008  57.429  1.00  0.00     0.142 A 
HETATM   27  C   UNL     1      10.486  29.713  56.120  1.00  0.00     0.027 A 
HETATM   28  C   UNL     1       9.092  29.485  56.071  1.00  0.00     0.035 A 
ENDBRANCH   8  24
BRANCH   9  29
HETATM   29  C   UNL     1       7.113  31.745  59.456  1.00  0.00     0.255 C 
HETATM   30  N   UNL     1       6.370  31.533  60.598  1.00  0.00    -0.323 N 
HETATM   31  H   UNL     1       5.580  30.902  60.551  1.00  0.00     0.169 HD
HETATM   32  O   UNL     1       8.040  32.544  59.357  1.00  0.00    -0.268 OA
BRANCH  30  33
HETATM   33  C   UNL     1       6.572  32.106  61.873  1.00  0.00     0.035 A 
HETATM   34  C   UNL     1       5.571  32.731  62.622  1.00  0.00     0.045 A 
HETATM   35  C   UNL     1       5.856  33.295  63.878  1.00  0.00     0.050 A 
HETATM   36  C   UNL     1       7.163  33.218  64.382  1.00  0.00     0.016 A 
HETATM   37  C   UNL     1       8.165  32.595  63.644  1.00  0.00     0.003 A 
HETATM   38  C   UNL     1       7.871  32.048  62.394  1.00  0.00     0.029 A 
BRANCH  35  39
HETATM   39  C   UNL     1       4.788  34.003  64.674  1.00  0.00     0.417 C 
HETATM   40  F   UNL     1       3.596  34.119  64.026  1.00  0.00    -0.166 F 
HETATM   41  F   UNL     1       4.512  33.374  65.851  1.00  0.00    -0.166 F 
HETATM   42  F   UNL     1       5.153  35.272  65.011  1.00  0.00    -0.166 F 
ENDBRANCH  35  39
ENDBRANCH  30  33
ENDBRANCH   9  29
TORSDOF 9
ENDMDL
MODEL 5
REMARK VINA RESULT:      -9.9      4.902     11.063
REMARK  9 active torsions:
REMARK  status: ('A' for Active; 'I' for Inactive)
REMARK    1  A    between atoms: C_4  and  S_5 
REMARK    2  A    between atoms: S_5  and  C_6 
REMARK    3  A    between atoms: C_6  and  C_7 
REMARK       I    between atoms: C_7  and  N_8 
REMARK    4  A    between atoms: N_8  and  C_9 
REMARK    5  A    between atoms: C_9  and  C_10 
REMARK    6  A    between atoms: C_20  and  C_21 
REMARK    7  A    between atoms: C_26  and  C_27 
REMARK       I    between atoms: C_27  and  N_28 
REMARK    8  A    between atoms: N_28  and  C_29 
REMARK    9  A    between atoms: C_31  and  C_32 
ROOT
HETATM    1  C   UNL     1       8.527  27.599  57.126  1.00  0.00     0.069 C 
HETATM    2  C   UNL     1       7.250  28.240  56.635  1.00  0.00     0.019 C 
HETATM    3  N   UNL     1       7.119  29.597  56.911  1.00  0.00    -0.353 N 
HETATM    4  C   UNL     1       5.922  30.298  56.827  1.00  0.00     0.087 C 
HETATM    5  C   UNL     1       4.877  29.714  56.198  1.00  0.00     0.057 C 
HETATM    6  C   UNL     1       3.469  30.286  56.178  1.00  0.00     0.019 C 
HETATM    7  N   UNL     1       2.302  30.762  56.161  1.00  0.00    -0.096 N 
HETATM    8  C   UNL     1       5.051  28.374  55.481  1.00  0.00     0.129 C 
HETATM    9  C   UNL     1       6.265  27.590  55.970  1.00  0.00     0.048 C 
HETATM   10  H   UNL     1       7.760  29.956  57.617  1.00  0.00     0.166 HD
ENDROOT
BRANCH   4  11
HETATM   11  S   UNL     1       5.772  31.902  57.533  1.00  0.00    -0.102 SA
BRANCH  11  12
HETATM   12  C   UNL     1       4.879  31.462  59.059  1.00  0.00     0.183 C 
BRANCH  12  13
HETATM   13  C   UNL     1       4.513  32.625  59.962  1.00  0.00     0.227 C 
HETATM   14  N   UNL     1       5.530  33.349  60.530  1.00  0.00    -0.356 N 
HETATM   15  H   UNL     1       6.480  33.003  60.451  1.00  0.00     0.162 HD
HETATM   16  O   UNL     1       3.328  32.874  60.189  1.00  0.00    -0.273 OA
BRANCH  14  17
HETATM   17  C   UNL     1       5.239  34.377  61.505  1.00  0.00     0.161 C 
BRANCH  17  18
HETATM   18  C   UNL     1       5.956  34.172  62.812  1.00  0.00    -0.041 A 
HETATM   19  C   UNL     1       5.505  34.778  63.994  1.00  0.00     0.009 A 
HETATM   20  C   UNL     1       6.141  34.526  65.211  1.00  0.00     0.001 A 
HETATM   21  C   UNL     1       7.226  33.653  65.264  1.00  0.00     0.000 A 
HETATM   22  C   UNL     1       7.675  33.032  64.101  1.00  0.00     0.001 A 
HETATM   23  C   UNL     1       7.043  33.287  62.882  1.00  0.00     0.009 A 
ENDBRANCH  17  18
ENDBRANCH  14  17
ENDBRANCH  12  13
ENDBRANCH  11  12
ENDBRANCH   4  11
BRANCH   8  24
HETATM   24  C   UNL     1       5.080  28.578  53.984  1.00  0.00     0.066 A 
HETATM   25  O   UNL     1       6.259  28.298  53.356  1.00  0.00    -0.326 OA
HETATM   26  C   UNL     1       6.075  28.558  52.035  1.00  0.00     0.142 A 
HETATM   27  C   UNL     1       4.803  29.028  51.809  1.00  0.00     0.027 A 
HETATM   28  C   UNL     1       4.158  29.046  53.068  1.00  0.00     0.035 A 
ENDBRANCH   8  24
BRANCH   9  29
HETATM   29  C   UNL     1       6.284  26.091  55.836  1.00  0.00     0.255 C 
HETATM   30  N   UNL     1       7.159  25.590  54.896  1.00  0.00    -0.323 N 
HETATM   31  H   UNL     1       7.706  26.243  54.348  1.00  0.00     0.169 HD
HETATM   32  O   UNL     1       5.506  25.415  56.504  1.00  0.00    -0.268 OA
BRANCH  30  33
HETATM   33  C   UNL     1       7.400  24.234  54.581  1.00  0.00     0.035 A 
HETATM   34  C   UNL     1       7.557  23.222  55.530  1.00  0.00     0.045 A 
HETATM   35  C   UNL     1       7.815  21.896  55.136  1.00  0.00     0.050 A 
HETATM   36  C   UNL     1       7.905  21.596  53.769  1.00  0.00     0.016 A 
HETATM   37  C   UNL     1       7.747  22.598  52.816  1.00  0.00     0.003 A 
HETATM   38  C   UNL     1       7.502  23.910  53.222  1.00  0.00     0.029 A 
BRANCH  35  39
HETATM   39  C   UNL     1       8.022  20.806  56.158  1.00  0.00     0.417 C 
HETATM   40  F   UNL     1       6.932  20.014  56.355  1.00  0.00    -0.166 F 
HETATM   41  F   UNL     1       9.038  19.963  55.822  1.00  0.00    -0.166 F 
HETATM   42  F   UNL     1       8.345  21.305  57.383  1.00  0.00    -0.166 F 
ENDBRANCH  35  39
ENDBRANCH  30  33
ENDBRANCH   9  29
TORSDOF 9
ENDMDL
MODEL 6
REMARK VINA RESULT:      -9.9      2.356      4.382
REMARK  9 active torsions:
REMARK  status: ('A' for Active; 'I' for Inactive)
REMARK    1  A    between atoms: C_4  and  S_5 
REMARK    2  A    between atoms: S_5  and  C_6 
REMARK    3  A    between atoms: C_6  and  C_7 
REMARK       I    between atoms: C_7  and  N_8 
REMARK    4  A    between atoms: N_8  and  C_9 
REMARK    5  A    between atoms: C_9  and  C_10 
REMARK    6  A    between atoms: C_20  and  C_21 
REMARK    7  A    between atoms: C_26  and  C_27 
REMARK       I    between atoms: C_27  and  N_28 
REMARK    8  A    between atoms: N_28  and  C_29 
REMARK    9  A    between atoms: C_31  and  C_32 
ROOT
HETATM    1  C   UNL     1       7.043  26.152  57.393  1.00  0.00     0.069 C 
HETATM    2  C   UNL     1       6.514  26.993  56.255  1.00  0.00     0.019 C 
HETATM    3  N   UNL     1       5.706  26.323  55.343  1.00  0.00    -0.353 N 
HETATM    4  C   UNL     1       5.376  26.813  54.085  1.00  0.00     0.087 C 
HETATM    5  C   UNL     1       5.623  28.116  53.817  1.00  0.00     0.057 C 
HETATM    6  C   UNL     1       5.471  28.745  52.442  1.00  0.00     0.019 C 
HETATM    7  N   UNL     1       5.345  29.266  51.301  1.00  0.00    -0.096 N 
HETATM    8  C   UNL     1       6.129  29.053  54.916  1.00  0.00     0.129 C 
HETATM    9  C   UNL     1       6.776  28.311  56.081  1.00  0.00     0.048 C 
HETATM   10  H   UNL     1       5.758  25.306  55.389  1.00  0.00     0.166 HD
ENDROOT
BRANCH   4  11
HETATM   11  S   UNL     1       4.662  25.760  52.871  1.00  0.00    -0.102 SA
BRANCH  11  12
HETATM   12  C   UNL     1       6.111  25.545  51.789  1.00  0.00     0.183 C 
BRANCH  12  13
HETATM   13  C   UNL     1       7.396  25.142  52.488  1.00  0.00     0.227 C 
HETATM   14  N   UNL     1       7.335  24.153  53.435  1.00  0.00    -0.356 N 
HETATM   15  H   UNL     1       6.426  23.825  53.743  1.00  0.00     0.162 HD
HETATM   16  O   UNL     1       8.448  25.724  52.217  1.00  0.00    -0.273 OA
BRANCH  14  17
HETATM   17  C   UNL     1       8.500  23.826  54.227  1.00  0.00     0.161 C 
BRANCH  17  18
HETATM   18  C   UNL     1       8.436  22.450  54.834  1.00  0.00    -0.041 A 
HETATM   19  C   UNL     1       8.574  21.298  54.045  1.00  0.00     0.009 A 
HETATM   20  C   UNL     1       8.578  20.031  54.631  1.00  0.00     0.001 A 
HETATM   21  C   UNL     1       8.460  19.900  56.013  1.00  0.00     0.000 A 
HETATM   22  C   UNL     1       8.339  21.035  56.811  1.00  0.00     0.001 A 
HETATM   23  C   UNL     1       8.329  22.303  56.226  1.00  0.00     0.009 A 
ENDBRANCH  17  18
ENDBRANCH  14  17
ENDBRANCH  12  13
ENDBRANCH  11  12
ENDBRANCH   4  11
BRANCH   8  24
HETATM   24  C   UNL     1       5.019  29.968  55.379  1.00  0.00     0.066 A 
HETATM   25  O   UNL     1       5.396  31.197  55.837  1.00  0.00    -0.326 OA
HETATM   26  C   UNL     1       4.262  31.845  56.211  1.00  0.00     0.142 A 
HETATM   27  C   UNL     1       3.164  31.039  56.026  1.00  0.00     0.027 A 
HETATM   28  C   UNL     1       3.650  29.823  55.493  1.00  0.00     0.035 A 
ENDBRANCH   8  24
BRANCH   9  29
HETATM   29  C   UNL     1       7.803  29.012  56.930  1.00  0.00     0.255 C 
HETATM   30  N   UNL     1       7.299  29.887  57.869  1.00  0.00    -0.323 N 
HETATM   31  H   UNL     1       6.296  30.021  57.916  1.00  0.00     0.169 HD
HETATM   32  O   UNL     1       8.996  28.822  56.713  1.00  0.00    -0.268 OA
BRANCH  30  33
HETATM   33  C   UNL     1       8.025  30.653  58.807  1.00  0.00     0.035 A 
HETATM   34  C   UNL     1       7.523  31.061  60.046  1.00  0.00     0.045 A 
HETATM   35  C   UNL     1       8.303  31.841  60.919  1.00  0.00     0.050 A 
HETATM   36  C   UNL     1       9.603  32.203  60.535  1.00  0.00     0.016 A 
HETATM   37  C   UNL     1      10.111  31.799  59.304  1.00  0.00     0.003 A 
HETATM   38  C   UNL     1       9.322  31.035  58.443  1.00  0.00     0.029 A 
BRANCH  35  39
HETATM   39  C   UNL     1       7.754  32.315  62.242  1.00  0.00     0.417 C 
HETATM   40  F   UNL     1       6.897  31.437  62.834  1.00  0.00    -0.166 F 
HETATM   41  F   UNL     1       8.734  32.553  63.158  1.00  0.00    -0.166 F 
HETATM   42  F   UNL     1       7.066  33.484  62.124  1.00  0.00    -0.166 F 
ENDBRANCH  35  39
ENDBRANCH  30  33
ENDBRANCH   9  29
TORSDOF 9
ENDMDL
MODEL 7
REMARK VINA RESULT:      -9.7      5.399     11.108
REMARK  9 active torsions:
REMARK  status: ('A' for Active; 'I' for Inactive)
REMARK    1  A    between atoms: C_4  and  S_5 
REMARK    2  A    between atoms: S_5  and  C_6 
REMARK    3  A    between atoms: C_6  and  C_7 
REMARK       I    between atoms: C_7  and  N_8 
REMARK    4  A    between atoms: N_8  and  C_9 
REMARK    5  A    between atoms: C_9  and  C_10 
REMARK    6  A    between atoms: C_20  and  C_21 
REMARK    7  A    between atoms: C_26  and  C_27 
REMARK       I    between atoms: C_27  and  N_28 
REMARK    8  A    between atoms: N_28  and  C_29 
REMARK    9  A    between atoms: C_31  and  C_32 
ROOT
HETATM    1  C   UNL     1       4.123  30.419  57.731  1.00  0.00     0.069 C 
HETATM    2  C   UNL     1       5.538  29.937  57.515  1.00  0.00     0.019 C 
HETATM    3  N   UNL     1       6.457  30.334  58.481  1.00  0.00    -0.353 N 
HETATM    4  C   UNL     1       7.836  30.267  58.320  1.00  0.00     0.087 C 
HETATM    5  C   UNL     1       8.329  29.543  57.289  1.00  0.00     0.057 C 
HETATM    6  C   UNL     1       9.796  29.517  56.893  1.00  0.00     0.019 C 
HETATM    7  N   UNL     1      11.013  29.497  56.565  1.00  0.00    -0.096 N 
HETATM    8  C   UNL     1       7.396  28.710  56.407  1.00  0.00     0.129 C 
HETATM    9  C   UNL     1       5.944  29.174  56.472  1.00  0.00     0.048 C 
HETATM   10  H   UNL     1       6.148  31.097  59.081  1.00  0.00     0.166 HD
ENDROOT
BRANCH   4  11
HETATM   11  S   UNL     1       8.909  31.114  59.425  1.00  0.00    -0.102 SA
BRANCH  11  12
HETATM   12  C   UNL     1       7.661  31.938  60.464  1.00  0.00     0.183 C 
BRANCH  12  13
HETATM   13  C   UNL     1       7.927  31.907  61.957  1.00  0.00     0.227 C 
HETATM   14  N   UNL     1       7.502  32.969  62.713  1.00  0.00    -0.356 N 
HETATM   15  H   UNL     1       7.158  33.799  62.243  1.00  0.00     0.162 HD
HETATM   16  O   UNL     1       8.538  30.957  62.450  1.00  0.00    -0.273 OA
BRANCH  14  17
HETATM   17  C   UNL     1       7.850  33.054  64.115  1.00  0.00     0.161 C 
BRANCH  17  18
HETATM   18  C   UNL     1       6.689  33.445  64.990  1.00  0.00    -0.041 A 
HETATM   19  C   UNL     1       6.889  33.950  66.283  1.00  0.00     0.009 A 
HETATM   20  C   UNL     1       5.806  34.370  67.058  1.00  0.00     0.001 A 
HETATM   21  C   UNL     1       4.512  34.304  66.544  1.00  0.00     0.000 A 
HETATM   22  C   UNL     1       4.300  33.820  65.255  1.00  0.00     0.001 A 
HETATM   23  C   UNL     1       5.382  33.395  64.481  1.00  0.00     0.009 A 
ENDBRANCH  17  18
ENDBRANCH  14  17
ENDBRANCH  12  13
ENDBRANCH  11  12
ENDBRANCH   4  11
BRANCH   8  24
HETATM   24  C   UNL     1       7.532  27.242  56.736  1.00  0.00     0.066 A 
HETATM   25  O   UNL     1       7.855  26.936  58.027  1.00  0.00    -0.326 OA
HETATM   26  C   UNL     1       7.940  25.582  58.103  1.00  0.00     0.142 A 
HETATM   27  C   UNL     1       7.704  25.014  56.874  1.00  0.00     0.027 A 
HETATM   28  C   UNL     1       7.444  26.084  55.987  1.00  0.00     0.035 A 
ENDBRANCH   8  24
BRANCH   9  29
HETATM   29  C   UNL     1       5.025  28.900  55.312  1.00  0.00     0.255 C 
HETATM   30  N   UNL     1       5.364  29.520  54.128  1.00  0.00    -0.323 N 
HETATM   31  H   UNL     1       6.175  30.126  54.114  1.00  0.00     0.169 HD
HETATM   32  O   UNL     1       4.024  28.211  55.485  1.00  0.00    -0.268 OA
BRANCH  30  33
HETATM   33  C   UNL     1       4.700  29.422  52.885  1.00  0.00     0.035 A 
HETATM   34  C   UNL     1       4.966  28.441  51.927  1.00  0.00     0.045 A 
HETATM   35  C   UNL     1       4.274  28.422  50.702  1.00  0.00     0.050 A 
HETATM   36  C   UNL     1       3.301  29.401  50.452  1.00  0.00     0.016 A 
HETATM   37  C   UNL     1       3.029  30.381  51.402  1.00  0.00     0.003 A 
HETATM   38  C   UNL     1       3.730  30.394  52.608  1.00  0.00     0.029 A 
BRANCH  35  39
HETATM   39  C   UNL     1       4.583  27.386  49.649  1.00  0.00     0.417 C 
HETATM   40  F   UNL     1       5.375  27.839  48.639  1.00  0.00    -0.166 F 
HETATM   41  F   UNL     1       5.220  26.296  50.162  1.00  0.00    -0.166 F 
HETATM   42  F   UNL     1       3.456  26.908  49.052  1.00  0.00    -0.166 F 
ENDBRANCH  35  39
ENDBRANCH  30  33
ENDBRANCH   9  29
TORSDOF 9
ENDMDL
MODEL 8
REMARK VINA RESULT:      -9.5      5.151     11.008
REMARK  9 active torsions:
REMARK  status: ('A' for Active; 'I' for Inactive)
REMARK    1  A    between atoms: C_4  and  S_5 
REMARK    2  A    between atoms: S_5  and  C_6 
REMARK    3  A    between atoms: C_6  and  C_7 
REMARK       I    between atoms: C_7  and  N_8 
REMARK    4  A    between atoms: N_8  and  C_9 
REMARK    5  A    between atoms: C_9  and  C_10 
REMARK    6  A    between atoms: C_20  and  C_21 
REMARK    7  A    between atoms: C_26  and  C_27 
REMARK       I    between atoms: C_27  and  N_28 
REMARK    8  A    between atoms: N_28  and  C_29 
REMARK    9  A    between atoms: C_31  and  C_32 
ROOT
HETATM    1  C   UNL     1       3.765  29.821  56.678  1.00  0.00     0.069 C 
HETATM    2  C   UNL     1       5.218  29.412  56.729  1.00  0.00     0.019 C 
HETATM    3  N   UNL     1       5.905  29.791  57.876  1.00  0.00    -0.353 N 
HETATM    4  C   UNL     1       7.290  29.791  57.992  1.00  0.00     0.087 C 
HETATM    5  C   UNL     1       8.015  29.147  57.049  1.00  0.00     0.057 C 
HETATM    6  C   UNL     1       9.531  29.206  56.954  1.00  0.00     0.019 C 
HETATM    7  N   UNL     1      10.788  29.255  56.876  1.00  0.00    -0.096 N 
HETATM    8  C   UNL     1       7.320  28.328  55.959  1.00  0.00     0.129 C 
HETATM    9  C   UNL     1       5.862  28.726  55.753  1.00  0.00     0.048 C 
HETATM   10  H   UNL     1       5.444  30.505  58.438  1.00  0.00     0.166 HD
ENDROOT
BRANCH   4  11
HETATM   11  S   UNL     1       8.078  30.618  59.330  1.00  0.00    -0.102 SA
BRANCH  11  12
HETATM   12  C   UNL     1       7.158  32.189  59.278  1.00  0.00     0.183 C 
BRANCH  12  13
HETATM   13  C   UNL     1       5.977  32.287  60.226  1.00  0.00     0.227 C 
HETATM   14  N   UNL     1       6.222  32.616  61.534  1.00  0.00    -0.356 N 
HETATM   15  H   UNL     1       7.182  32.640  61.861  1.00  0.00     0.162 HD
HETATM   16  O   UNL     1       4.841  32.043  59.816  1.00  0.00    -0.273 OA
BRANCH  14  17
HETATM   17  C   UNL     1       5.153  32.589  62.508  1.00  0.00     0.161 C 
BRANCH  17  18
HETATM   18  C   UNL     1       5.581  33.067  63.869  1.00  0.00    -0.041 A 
HETATM   19  C   UNL     1       6.936  33.234  64.191  1.00  0.00     0.009 A 
HETATM   20  C   UNL     1       7.314  33.741  65.436  1.00  0.00     0.001 A 
HETATM   21  C   UNL     1       6.344  34.102  66.368  1.00  0.00     0.000 A 
HETATM   22  C   UNL     1       4.994  33.958  66.056  1.00  0.00     0.001 A 
HETATM   23  C   UNL     1       4.614  33.446  64.814  1.00  0.00     0.009 A 
ENDBRANCH  17  18
ENDBRANCH  14  17
ENDBRANCH  12  13
ENDBRANCH  11  12
ENDBRANCH   4  11
BRANCH   8  24
HETATM   24  C   UNL     1       7.465  26.850  56.239  1.00  0.00     0.066 A 
HETATM   25  O   UNL     1       7.588  26.036  55.150  1.00  0.00    -0.326 OA
HETATM   26  C   UNL     1       7.691  24.764  55.618  1.00  0.00     0.142 A 
HETATM   27  C   UNL     1       7.607  24.747  56.990  1.00  0.00     0.027 A 
HETATM   28  C   UNL     1       7.456  26.093  57.394  1.00  0.00     0.035 A 
ENDBRANCH   8  24
BRANCH   9  29
HETATM   29  C   UNL     1       5.206  28.481  54.421  1.00  0.00     0.255 C 
HETATM   30  N   UNL     1       6.030  28.608  53.322  1.00  0.00    -0.323 N 
HETATM   31  H   UNL     1       6.995  28.876  53.470  1.00  0.00     0.169 HD
HETATM   32  O   UNL     1       4.002  28.245  54.374  1.00  0.00    -0.268 OA
BRANCH  30  33
HETATM   33  C   UNL     1       5.690  28.412  51.965  1.00  0.00     0.035 A 
HETATM   34  C   UNL     1       5.530  29.445  51.038  1.00  0.00     0.045 A 
HETATM   35  C   UNL     1       5.171  29.168  49.706  1.00  0.00     0.050 A 
HETATM   36  C   UNL     1       4.980  27.836  49.311  1.00  0.00     0.016 A 
HETATM   37  C   UNL     1       5.140  26.801  50.229  1.00  0.00     0.003 A 
HETATM   38  C   UNL     1       5.487  27.091  51.549  1.00  0.00     0.029 A 
BRANCH  35  39
HETATM   39  C   UNL     1       4.961  30.282  48.709  1.00  0.00     0.417 C 
HETATM   40  F   UNL     1       5.050  29.888  47.408  1.00  0.00    -0.166 F 
HETATM   41  F   UNL     1       3.740  30.873  48.837  1.00  0.00    -0.166 F 
HETATM   42  F   UNL     1       5.873  31.283  48.857  1.00  0.00    -0.166 F 
ENDBRANCH  35  39
ENDBRANCH  30  33
ENDBRANCH   9  29
TORSDOF 9
ENDMDL
MODEL 9
REMARK VINA RESULT:      -9.5      6.463      9.904
REMARK  9 active torsions:
REMARK  status: ('A' for Active; 'I' for Inactive)
REMARK    1  A    between atoms: C_4  and  S_5 
REMARK    2  A    between atoms: S_5  and  C_6 
REMARK    3  A    between atoms: C_6  and  C_7 
REMARK       I    between atoms: C_7  and  N_8 
REMARK    4  A    between atoms: N_8  and  C_9 
REMARK    5  A    between atoms: C_9  and  C_10 
REMARK    6  A    between atoms: C_20  and  C_21 
REMARK    7  A    between atoms: C_26  and  C_27 
REMARK       I    between atoms: C_27  and  N_28 
REMARK    8  A    between atoms: N_28  and  C_29 
REMARK    9  A    between atoms: C_31  and  C_32 
ROOT
HETATM    1  C   UNL     1       6.643  27.722  52.865  1.00  0.00     0.069 C 
HETATM    2  C   UNL     1       5.987  28.612  53.894  1.00  0.00     0.019 C 
HETATM    3  N   UNL     1       6.770  28.924  55.000  1.00  0.00    -0.353 N 
HETATM    4  C   UNL     1       6.273  29.458  56.183  1.00  0.00     0.087 C 
HETATM    5  C   UNL     1       5.013  29.949  56.188  1.00  0.00     0.057 C 
HETATM    6  C   UNL     1       4.283  30.406  57.440  1.00  0.00     0.019 C 
HETATM    7  N   UNL     1       3.679  30.784  58.480  1.00  0.00    -0.096 N 
HETATM    8  C   UNL     1       4.208  30.037  54.890  1.00  0.00     0.129 C 
HETATM    9  C   UNL     1       4.726  29.101  53.803  1.00  0.00     0.048 C 
HETATM   10  H   UNL     1       7.591  28.333  55.126  1.00  0.00     0.166 HD
ENDROOT
BRANCH   4  11
HETATM   11  S   UNL     1       7.259  29.482  57.639  1.00  0.00    -0.102 SA
BRANCH  11  12
HETATM   12  C   UNL     1       8.439  28.163  57.209  1.00  0.00     0.183 C 
BRANCH  12  13
HETATM   13  C   UNL     1       7.921  26.745  57.361  1.00  0.00     0.227 C 
HETATM   14  N   UNL     1       7.564  26.062  56.227  1.00  0.00    -0.356 N 
HETATM   15  H   UNL     1       7.519  26.563  55.346  1.00  0.00     0.162 HD
HETATM   16  O   UNL     1       7.802  26.254  58.484  1.00  0.00    -0.273 OA
BRANCH  14  17
HETATM   17  C   UNL     1       6.937  24.762  56.323  1.00  0.00     0.161 C 
BRANCH  17  18
HETATM   18  C   UNL     1       7.345  23.825  55.219  1.00  0.00    -0.041 A 
HETATM   19  C   UNL     1       7.571  22.463  55.465  1.00  0.00     0.009 A 
HETATM   20  C   UNL     1       7.885  21.593  54.419  1.00  0.00     0.001 A 
HETATM   21  C   UNL     1       7.961  22.071  53.112  1.00  0.00     0.000 A 
HETATM   22  C   UNL     1       7.722  23.418  52.850  1.00  0.00     0.001 A 
HETATM   23  C   UNL     1       7.413  24.290  53.896  1.00  0.00     0.009 A 
ENDBRANCH  17  18
ENDBRANCH  14  17
ENDBRANCH  12  13
ENDBRANCH  11  12
ENDBRANCH   4  11
BRANCH   8  24
HETATM   24  C   UNL     1       4.135  31.468  54.411  1.00  0.00     0.066 A 
HETATM   25  O   UNL     1       4.999  32.348  54.996  1.00  0.00    -0.326 OA
HETATM   26  C   UNL     1       4.762  33.564  54.439  1.00  0.00     0.142 A 
HETATM   27  C   UNL     1       3.739  33.484  53.523  1.00  0.00     0.027 A 
HETATM   28  C   UNL     1       3.329  32.131  53.506  1.00  0.00     0.035 A 
ENDBRANCH   8  24
BRANCH   9  29
HETATM   29  C   UNL     1       3.789  28.620  52.727  1.00  0.00     0.255 C 
HETATM   30  N   UNL     1       4.115  29.001  51.443  1.00  0.00    -0.323 N 
HETATM   31  H   UNL     1       4.930  29.586  51.303  1.00  0.00     0.169 HD
HETATM   32  O   UNL     1       2.786  27.986  53.041  1.00  0.00    -0.268 OA
BRANCH  30  33
HETATM   33  C   UNL     1       3.433  28.674  50.250  1.00  0.00     0.035 A 
HETATM   34  C   UNL     1       3.605  27.478  49.548  1.00  0.00     0.045 A 
HETATM   35  C   UNL     1       2.902  27.236  48.354  1.00  0.00     0.050 A 
HETATM   36  C   UNL     1       2.013  28.209  47.873  1.00  0.00     0.016 A 
HETATM   37  C   UNL     1       1.834  29.402  48.568  1.00  0.00     0.003 A 
HETATM   38  C   UNL     1       2.546  29.634  49.746  1.00  0.00     0.029 A 
BRANCH  35  39
HETATM   39  C   UNL     1       3.110  25.962  47.572  1.00  0.00     0.417 C 
HETATM   40  F   UNL     1       2.718  24.836  48.230  1.00  0.00    -0.166 F 
HETATM   41  F   UNL     1       2.432  25.958  46.391  1.00  0.00    -0.166 F 
HETATM   42  F   UNL     1       4.419  25.766  47.248  1.00  0.00    -0.166 F 
ENDBRANCH  35  39
ENDBRANCH  30  33
ENDBRANCH   9  29
TORSDOF 9
ENDMDL
MODEL 10
REMARK VINA RESULT:      -9.4      3.070      4.855
REMARK  9 active torsions:
REMARK  status: ('A' for Active; 'I' for Inactive)
REMARK    1  A    between atoms: C_4  and  S_5 
REMARK    2  A    between atoms: S_5  and  C_6 
REMARK    3  A    between atoms: C_6  and  C_7 
REMARK       I    between atoms: C_7  and  N_8 
REMARK    4  A    between atoms: N_8  and  C_9 
REMARK    5  A    between atoms: C_9  and  C_10 
REMARK    6  A    between atoms: C_20  and  C_21 
REMARK    7  A    between atoms: C_26  and  C_27 
REMARK       I    between atoms: C_27  and  N_28 
REMARK    8  A    between atoms: N_28  and  C_29 
REMARK    9  A    between atoms: C_31  and  C_32 
ROOT
HETATM    1  C   UNL     1       5.432  26.965  57.027  1.00  0.00     0.069 C 
HETATM    2  C   UNL     1       5.299  27.759  55.749  1.00  0.00     0.019 C 
HETATM    3  N   UNL     1       4.731  27.075  54.678  1.00  0.00    -0.353 N 
HETATM    4  C   UNL     1       4.798  27.502  53.358  1.00  0.00     0.087 C 
HETATM    5  C   UNL     1       5.201  28.769  53.110  1.00  0.00     0.057 C 
HETATM    6  C   UNL     1       5.480  29.315  51.719  1.00  0.00     0.019 C 
HETATM    7  N   UNL     1       5.712  29.768  50.566  1.00  0.00    -0.096 N 
HETATM    8  C   UNL     1       5.446  29.746  54.261  1.00  0.00     0.129 C 
HETATM    9  C   UNL     1       5.691  29.046  55.594  1.00  0.00     0.048 C 
HETATM   10  H   UNL     1       4.697  26.063  54.785  1.00  0.00     0.166 HD
ENDROOT
BRANCH   4  11
HETATM   11  S   UNL     1       4.377  26.412  52.042  1.00  0.00    -0.102 SA
BRANCH  11  12
HETATM   12  C   UNL     1       6.048  25.844  51.594  1.00  0.00     0.183 C 
BRANCH  12  13
HETATM   13  C   UNL     1       6.900  25.343  52.746  1.00  0.00     0.227 C 
HETATM   14  N   UNL     1       6.442  24.274  53.473  1.00  0.00    -0.356 N 
HETATM   15  H   UNL     1       5.495  23.946  53.318  1.00  0.00     0.162 HD
HETATM   16  O   UNL     1       7.955  25.916  53.020  1.00  0.00    -0.273 OA
BRANCH  14  17
HETATM   17  C   UNL     1       7.144  23.845  54.662  1.00  0.00     0.161 C 
BRANCH  17  18
HETATM   18  C   UNL     1       7.742  22.470  54.532  1.00  0.00    -0.041 A 
HETATM   19  C   UNL     1       7.849  21.614  55.638  1.00  0.00     0.009 A 
HETATM   20  C   UNL     1       8.345  20.317  55.488  1.00  0.00     0.001 A 
HETATM   21  C   UNL     1       8.725  19.856  54.230  1.00  0.00     0.000 A 
HETATM   22  C   UNL     1       8.609  20.689  53.120  1.00  0.00     0.001 A 
HETATM   23  C   UNL     1       8.118  21.988  53.268  1.00  0.00     0.009 A 
ENDBRANCH  17  18
ENDBRANCH  14  17
ENDBRANCH  12  13
ENDBRANCH  11  12
ENDBRANCH   4  11
BRANCH   8  24
HETATM   24  C   UNL     1       4.318  30.747  54.351  1.00  0.00     0.066 A 
HETATM   25  O   UNL     1       4.448  31.726  55.294  1.00  0.00    -0.326 OA
HETATM   26  C   UNL     1       3.334  32.500  55.217  1.00  0.00     0.142 A 
HETATM   27  C   UNL     1       2.478  32.017  54.256  1.00  0.00     0.027 A 
HETATM   28  C   UNL     1       3.108  30.882  53.698  1.00  0.00     0.035 A 
ENDBRANCH   8  24
BRANCH   9  29
HETATM   29  C   UNL     1       6.488  29.744  56.663  1.00  0.00     0.255 C 
HETATM   30  N   UNL     1       5.751  30.472  57.573  1.00  0.00    -0.323 N 
HETATM   31  H   UNL     1       4.746  30.514  57.459  1.00  0.00     0.169 HD
HETATM   32  O   UNL     1       7.714  29.681  56.640  1.00  0.00    -0.268 OA
BRANCH  30  33
HETATM   33  C   UNL     1       6.232  31.199  58.684  1.00  0.00     0.035 A 
HETATM   34  C   UNL     1       7.512  31.053  59.225  1.00  0.00     0.045 A 
HETATM   35  C   UNL     1       7.910  31.802  60.348  1.00  0.00     0.050 A 
HETATM   36  C   UNL     1       7.006  32.709  60.920  1.00  0.00     0.016 A 
HETATM   37  C   UNL     1       5.731  32.862  60.386  1.00  0.00     0.003 A 
HETATM   38  C   UNL     1       5.345  32.105  59.279  1.00  0.00     0.029 A 
BRANCH  35  39
HETATM   39  C   UNL     1       9.279  31.622  60.958  1.00  0.00     0.417 C 
HETATM   40  F   UNL     1       9.600  30.327  61.231  1.00  0.00    -0.166 F 
HETATM   41  F   UNL     1      10.273  32.091  60.154  1.00  0.00    -0.166 F 
HETATM   42  F   UNL     1       9.408  32.293  62.136  1.00  0.00    -0.166 F 
ENDBRANCH  35  39
ENDBRANCH  30  33
ENDBRANCH   9  29
TORSDOF 9
ENDMDL
