MODEL 1
REMARK VINA RESULT:     -11.7      0.000      0.000
REMARK  8 active torsions:
REMARK  status: ('A' for Active; 'I' for Inactive)
REMARK    1  A    between atoms: C_6  and  S_7 
REMARK    2  A    between atoms: S_7  and  C_8 
REMARK    3  A    between atoms: C_8  and  C_9 
REMARK       I    between atoms: C_9  and  N_10 
REMARK    4  A    between atoms: N_10  and  C_11 
REMARK    5  A    between atoms: C_24  and  C_25 
REMARK    6  A    between atoms: C_25  and  C_26 
REMARK       I    between atoms: C_26  and  N_27 
REMARK    7  A    between atoms: N_27  and  C_28 
REMARK    8  A    between atoms: C_28  and  C_29 
ROOT
HETATM    1  C   UNL     1       4.009  33.206  56.712  1.00  0.00     0.001 A 
HETATM    2  C   UNL     1       5.034  32.535  57.380  1.00  0.00     0.018 A 
HETATM    3  C   UNL     1       5.465  31.298  56.900  1.00  0.00     0.039 A 
HETATM    4  C   UNL     1       4.893  30.726  55.758  1.00  0.00     0.073 A 
HETATM    5  N   UNL     1       5.364  29.528  55.207  1.00  0.00    -0.223 NA
HETATM    6  C   UNL     1       6.323  28.911  55.813  1.00  0.00     0.178 C 
HETATM    7  N   UNL     1       6.852  29.322  57.027  1.00  0.00    -0.241 N 
HETATM    8  C   UNL     1       6.518  30.524  57.566  1.00  0.00     0.147 A 
HETATM    9  N   UNL     1       7.161  30.905  58.631  1.00  0.00    -0.256 NA
HETATM   10  C   UNL     1       7.795  28.744  57.844  1.00  0.00     0.257 A 
HETATM   11  O   UNL     1       8.349  27.659  57.770  1.00  0.00    -0.270 OA
HETATM   12  C   UNL     1       8.059  29.754  58.943  1.00  0.00     0.211 A 
HETATM   13  C   UNL     1       3.865  31.404  55.104  1.00  0.00     0.032 A 
HETATM   14  C   UNL     1       3.421  32.638  55.580  1.00  0.00     0.002 A 
ENDROOT
BRANCH  12  15
HETATM   15  C   UNL     1       9.530  30.162  59.015  1.00  0.00     0.140 C 
BRANCH  15  16
HETATM   16  C   UNL     1       9.713  31.656  59.224  1.00  0.00     0.220 C 
HETATM   17  N   UNL     1       9.445  32.214  60.432  1.00  0.00    -0.357 N 
HETATM   18  H   UNL     1       9.639  33.207  60.480  1.00  0.00     0.162 HD
HETATM   19  O   UNL     1      10.099  32.397  58.316  1.00  0.00    -0.274 OA
BRANCH  17  20
HETATM   20  C   UNL     1       9.139  31.543  61.679  1.00  0.00     0.161 C 
BRANCH  20  21
HETATM   21  C   UNL     1       7.958  32.182  62.365  1.00  0.00    -0.038 A 
HETATM   22  C   UNL     1       6.725  32.285  61.699  1.00  0.00     0.048 A 
HETATM   23  C   UNL     1       5.668  32.866  62.370  1.00  0.00     0.105 A 
HETATM   24  C   UNL     1       5.793  33.333  63.656  1.00  0.00     0.105 A 
HETATM   25  O   UNL     1       4.416  33.047  61.872  1.00  0.00    -0.323 OA
HETATM   26  O   UNL     1       4.634  33.863  64.131  1.00  0.00    -0.323 OA
HETATM   27  C   UNL     1       6.983  33.248  64.345  1.00  0.00     0.040 A 
HETATM   28  C   UNL     1       3.768  33.687  62.991  1.00  0.00     0.352 A 
HETATM   29  C   UNL     1       8.076  32.672  63.688  1.00  0.00     0.012 A 
ENDBRANCH  20  21
ENDBRANCH  17  20
ENDBRANCH  15  16
ENDBRANCH  12  15
BRANCH   6  30
HETATM   30  S   UNL     1       7.048  27.563  54.981  1.00  0.00    -0.082 SA
BRANCH  30  31
HETATM   31  C   UNL     1       5.896  26.262  55.536  1.00  0.00     0.185 C 
BRANCH  31  32
HETATM   32  C   UNL     1       6.023  24.978  54.713  1.00  0.00     0.232 C 
HETATM   33  N   UNL     1       7.032  24.138  55.169  1.00  0.00    -0.324 N 
HETATM   34  H   UNL     1       7.556  24.451  55.989  1.00  0.00     0.169 HD
HETATM   35  O   UNL     1       5.287  24.790  53.751  1.00  0.00    -0.272 OA
BRANCH  33  36
HETATM   36  C   UNL     1       7.477  22.902  54.631  1.00  0.00     0.073 A 
HETATM   37  C   UNL     1       7.874  22.655  53.313  1.00  0.00     0.143 A 
HETATM   38  F   UNL     1       7.834  23.592  52.360  1.00  0.00    -0.204 F 
HETATM   39  C   UNL     1       8.297  21.384  52.912  1.00  0.00     0.044 A 
HETATM   40  C   UNL     1       8.331  20.329  53.820  1.00  0.00     0.003 A 
HETATM   41  C   UNL     1       7.938  20.550  55.134  1.00  0.00     0.002 A 
HETATM   42  C   UNL     1       7.514  21.823  55.533  1.00  0.00     0.033 A 
ENDBRANCH  33  36
ENDBRANCH  31  32
ENDBRANCH  30  31
ENDBRANCH   6  30
TORSDOF 8
ENDMDL
MODEL 2
REMARK VINA RESULT:     -11.4      3.243     10.497
REMARK  8 active torsions:
REMARK  status: ('A' for Active; 'I' for Inactive)
REMARK    1  A    between atoms: C_6  and  S_7 
REMARK    2  A    between atoms: S_7  and  C_8 
REMARK    3  A    between atoms: C_8  and  C_9 
REMARK       I    between atoms: C_9  and  N_10 
REMARK    4  A    between atoms: N_10  and  C_11 
REMARK    5  A    between atoms: C_24  and  C_25 
REMARK    6  A    between atoms: C_25  and  C_26 
REMARK       I    between atoms: C_26  and  N_27 
REMARK    7  A    between atoms: N_27  and  C_28 
REMARK    8  A    between atoms: C_28  and  C_29 
ROOT
HETATM    1  C   UNL     1      11.136  30.131  57.343  1.00  0.00     0.001 A 
HETATM    2  C   UNL     1      10.203  29.374  56.635  1.00  0.00     0.018 A 
HETATM    3  C   UNL     1       8.845  29.534  56.911  1.00  0.00     0.039 A 
HETATM    4  C   UNL     1       8.405  30.446  57.878  1.00  0.00     0.073 A 
HETATM    5  N   UNL     1       7.047  30.686  58.115  1.00  0.00    -0.223 NA
HETATM    6  C   UNL     1       6.178  29.999  57.451  1.00  0.00     0.178 C 
HETATM    7  N   UNL     1       6.517  28.972  56.583  1.00  0.00    -0.241 N 
HETATM    8  C   UNL     1       7.809  28.752  56.227  1.00  0.00     0.147 A 
HETATM    9  N   UNL     1       8.036  27.868  55.299  1.00  0.00    -0.256 NA
HETATM   10  C   UNL     1       5.732  28.090  55.877  1.00  0.00     0.257 A 
HETATM   11  O   UNL     1       4.525  27.908  55.903  1.00  0.00    -0.270 OA
HETATM   12  C   UNL     1       6.684  27.317  54.986  1.00  0.00     0.211 A 
HETATM   13  C   UNL     1       9.349  31.192  58.583  1.00  0.00     0.032 A 
HETATM   14  C   UNL     1      10.711  31.034  58.319  1.00  0.00     0.002 A 
ENDROOT
BRANCH  12  15
HETATM   15  C   UNL     1       6.328  27.447  53.506  1.00  0.00     0.140 C 
BRANCH  15  16
HETATM   16  C   UNL     1       5.510  26.274  52.994  1.00  0.00     0.220 C 
HETATM   17  N   UNL     1       6.130  25.162  52.525  1.00  0.00    -0.357 N 
HETATM   18  H   UNL     1       5.496  24.421  52.247  1.00  0.00     0.162 HD
HETATM   19  O   UNL     1       4.276  26.297  52.983  1.00  0.00    -0.274 OA
BRANCH  17  20
HETATM   20  C   UNL     1       7.540  24.833  52.581  1.00  0.00     0.161 C 
BRANCH  20  21
HETATM   21  C   UNL     1       7.778  23.601  53.416  1.00  0.00    -0.038 A 
HETATM   22  C   UNL     1       7.918  23.709  54.810  1.00  0.00     0.048 A 
HETATM   23  C   UNL     1       8.122  22.554  55.537  1.00  0.00     0.105 A 
HETATM   24  C   UNL     1       8.184  21.320  54.936  1.00  0.00     0.105 A 
HETATM   25  O   UNL     1       8.280  22.482  56.885  1.00  0.00    -0.323 OA
HETATM   26  O   UNL     1       8.386  20.315  55.830  1.00  0.00    -0.323 OA
HETATM   27  C   UNL     1       8.049  21.170  53.573  1.00  0.00     0.040 A 
HETATM   28  C   UNL     1       8.456  21.062  57.063  1.00  0.00     0.352 A 
HETATM   29  C   UNL     1       7.850  22.324  52.808  1.00  0.00     0.012 A 
ENDBRANCH  20  21
ENDBRANCH  17  20
ENDBRANCH  15  16
ENDBRANCH  12  15
BRANCH   6  30
HETATM   30  S   UNL     1       4.512  30.486  57.586  1.00  0.00    -0.082 SA
BRANCH  30  31
HETATM   31  C   UNL     1       4.784  32.219  58.088  1.00  0.00     0.185 C 
BRANCH  31  32
HETATM   32  C   UNL     1       4.853  32.384  59.607  1.00  0.00     0.232 C 
HETATM   33  N   UNL     1       6.119  32.735  60.059  1.00  0.00    -0.324 N 
HETATM   34  H   UNL     1       6.845  32.855  59.349  1.00  0.00     0.169 HD
HETATM   35  O   UNL     1       3.855  32.191  60.292  1.00  0.00    -0.272 OA
BRANCH  33  36
HETATM   36  C   UNL     1       6.574  32.918  61.391  1.00  0.00     0.073 A 
HETATM   37  C   UNL     1       6.122  33.871  62.309  1.00  0.00     0.143 A 
HETATM   38  F   UNL     1       5.197  34.786  62.002  1.00  0.00    -0.204 F 
HETATM   39  C   UNL     1       6.657  33.943  63.600  1.00  0.00     0.044 A 
HETATM   40  C   UNL     1       7.657  33.062  64.002  1.00  0.00     0.003 A 
HETATM   41  C   UNL     1       8.125  32.109  63.106  1.00  0.00     0.002 A 
HETATM   42  C   UNL     1       7.590  32.040  61.815  1.00  0.00     0.033 A 
ENDBRANCH  33  36
ENDBRANCH  31  32
ENDBRANCH  30  31
ENDBRANCH   6  30
TORSDOF 8
ENDMDL
MODEL 3
REMARK VINA RESULT:     -11.2      2.122      3.677
REMARK  8 active torsions:
REMARK  status: ('A' for Active; 'I' for Inactive)
REMARK    1  A    between atoms: C_6  and  S_7 
REMARK    2  A    between atoms: S_7  and  C_8 
REMARK    3  A    between atoms: C_8  and  C_9 
REMARK       I    between atoms: C_9  and  N_10 
REMARK    4  A    between atoms: N_10  and  C_11 
REMARK    5  A    between atoms: C_24  and  C_25 
REMARK    6  A    between atoms: C_25  and  C_26 
REMARK       I    between atoms: C_26  and  N_27 
REMARK    7  A    between atoms: N_27  and  C_28 
REMARK    8  A    between atoms: C_28  and  C_29 
ROOT
HETATM    1  C   UNL     1      10.241  31.336  58.462  1.00  0.00     0.001 A 
HETATM    2  C   UNL     1       8.862  31.536  58.532  1.00  0.00     0.018 A 
HETATM    3  C   UNL     1       8.009  30.632  57.898  1.00  0.00     0.039 A 
HETATM    4  C   UNL     1       8.513  29.527  57.204  1.00  0.00     0.073 A 
HETATM    5  N   UNL     1       7.678  28.560  56.631  1.00  0.00    -0.223 NA
HETATM    6  C   UNL     1       6.400  28.732  56.707  1.00  0.00     0.178 C 
HETATM    7  N   UNL     1       5.811  29.867  57.244  1.00  0.00    -0.241 N 
HETATM    8  C   UNL     1       6.551  30.795  57.906  1.00  0.00     0.147 A 
HETATM    9  N   UNL     1       5.913  31.756  58.506  1.00  0.00    -0.256 NA
HETATM   10  C   UNL     1       4.493  30.252  57.319  1.00  0.00     0.257 A 
HETATM   11  O   UNL     1       3.491  29.743  56.842  1.00  0.00    -0.270 OA
HETATM   12  C   UNL     1       4.481  31.513  58.159  1.00  0.00     0.211 A 
HETATM   13  C   UNL     1       9.894  29.342  57.136  1.00  0.00     0.032 A 
HETATM   14  C   UNL     1      10.756  30.244  57.760  1.00  0.00     0.002 A 
ENDROOT
BRANCH  12  15
HETATM   15  C   UNL     1       3.595  31.378  59.397  1.00  0.00     0.140 C 
BRANCH  15  16
HETATM   16  C   UNL     1       3.400  32.697  60.125  1.00  0.00     0.220 C 
HETATM   17  N   UNL     1       4.204  33.026  61.168  1.00  0.00    -0.357 N 
HETATM   18  H   UNL     1       4.020  33.943  61.558  1.00  0.00     0.162 HD
HETATM   19  O   UNL     1       2.515  33.493  59.802  1.00  0.00    -0.274 OA
BRANCH  17  20
HETATM   20  C   UNL     1       5.396  32.343  61.628  1.00  0.00     0.161 C 
BRANCH  20  21
HETATM   21  C   UNL     1       5.811  32.834  62.992  1.00  0.00    -0.038 A 
HETATM   22  C   UNL     1       4.839  33.124  63.964  1.00  0.00     0.048 A 
HETATM   23  C   UNL     1       5.265  33.557  65.203  1.00  0.00     0.105 A 
HETATM   24  C   UNL     1       6.598  33.704  65.503  1.00  0.00     0.105 A 
HETATM   25  O   UNL     1       4.460  33.883  66.249  1.00  0.00    -0.323 OA
HETATM   26  O   UNL     1       6.800  34.136  66.776  1.00  0.00    -0.323 OA
HETATM   27  C   UNL     1       7.582  33.427  64.579  1.00  0.00     0.040 A 
HETATM   28  C   UNL     1       5.439  34.258  67.240  1.00  0.00     0.352 A 
HETATM   29  C   UNL     1       7.182  32.994  63.311  1.00  0.00     0.012 A 
ENDBRANCH  20  21
ENDBRANCH  17  20
ENDBRANCH  15  16
ENDBRANCH  12  15
BRANCH   6  30
HETATM   30  S   UNL     1       5.391  27.404  56.207  1.00  0.00    -0.082 SA
BRANCH  30  31
HETATM   31  C   UNL     1       6.334  26.900  54.728  1.00  0.00     0.185 C 
BRANCH  31  32
HETATM   32  C   UNL     1       6.174  25.411  54.412  1.00  0.00     0.232 C 
HETATM   33  N   UNL     1       7.330  24.678  54.650  1.00  0.00    -0.324 N 
HETATM   34  H   UNL     1       8.136  25.193  55.012  1.00  0.00     0.169 HD
HETATM   35  O   UNL     1       5.109  24.986  53.978  1.00  0.00    -0.272 OA
BRANCH  33  36
HETATM   36  C   UNL     1       7.576  23.299  54.423  1.00  0.00     0.073 A 
HETATM   37  C   UNL     1       7.854  22.687  53.197  1.00  0.00     0.143 A 
HETATM   38  F   UNL     1       7.877  23.361  52.043  1.00  0.00    -0.204 F 
HETATM   39  C   UNL     1       8.082  21.309  53.112  1.00  0.00     0.044 A 
HETATM   40  C   UNL     1       8.035  20.512  54.252  1.00  0.00     0.003 A 
HETATM   41  C   UNL     1       7.757  21.097  55.481  1.00  0.00     0.002 A 
HETATM   42  C   UNL     1       7.528  22.475  55.564  1.00  0.00     0.033 A 
ENDBRANCH  33  36
ENDBRANCH  31  32
ENDBRANCH  30  31
ENDBRANCH   6  30
TORSDOF 8
ENDMDL
MODEL 4
REMARK VINA RESULT:     -11.0      2.317      4.758
REMARK  8 active torsions:
REMARK  status: ('A' for Active; 'I' for Inactive)
REMARK    1  A    between atoms: C_6  and  S_7 
REMARK    2  A    between atoms: S_7  and  C_8 
REMARK    3  A    between atoms: C_8  and  C_9 
REMARK       I    between atoms: C_9  and  N_10 
REMARK    4  A    between atoms: N_10  and  C_11 
REMARK    5  A    between atoms: C_24  and  C_25 
REMARK    6  A    between atoms: C_25  and  C_26 
REMARK       I    between atoms: C_26  and  N_27 
REMARK    7  A    between atoms: N_27  and  C_28 
REMARK    8  A    between atoms: C_28  and  C_29 
ROOT
HETATM    1  C   UNL     1       8.819  32.131  62.326  1.00  0.00     0.001 A 
HETATM    2  C   UNL     1       7.780  32.559  61.498  1.00  0.00     0.018 A 
HETATM    3  C   UNL     1       7.568  31.909  60.282  1.00  0.00     0.039 A 
HETATM    4  C   UNL     1       8.371  30.835  59.885  1.00  0.00     0.073 A 
HETATM    5  N   UNL     1       8.127  30.114  58.709  1.00  0.00    -0.223 NA
HETATM    6  C   UNL     1       7.156  30.496  57.948  1.00  0.00     0.178 C 
HETATM    7  N   UNL     1       6.402  31.635  58.182  1.00  0.00    -0.241 N 
HETATM    8  C   UNL     1       6.514  32.322  59.349  1.00  0.00     0.147 A 
HETATM    9  N   UNL     1       5.672  33.293  59.558  1.00  0.00    -0.256 NA
HETATM   10  C   UNL     1       5.410  32.230  57.438  1.00  0.00     0.257 A 
HETATM   11  O   UNL     1       4.995  31.973  56.320  1.00  0.00    -0.270 OA
HETATM   12  C   UNL     1       4.867  33.352  58.302  1.00  0.00     0.211 A 
HETATM   13  C   UNL     1       9.410  30.422  60.718  1.00  0.00     0.032 A 
HETATM   14  C   UNL     1       9.636  31.069  61.934  1.00  0.00     0.002 A 
ENDROOT
BRANCH  12  15
HETATM   15  C   UNL     1       3.368  33.210  58.562  1.00  0.00     0.140 C 
BRANCH  15  16
HETATM   16  C   UNL     1       3.048  32.119  59.570  1.00  0.00     0.220 C 
HETATM   17  N   UNL     1       2.876  32.429  60.880  1.00  0.00    -0.357 N 
HETATM   18  H   UNL     1       2.625  31.638  61.462  1.00  0.00     0.162 HD
HETATM   19  O   UNL     1       2.945  30.936  59.236  1.00  0.00    -0.274 OA
BRANCH  17  20
HETATM   20  C   UNL     1       2.790  33.743  61.484  1.00  0.00     0.161 C 
BRANCH  20  21
HETATM   21  C   UNL     1       3.474  33.770  62.828  1.00  0.00    -0.038 A 
HETATM   22  C   UNL     1       2.900  34.476  63.898  1.00  0.00     0.048 A 
HETATM   23  C   UNL     1       3.554  34.462  65.113  1.00  0.00     0.105 A 
HETATM   24  C   UNL     1       4.732  33.779  65.296  1.00  0.00     0.105 A 
HETATM   25  O   UNL     1       3.140  35.093  66.244  1.00  0.00    -0.323 OA
HETATM   26  O   UNL     1       5.205  33.890  66.566  1.00  0.00    -0.323 OA
HETATM   27  C   UNL     1       5.325  33.072  64.273  1.00  0.00     0.040 A 
HETATM   28  C   UNL     1       4.196  34.734  67.158  1.00  0.00     0.352 A 
HETATM   29  C   UNL     1       4.691  33.074  63.027  1.00  0.00     0.012 A 
ENDBRANCH  20  21
ENDBRANCH  17  20
ENDBRANCH  15  16
ENDBRANCH  12  15
BRANCH   6  30
HETATM   30  S   UNL     1       6.723  29.443  56.630  1.00  0.00    -0.082 SA
BRANCH  30  31
HETATM   31  C   UNL     1       6.777  27.857  57.532  1.00  0.00     0.185 C 
BRANCH  31  32
HETATM   32  C   UNL     1       7.482  26.756  56.737  1.00  0.00     0.232 C 
HETATM   33  N   UNL     1       6.843  26.454  55.541  1.00  0.00    -0.324 N 
HETATM   34  H   UNL     1       6.002  26.993  55.319  1.00  0.00     0.169 HD
HETATM   35  O   UNL     1       8.494  26.228  57.184  1.00  0.00    -0.272 OA
BRANCH  33  36
HETATM   36  C   UNL     1       7.168  25.463  54.579  1.00  0.00     0.073 A 
HETATM   37  C   UNL     1       7.111  24.076  54.751  1.00  0.00     0.143 A 
HETATM   38  F   UNL     1       6.767  23.507  55.911  1.00  0.00    -0.204 F 
HETATM   39  C   UNL     1       7.458  23.204  53.714  1.00  0.00     0.044 A 
HETATM   40  C   UNL     1       7.872  23.699  52.480  1.00  0.00     0.003 A 
HETATM   41  C   UNL     1       7.940  25.073  52.287  1.00  0.00     0.002 A 
HETATM   42  C   UNL     1       7.594  25.944  53.326  1.00  0.00     0.033 A 
ENDBRANCH  33  36
ENDBRANCH  31  32
ENDBRANCH  30  31
ENDBRANCH   6  30
TORSDOF 8
ENDMDL
MODEL 5
REMARK VINA RESULT:     -10.9      3.177      5.035
REMARK  8 active torsions:
REMARK  status: ('A' for Active; 'I' for Inactive)
REMARK    1  A    between atoms: C_6  and  S_7 
REMARK    2  A    between atoms: S_7  and  C_8 
REMARK    3  A    between atoms: C_8  and  C_9 
REMARK       I    between atoms: C_9  and  N_10 
REMARK    4  A    between atoms: N_10  and  C_11 
REMARK    5  A    between atoms: C_24  and  C_25 
REMARK    6  A    between atoms: C_25  and  C_26 
REMARK       I    between atoms: C_26  and  N_27 
REMARK    7  A    between atoms: N_27  and  C_28 
REMARK    8  A    between atoms: C_28  and  C_29 
ROOT
HETATM    1  C   UNL     1       8.587  24.357  57.045  1.00  0.00     0.001 A 
HETATM    2  C   UNL     1       8.569  25.704  57.404  1.00  0.00     0.018 A 
HETATM    3  C   UNL     1       7.579  26.536  56.880  1.00  0.00     0.039 A 
HETATM    4  C   UNL     1       6.603  26.040  56.009  1.00  0.00     0.073 A 
HETATM    5  N   UNL     1       5.550  26.833  55.536  1.00  0.00    -0.223 NA
HETATM    6  C   UNL     1       5.520  28.078  55.879  1.00  0.00     0.178 C 
HETATM    7  N   UNL     1       6.521  28.694  56.614  1.00  0.00    -0.241 N 
HETATM    8  C   UNL     1       7.515  27.968  57.191  1.00  0.00     0.147 A 
HETATM    9  N   UNL     1       8.334  28.595  57.985  1.00  0.00    -0.256 NA
HETATM   10  C   UNL     1       6.694  30.008  56.982  1.00  0.00     0.257 A 
HETATM   11  O   UNL     1       6.063  31.006  56.674  1.00  0.00    -0.270 OA
HETATM   12  C   UNL     1       7.892  30.019  57.911  1.00  0.00     0.211 A 
HETATM   13  C   UNL     1       6.636  24.692  55.653  1.00  0.00     0.032 A 
HETATM   14  C   UNL     1       7.626  23.853  56.166  1.00  0.00     0.002 A 
ENDROOT
BRANCH  12  15
HETATM   15  C   UNL     1       7.557  30.599  59.284  1.00  0.00     0.140 C 
BRANCH  15  16
HETATM   16  C   UNL     1       8.554  31.652  59.735  1.00  0.00     0.220 C 
HETATM   17  N   UNL     1       8.706  31.928  61.056  1.00  0.00    -0.357 N 
HETATM   18  H   UNL     1       9.425  32.614  61.254  1.00  0.00     0.162 HD
HETATM   19  O   UNL     1       9.241  32.285  58.928  1.00  0.00    -0.274 OA
BRANCH  17  20
HETATM   20  C   UNL     1       8.142  31.221  62.187  1.00  0.00     0.161 C 
BRANCH  20  21
HETATM   21  C   UNL     1       7.328  32.147  63.056  1.00  0.00    -0.038 A 
HETATM   22  C   UNL     1       5.935  32.222  62.896  1.00  0.00     0.048 A 
HETATM   23  C   UNL     1       5.229  33.073  63.722  1.00  0.00     0.105 A 
HETATM   24  C   UNL     1       5.850  33.831  64.685  1.00  0.00     0.105 A 
HETATM   25  O   UNL     1       3.883  33.267  63.698  1.00  0.00    -0.323 OA
HETATM   26  O   UNL     1       4.974  34.596  65.390  1.00  0.00    -0.323 OA
HETATM   27  C   UNL     1       7.214  33.785  64.875  1.00  0.00     0.040 A 
HETATM   28  C   UNL     1       3.730  34.240  64.751  1.00  0.00     0.352 A 
HETATM   29  C   UNL     1       7.958  32.938  64.047  1.00  0.00     0.012 A 
ENDBRANCH  20  21
ENDBRANCH  17  20
ENDBRANCH  15  16
ENDBRANCH  12  15
BRANCH   6  30
HETATM   30  S   UNL     1       4.081  28.974  55.480  1.00  0.00    -0.082 SA
BRANCH  30  31
HETATM   31  C   UNL     1       4.655  29.709  53.911  1.00  0.00     0.185 C 
BRANCH  31  32
HETATM   32  C   UNL     1       4.135  28.952  52.687  1.00  0.00     0.232 C 
HETATM   33  N   UNL     1       5.109  28.755  51.716  1.00  0.00    -0.324 N 
HETATM   34  H   UNL     1       6.045  29.114  51.922  1.00  0.00     0.169 HD
HETATM   35  O   UNL     1       2.961  28.603  52.633  1.00  0.00    -0.272 OA
BRANCH  33  36
HETATM   36  C   UNL     1       4.988  28.151  50.437  1.00  0.00     0.073 A 
HETATM   37  C   UNL     1       4.815  26.791  50.165  1.00  0.00     0.143 A 
HETATM   38  F   UNL     1       4.786  25.861  51.125  1.00  0.00    -0.204 F 
HETATM   39  C   UNL     1       4.706  26.324  48.850  1.00  0.00     0.044 A 
HETATM   40  C   UNL     1       4.769  27.210  47.777  1.00  0.00     0.003 A 
HETATM   41  C   UNL     1       4.944  28.566  48.023  1.00  0.00     0.002 A 
HETATM   42  C   UNL     1       5.054  29.030  49.339  1.00  0.00     0.033 A 
ENDBRANCH  33  36
ENDBRANCH  31  32
ENDBRANCH  30  31
ENDBRANCH   6  30
TORSDOF 8
ENDMDL
MODEL 6
REMARK VINA RESULT:     -10.9      3.183      7.991
REMARK  8 active torsions:
REMARK  status: ('A' for Active; 'I' for Inactive)
REMARK    1  A    between atoms: C_6  and  S_7 
REMARK    2  A    between atoms: S_7  and  C_8 
REMARK    3  A    between atoms: C_8  and  C_9 
REMARK       I    between atoms: C_9  and  N_10 
REMARK    4  A    between atoms: N_10  and  C_11 
REMARK    5  A    between atoms: C_24  and  C_25 
REMARK    6  A    between atoms: C_25  and  C_26 
REMARK       I    between atoms: C_26  and  N_27 
REMARK    7  A    between atoms: N_27  and  C_28 
REMARK    8  A    between atoms: C_28  and  C_29 
ROOT
HETATM    1  C   UNL     1       7.151  32.675  61.423  1.00  0.00     0.001 A 
HETATM    2  C   UNL     1       6.548  32.369  60.202  1.00  0.00     0.018 A 
HETATM    3  C   UNL     1       7.112  31.382  59.393  1.00  0.00     0.039 A 
HETATM    4  C   UNL     1       8.263  30.692  59.788  1.00  0.00     0.073 A 
HETATM    5  N   UNL     1       8.801  29.642  59.034  1.00  0.00    -0.223 NA
HETATM    6  C   UNL     1       8.236  29.344  57.911  1.00  0.00     0.178 C 
HETATM    7  N   UNL     1       7.185  30.065  57.367  1.00  0.00    -0.241 N 
HETATM    8  C   UNL     1       6.549  31.028  58.085  1.00  0.00     0.147 A 
HETATM    9  N   UNL     1       5.482  31.560  57.565  1.00  0.00    -0.256 NA
HETATM   10  C   UNL     1       6.537  29.947  56.159  1.00  0.00     0.257 A 
HETATM   11  O   UNL     1       6.780  29.238  55.196  1.00  0.00    -0.270 OA
HETATM   12  C   UNL     1       5.375  30.918  56.221  1.00  0.00     0.211 A 
HETATM   13  C   UNL     1       8.860  31.013  61.007  1.00  0.00     0.032 A 
HETATM   14  C   UNL     1       8.308  32.003  61.821  1.00  0.00     0.002 A 
ENDROOT
BRANCH  12  15
HETATM   15  C   UNL     1       4.029  30.227  56.009  1.00  0.00     0.140 C 
BRANCH  15  16
HETATM   16  C   UNL     1       3.411  30.548  54.659  1.00  0.00     0.220 C 
HETATM   17  N   UNL     1       3.524  29.670  53.630  1.00  0.00    -0.357 N 
HETATM   18  H   UNL     1       3.042  29.958  52.787  1.00  0.00     0.162 HD
HETATM   19  O   UNL     1       2.804  31.603  54.456  1.00  0.00    -0.274 OA
BRANCH  17  20
HETATM   20  C   UNL     1       4.041  28.317  53.663  1.00  0.00     0.161 C 
BRANCH  20  21
HETATM   21  C   UNL     1       4.261  27.786  52.268  1.00  0.00    -0.038 A 
HETATM   22  C   UNL     1       3.788  28.503  51.157  1.00  0.00     0.048 A 
HETATM   23  C   UNL     1       4.023  27.986  49.899  1.00  0.00     0.105 A 
HETATM   24  C   UNL     1       4.703  26.806  49.715  1.00  0.00     0.105 A 
HETATM   25  O   UNL     1       3.632  28.548  48.725  1.00  0.00    -0.323 OA
HETATM   26  O   UNL     1       4.829  26.479  48.401  1.00  0.00    -0.323 OA
HETATM   27  C   UNL     1       5.185  26.074  50.778  1.00  0.00     0.040 A 
HETATM   28  C   UNL     1       4.139  27.583  47.779  1.00  0.00     0.352 A 
HETATM   29  C   UNL     1       4.955  26.568  52.066  1.00  0.00     0.012 A 
ENDBRANCH  20  21
ENDBRANCH  17  20
ENDBRANCH  15  16
ENDBRANCH  12  15
BRANCH   6  30
HETATM   30  S   UNL     1       8.771  27.888  57.119  1.00  0.00    -0.082 SA
BRANCH  30  31
HETATM   31  C   UNL     1       7.351  26.822  57.543  1.00  0.00     0.185 C 
BRANCH  31  32
HETATM   32  C   UNL     1       6.931  25.919  56.381  1.00  0.00     0.232 C 
HETATM   33  N   UNL     1       7.905  24.992  56.032  1.00  0.00    -0.324 N 
HETATM   34  H   UNL     1       8.768  25.002  56.581  1.00  0.00     0.169 HD
HETATM   35  O   UNL     1       5.836  26.071  55.850  1.00  0.00    -0.272 OA
BRANCH  33  36
HETATM   36  C   UNL     1       7.897  24.039  54.981  1.00  0.00     0.073 A 
HETATM   37  C   UNL     1       7.925  24.304  53.608  1.00  0.00     0.143 A 
HETATM   38  F   UNL     1       7.919  25.545  53.113  1.00  0.00    -0.204 F 
HETATM   39  C   UNL     1       7.915  23.265  52.671  1.00  0.00     0.044 A 
HETATM   40  C   UNL     1       7.876  21.936  53.086  1.00  0.00     0.003 A 
HETATM   41  C   UNL     1       7.844  21.649  54.445  1.00  0.00     0.002 A 
HETATM   42  C   UNL     1       7.852  22.690  55.381  1.00  0.00     0.033 A 
ENDBRANCH  33  36
ENDBRANCH  31  32
ENDBRANCH  30  31
ENDBRANCH   6  30
TORSDOF 8
ENDMDL
MODEL 7
REMARK VINA RESULT:     -10.9      2.341      4.179
REMARK  8 active torsions:
REMARK  status: ('A' for Active; 'I' for Inactive)
REMARK    1  A    between atoms: C_6  and  S_7 
REMARK    2  A    between atoms: S_7  and  C_8 
REMARK    3  A    between atoms: C_8  and  C_9 
REMARK       I    between atoms: C_9  and  N_10 
REMARK    4  A    between atoms: N_10  and  C_11 
REMARK    5  A    between atoms: C_24  and  C_25 
REMARK    6  A    between atoms: C_25  and  C_26 
REMARK       I    between atoms: C_26  and  N_27 
REMARK    7  A    between atoms: N_27  and  C_28 
REMARK    8  A    between atoms: C_28  and  C_29 
ROOT
HETATM    1  C   UNL     1       4.914  27.333  50.959  1.00  0.00     0.001 A 
HETATM    2  C   UNL     1       4.654  28.136  52.069  1.00  0.00     0.018 A 
HETATM    3  C   UNL     1       5.311  27.871  53.271  1.00  0.00     0.039 A 
HETATM    4  C   UNL     1       6.229  26.820  53.377  1.00  0.00     0.073 A 
HETATM    5  N   UNL     1       6.963  26.585  54.546  1.00  0.00    -0.223 NA
HETATM    6  C   UNL     1       6.738  27.336  55.572  1.00  0.00     0.178 C 
HETATM    7  N   UNL     1       5.746  28.304  55.609  1.00  0.00    -0.241 N 
HETATM    8  C   UNL     1       5.067  28.655  54.486  1.00  0.00     0.147 A 
HETATM    9  N   UNL     1       4.255  29.669  54.567  1.00  0.00    -0.256 NA
HETATM   10  C   UNL     1       5.314  29.115  56.632  1.00  0.00     0.257 A 
HETATM   11  O   UNL     1       5.621  29.133  57.813  1.00  0.00    -0.270 OA
HETATM   12  C   UNL     1       4.313  30.066  56.005  1.00  0.00     0.211 A 
HETATM   13  C   UNL     1       6.475  26.020  52.262  1.00  0.00     0.032 A 
HETATM   14  C   UNL     1       5.817  26.273  51.057  1.00  0.00     0.002 A 
ENDROOT
BRANCH  12  15
HETATM   15  C   UNL     1       4.708  31.530  56.191  1.00  0.00     0.140 C 
BRANCH  15  16
HETATM   16  C   UNL     1       4.155  32.128  57.475  1.00  0.00     0.220 C 
HETATM   17  N   UNL     1       4.960  32.288  58.555  1.00  0.00    -0.357 N 
HETATM   18  H   UNL     1       4.507  32.733  59.345  1.00  0.00     0.162 HD
HETATM   19  O   UNL     1       2.974  32.472  57.575  1.00  0.00    -0.274 OA
BRANCH  17  20
HETATM   20  C   UNL     1       6.396  32.112  58.634  1.00  0.00     0.161 C 
BRANCH  20  21
HETATM   21  C   UNL     1       6.887  32.282  60.050  1.00  0.00    -0.038 A 
HETATM   22  C   UNL     1       6.030  32.792  61.038  1.00  0.00     0.048 A 
HETATM   23  C   UNL     1       6.518  32.918  62.323  1.00  0.00     0.105 A 
HETATM   24  C   UNL     1       7.802  32.556  62.651  1.00  0.00     0.105 A 
HETATM   25  O   UNL     1       5.825  33.394  63.392  1.00  0.00    -0.323 OA
HETATM   26  O   UNL     1       8.079  32.756  63.967  1.00  0.00    -0.323 OA
HETATM   27  C   UNL     1       8.674  32.050  61.711  1.00  0.00     0.040 A 
HETATM   28  C   UNL     1       6.823  33.297  64.428  1.00  0.00     0.352 A 
HETATM   29  C   UNL     1       8.211  31.919  60.398  1.00  0.00     0.012 A 
ENDBRANCH  20  21
ENDBRANCH  17  20
ENDBRANCH  15  16
ENDBRANCH  12  15
BRANCH   6  30
HETATM   30  S   UNL     1       7.829  27.182  56.921  1.00  0.00    -0.082 SA
BRANCH  30  31
HETATM   31  C   UNL     1       7.259  25.560  57.535  1.00  0.00     0.185 C 
BRANCH  31  32
HETATM   32  C   UNL     1       8.007  24.394  56.886  1.00  0.00     0.232 C 
HETATM   33  N   UNL     1       7.257  23.740  55.915  1.00  0.00    -0.324 N 
HETATM   34  H   UNL     1       6.319  24.106  55.734  1.00  0.00     0.169 HD
HETATM   35  O   UNL     1       9.142  24.112  57.252  1.00  0.00    -0.272 OA
BRANCH  33  36
HETATM   36  C   UNL     1       7.592  22.594  55.149  1.00  0.00     0.073 A 
HETATM   37  C   UNL     1       7.897  21.319  55.637  1.00  0.00     0.143 A 
HETATM   38  F   UNL     1       7.950  21.040  56.944  1.00  0.00    -0.204 F 
HETATM   39  C   UNL     1       8.209  20.268  54.768  1.00  0.00     0.044 A 
HETATM   40  C   UNL     1       8.224  20.469  53.390  1.00  0.00     0.003 A 
HETATM   41  C   UNL     1       7.928  21.728  52.883  1.00  0.00     0.002 A 
HETATM   42  C   UNL     1       7.618  22.778  53.754  1.00  0.00     0.033 A 
ENDBRANCH  33  36
ENDBRANCH  31  32
ENDBRANCH  30  31
ENDBRANCH   6  30
TORSDOF 8
ENDMDL
MODEL 8
REMARK VINA RESULT:     -10.9      3.175     10.400
REMARK  8 active torsions:
REMARK  status: ('A' for Active; 'I' for Inactive)
REMARK    1  A    between atoms: C_6  and  S_7 
REMARK    2  A    between atoms: S_7  and  C_8 
REMARK    3  A    between atoms: C_8  and  C_9 
REMARK       I    between atoms: C_9  and  N_10 
REMARK    4  A    between atoms: N_10  and  C_11 
REMARK    5  A    between atoms: C_24  and  C_25 
REMARK    6  A    between atoms: C_25  and  C_26 
REMARK       I    between atoms: C_26  and  N_27 
REMARK    7  A    between atoms: N_27  and  C_28 
REMARK    8  A    between atoms: C_28  and  C_29 
ROOT
HETATM    1  C   UNL     1      10.169  29.370  57.196  1.00  0.00     0.001 A 
HETATM    2  C   UNL     1       8.964  28.995  56.601  1.00  0.00     0.018 A 
HETATM    3  C   UNL     1       7.791  29.657  56.963  1.00  0.00     0.039 A 
HETATM    4  C   UNL     1       7.805  30.693  57.903  1.00  0.00     0.073 A 
HETATM    5  N   UNL     1       6.657  31.429  58.222  1.00  0.00    -0.223 NA
HETATM    6  C   UNL     1       5.542  31.096  57.662  1.00  0.00     0.178 C 
HETATM    7  N   UNL     1       5.401  29.994  56.833  1.00  0.00    -0.241 N 
HETATM    8  C   UNL     1       6.484  29.298  56.401  1.00  0.00     0.147 A 
HETATM    9  N   UNL     1       6.287  28.368  55.512  1.00  0.00    -0.256 NA
HETATM   10  C   UNL     1       4.287  29.448  56.238  1.00  0.00     0.257 A 
HETATM   11  O   UNL     1       3.106  29.729  56.359  1.00  0.00    -0.270 OA
HETATM   12  C   UNL     1       4.805  28.351  55.328  1.00  0.00     0.211 A 
HETATM   13  C   UNL     1       9.015  31.054  58.495  1.00  0.00     0.032 A 
HETATM   14  C   UNL     1      10.194  30.393  58.146  1.00  0.00     0.002 A 
ENDROOT
BRANCH  12  15
HETATM   15  C   UNL     1       4.395  28.563  53.872  1.00  0.00     0.140 C 
BRANCH  15  16
HETATM   16  C   UNL     1       5.494  28.185  52.892  1.00  0.00     0.220 C 
HETATM   17  N   UNL     1       5.795  26.880  52.676  1.00  0.00    -0.357 N 
HETATM   18  H   UNL     1       6.512  26.733  51.975  1.00  0.00     0.162 HD
HETATM   19  O   UNL     1       6.141  29.039  52.280  1.00  0.00    -0.274 OA
BRANCH  17  20
HETATM   20  C   UNL     1       5.083  25.708  53.144  1.00  0.00     0.161 C 
BRANCH  20  21
HETATM   21  C   UNL     1       6.017  24.745  53.834  1.00  0.00    -0.038 A 
HETATM   22  C   UNL     1       6.751  23.813  53.082  1.00  0.00     0.048 A 
HETATM   23  C   UNL     1       7.603  22.960  53.753  1.00  0.00     0.105 A 
HETATM   24  C   UNL     1       7.750  23.006  55.119  1.00  0.00     0.105 A 
HETATM   25  O   UNL     1       8.380  22.002  53.181  1.00  0.00    -0.323 OA
HETATM   26  O   UNL     1       8.639  22.086  55.578  1.00  0.00    -0.323 OA
HETATM   27  C   UNL     1       7.050  23.907  55.892  1.00  0.00     0.040 A 
HETATM   28  C   UNL     1       9.027  21.446  54.344  1.00  0.00     0.352 A 
HETATM   29  C   UNL     1       6.171  24.779  55.241  1.00  0.00     0.012 A 
ENDBRANCH  20  21
ENDBRANCH  17  20
ENDBRANCH  15  16
ENDBRANCH  12  15
BRANCH   6  30
HETATM   30  S   UNL     1       4.191  32.173  57.886  1.00  0.00    -0.082 SA
BRANCH  30  31
HETATM   31  C   UNL     1       3.841  31.794  59.637  1.00  0.00     0.185 C 
BRANCH  31  32
HETATM   32  C   UNL     1       4.625  32.691  60.597  1.00  0.00     0.232 C 
HETATM   33  N   UNL     1       5.179  31.992  61.663  1.00  0.00    -0.324 N 
HETATM   34  H   UNL     1       5.020  30.982  61.684  1.00  0.00     0.169 HD
HETATM   35  O   UNL     1       4.696  33.897  60.391  1.00  0.00    -0.272 OA
BRANCH  33  36
HETATM   36  C   UNL     1       5.915  32.488  62.771  1.00  0.00     0.073 A 
HETATM   37  C   UNL     1       7.307  32.528  62.903  1.00  0.00     0.143 A 
HETATM   38  F   UNL     1       8.134  32.041  61.972  1.00  0.00    -0.204 F 
HETATM   39  C   UNL     1       7.909  33.048  64.053  1.00  0.00     0.044 A 
HETATM   40  C   UNL     1       7.132  33.540  65.099  1.00  0.00     0.003 A 
HETATM   41  C   UNL     1       5.748  33.507  64.992  1.00  0.00     0.002 A 
HETATM   42  C   UNL     1       5.147  32.985  63.841  1.00  0.00     0.033 A 
ENDBRANCH  33  36
ENDBRANCH  31  32
ENDBRANCH  30  31
ENDBRANCH   6  30
TORSDOF 8
ENDMDL
MODEL 9
REMARK VINA RESULT:     -10.7      5.099     11.597
REMARK  8 active torsions:
REMARK  status: ('A' for Active; 'I' for Inactive)
REMARK    1  A    between atoms: C_6  and  S_7 
REMARK    2  A    between atoms: S_7  and  C_8 
REMARK    3  A    between atoms: C_8  and  C_9 
REMARK       I    between atoms: C_9  and  N_10 
REMARK    4  A    between atoms: N_10  and  C_11 
REMARK    5  A    between atoms: C_24  and  C_25 
REMARK    6  A    between atoms: C_25  and  C_26 
REMARK       I    between atoms: C_26  and  N_27 
REMARK    7  A    between atoms: N_27  and  C_28 
REMARK    8  A    between atoms: C_28  and  C_29 
ROOT
HETATM    1  C   UNL     1       8.472  22.283  53.303  1.00  0.00     0.001 A 
HETATM    2  C   UNL     1       7.585  23.343  53.116  1.00  0.00     0.018 A 
HETATM    3  C   UNL     1       7.374  24.247  54.157  1.00  0.00     0.039 A 
HETATM    4  C   UNL     1       8.043  24.113  55.379  1.00  0.00     0.073 A 
HETATM    5  N   UNL     1       7.913  25.052  56.409  1.00  0.00    -0.223 NA
HETATM    6  C   UNL     1       7.105  26.044  56.234  1.00  0.00     0.178 C 
HETATM    7  N   UNL     1       6.290  26.181  55.121  1.00  0.00    -0.241 N 
HETATM    8  C   UNL     1       6.435  25.368  54.042  1.00  0.00     0.147 A 
HETATM    9  N   UNL     1       5.737  25.648  52.980  1.00  0.00    -0.256 NA
HETATM   10  C   UNL     1       5.320  27.108  54.820  1.00  0.00     0.257 A 
HETATM   11  O   UNL     1       4.843  28.004  55.497  1.00  0.00    -0.270 OA
HETATM   12  C   UNL     1       4.904  26.817  53.391  1.00  0.00     0.211 A 
HETATM   13  C   UNL     1       8.922  23.045  55.555  1.00  0.00     0.032 A 
HETATM   14  C   UNL     1       9.134  22.130  54.523  1.00  0.00     0.002 A 
ENDROOT
BRANCH  12  15
HETATM   15  C   UNL     1       5.095  28.023  52.473  1.00  0.00     0.140 C 
BRANCH  15  16
HETATM   16  C   UNL     1       3.778  28.651  52.049  1.00  0.00     0.220 C 
HETATM   17  N   UNL     1       3.354  28.545  50.764  1.00  0.00    -0.357 N 
HETATM   18  H   UNL     1       2.446  28.961  50.594  1.00  0.00     0.162 HD
HETATM   19  O   UNL     1       3.068  29.272  52.844  1.00  0.00    -0.274 OA
BRANCH  17  20
HETATM   20  C   UNL     1       3.921  27.743  49.699  1.00  0.00     0.161 C 
BRANCH  20  21
HETATM   21  C   UNL     1       2.910  27.497  48.607  1.00  0.00    -0.038 A 
HETATM   22  C   UNL     1       1.946  28.473  48.305  1.00  0.00     0.048 A 
HETATM   23  C   UNL     1       1.048  28.210  47.289  1.00  0.00     0.105 A 
HETATM   24  C   UNL     1       1.082  27.035  46.577  1.00  0.00     0.105 A 
HETATM   25  O   UNL     1       0.055  29.040  46.874  1.00  0.00    -0.323 OA
HETATM   26  O   UNL     1       0.116  26.980  45.621  1.00  0.00    -0.323 OA
HETATM   27  C   UNL     1       2.013  26.055  46.840  1.00  0.00     0.040 A 
HETATM   28  C   UNL     1      -0.538  28.250  45.822  1.00  0.00     0.352 A 
HETATM   29  C   UNL     1       2.930  26.288  47.870  1.00  0.00     0.012 A 
ENDBRANCH  20  21
ENDBRANCH  17  20
ENDBRANCH  15  16
ENDBRANCH  12  15
BRANCH   6  30
HETATM   30  S   UNL     1       7.148  27.318  57.421  1.00  0.00    -0.082 SA
BRANCH  30  31
HETATM   31  C   UNL     1       8.697  28.123  56.887  1.00  0.00     0.185 C 
BRANCH  31  32
HETATM   32  C   UNL     1       8.980  29.414  57.658  1.00  0.00     0.232 C 
HETATM   33  N   UNL     1       8.248  29.516  58.835  1.00  0.00    -0.324 N 
HETATM   34  H   UNL     1       7.626  28.736  59.060  1.00  0.00     0.169 HD
HETATM   35  O   UNL     1       9.772  30.236  57.211  1.00  0.00    -0.272 OA
BRANCH  33  36
HETATM   36  C   UNL     1       8.204  30.582  59.771  1.00  0.00     0.073 A 
HETATM   37  C   UNL     1       7.387  31.716  59.713  1.00  0.00     0.143 A 
HETATM   38  F   UNL     1       6.548  31.950  58.699  1.00  0.00    -0.204 F 
HETATM   39  C   UNL     1       7.441  32.697  60.709  1.00  0.00     0.044 A 
HETATM   40  C   UNL     1       8.315  32.567  61.785  1.00  0.00     0.003 A 
HETATM   41  C   UNL     1       9.139  31.451  61.861  1.00  0.00     0.002 A 
HETATM   42  C   UNL     1       9.085  30.472  60.863  1.00  0.00     0.033 A 
ENDBRANCH  33  36
ENDBRANCH  31  32
ENDBRANCH  30  31
ENDBRANCH   6  30
TORSDOF 8
ENDMDL
MODEL 10
REMARK VINA RESULT:     -10.6      3.734     11.062
REMARK  8 active torsions:
REMARK  status: ('A' for Active; 'I' for Inactive)
REMARK    1  A    between atoms: C_6  and  S_7 
REMARK    2  A    between atoms: S_7  and  C_8 
REMARK    3  A    between atoms: C_8  and  C_9 
REMARK       I    between atoms: C_9  and  N_10 
REMARK    4  A    between atoms: N_10  and  C_11 
REMARK    5  A    between atoms: C_24  and  C_25 
REMARK    6  A    between atoms: C_25  and  C_26 
REMARK       I    between atoms: C_26  and  N_27 
REMARK    7  A    between atoms: N_27  and  C_28 
REMARK    8  A    between atoms: C_28  and  C_29 
ROOT
HETATM    1  C   UNL     1       9.948  30.915  60.585  1.00  0.00     0.001 A 
HETATM    2  C   UNL     1       9.059  30.399  59.641  1.00  0.00     0.018 A 
HETATM    3  C   UNL     1       7.800  30.984  59.500  1.00  0.00     0.039 A 
HETATM    4  C   UNL     1       7.420  32.081  60.281  1.00  0.00     0.073 A 
HETATM    5  N   UNL     1       6.197  32.738  60.101  1.00  0.00    -0.223 NA
HETATM    6  C   UNL     1       5.377  32.274  59.218  1.00  0.00     0.178 C 
HETATM    7  N   UNL     1       5.602  31.108  58.502  1.00  0.00    -0.241 N 
HETATM    8  C   UNL     1       6.805  30.478  58.549  1.00  0.00     0.147 A 
HETATM    9  N   UNL     1       6.990  29.474  57.741  1.00  0.00    -0.256 NA
HETATM   10  C   UNL     1       4.808  30.430  57.606  1.00  0.00     0.257 A 
HETATM   11  O   UNL     1       3.649  30.618  57.275  1.00  0.00    -0.270 OA
HETATM   12  C   UNL     1       5.676  29.320  57.048  1.00  0.00     0.211 A 
HETATM   13  C   UNL     1       8.315  32.583  61.225  1.00  0.00     0.032 A 
HETATM   14  C   UNL     1       9.574  32.001  61.380  1.00  0.00     0.002 A 
ENDROOT
BRANCH  12  15
HETATM   15  C   UNL     1       5.806  29.394  55.527  1.00  0.00     0.140 C 
BRANCH  15  16
HETATM   16  C   UNL     1       5.034  28.293  54.819  1.00  0.00     0.220 C 
HETATM   17  N   UNL     1       5.631  27.103  54.555  1.00  0.00    -0.357 N 
HETATM   18  H   UNL     1       5.019  26.423  54.119  1.00  0.00     0.162 HD
HETATM   19  O   UNL     1       3.864  28.447  54.462  1.00  0.00    -0.274 OA
BRANCH  17  20
HETATM   20  C   UNL     1       6.922  26.630  55.009  1.00  0.00     0.161 C 
BRANCH  20  21
HETATM   21  C   UNL     1       7.245  25.280  54.419  1.00  0.00    -0.038 A 
HETATM   22  C   UNL     1       7.259  24.138  55.237  1.00  0.00     0.048 A 
HETATM   23  C   UNL     1       7.546  22.921  54.652  1.00  0.00     0.105 A 
HETATM   24  C   UNL     1       7.809  22.805  53.308  1.00  0.00     0.105 A 
HETATM   25  O   UNL     1       7.605  21.725  55.296  1.00  0.00    -0.323 OA
HETATM   26  O   UNL     1       8.062  21.522  52.937  1.00  0.00    -0.323 OA
HETATM   27  C   UNL     1       7.802  23.900  52.472  1.00  0.00     0.040 A 
HETATM   28  C   UNL     1       7.941  20.844  54.205  1.00  0.00     0.352 A 
HETATM   29  C   UNL     1       7.523  25.149  53.037  1.00  0.00     0.012 A 
ENDBRANCH  20  21
ENDBRANCH  17  20
ENDBRANCH  15  16
ENDBRANCH  12  15
BRANCH   6  30
HETATM   30  S   UNL     1       3.980  33.246  58.846  1.00  0.00    -0.082 SA
BRANCH  30  31
HETATM   31  C   UNL     1       3.099  33.058  60.433  1.00  0.00     0.185 C 
BRANCH  31  32
HETATM   32  C   UNL     1       3.772  33.831  61.570  1.00  0.00     0.232 C 
HETATM   33  N   UNL     1       4.298  33.002  62.554  1.00  0.00    -0.324 N 
HETATM   34  H   UNL     1       4.194  31.994  62.411  1.00  0.00     0.169 HD
HETATM   35  O   UNL     1       3.789  35.056  61.554  1.00  0.00    -0.272 OA
BRANCH  33  36
HETATM   36  C   UNL     1       4.936  33.353  63.772  1.00  0.00     0.073 A 
HETATM   37  C   UNL     1       4.337  33.923  64.899  1.00  0.00     0.143 A 
HETATM   38  F   UNL     1       3.042  34.255  64.938  1.00  0.00    -0.204 F 
HETATM   39  C   UNL     1       5.085  34.220  66.043  1.00  0.00     0.044 A 
HETATM   40  C   UNL     1       6.451  33.954  66.086  1.00  0.00     0.003 A 
HETATM   41  C   UNL     1       7.069  33.391  64.976  1.00  0.00     0.002 A 
HETATM   42  C   UNL     1       6.319  33.096  63.832  1.00  0.00     0.033 A 
ENDBRANCH  33  36
ENDBRANCH  31  32
ENDBRANCH  30  31
ENDBRANCH   6  30
TORSDOF 8
ENDMDL
