MODEL 1
REMARK VINA RESULT:     -10.8      0.000      0.000
REMARK  2 active torsions:
REMARK  status: ('A' for Active; 'I' for Inactive)
REMARK    1  A    between atoms: C_4  and  C_18 
REMARK    2  A    between atoms: C_9  and  C_12 
ROOT
HETATM    1  O   UNL     1       6.158  26.690  53.945  1.00  0.00    -0.267 OA
HETATM    2  C   UNL     1       6.654  26.629  55.063  1.00  0.00     0.259 A 
HETATM    3  N   UNL     1       6.597  27.672  55.950  1.00  0.00    -0.309 N 
HETATM    4  C   UNL     1       7.165  27.638  57.199  1.00  0.00     0.137 A 
HETATM    5  N   UNL     1       7.781  26.598  57.667  1.00  0.00    -0.232 NA
HETATM    6  C   UNL     1       7.896  25.473  56.833  1.00  0.00     0.074 A 
HETATM    7  C   UNL     1       8.582  24.356  57.304  1.00  0.00     0.033 A 
HETATM    8  C   UNL     1       8.722  23.215  56.503  1.00  0.00     0.014 A 
HETATM    9  C   UNL     1       8.172  23.170  55.214  1.00  0.00    -0.022 A 
HETATM   10  C   UNL     1       7.484  24.293  54.736  1.00  0.00     0.031 A 
HETATM   11  C   UNL     1       7.356  25.428  55.547  1.00  0.00     0.061 A 
HETATM   12  H   UNL     1       6.175  28.530  55.618  1.00  0.00     0.170 HD
ENDROOT
BRANCH   4  13
HETATM   13  C   UNL     1       6.985  28.887  58.053  1.00  0.00     0.198 C 
HETATM   14  C   UNL     1       6.673  30.083  57.160  1.00  0.00     0.045 C 
HETATM   15  C   UNL     1       6.421  31.296  58.044  1.00  0.00     0.044 C 
HETATM   16  C   UNL     1       7.454  31.382  59.132  1.00  0.00    -0.025 A 
HETATM   17  C   UNL     1       7.591  32.562  59.876  1.00  0.00     0.010 A 
HETATM   18  C   UNL     1       8.268  30.285  59.442  1.00  0.00     0.076 A 
HETATM   19  C   UNL     1       8.543  32.650  60.892  1.00  0.00     0.001 A 
HETATM   20  C   UNL     1       9.365  31.559  61.176  1.00  0.00     0.003 A 
HETATM   21  C   UNL     1       9.229  30.379  60.446  1.00  0.00     0.037 A 
HETATM   22  O   UNL     1       8.207  29.090  58.775  1.00  0.00    -0.338 OA
ENDBRANCH   4  13
BRANCH   9  23
HETATM   23  C   UNL     1       8.328  21.981  54.395  1.00  0.00     0.010 A 
HETATM   24  C   UNL     1       8.837  20.699  54.712  1.00  0.00     0.152 A 
HETATM   25  N   UNL     1       8.797  19.855  53.677  1.00  0.00    -0.187 NA
HETATM   26  N   UNL     1       8.263  20.594  52.691  1.00  0.00    -0.289 N 
HETATM   27  H   UNL     1       8.127  20.160  51.784  1.00  0.00     0.188 HD
HETATM   28  C   UNL     1       7.961  21.870  53.070  1.00  0.00     0.123 A 
ENDBRANCH   9  23
TORSDOF 2
ENDMDL
MODEL 2
REMARK VINA RESULT:     -10.3      3.180      9.185
REMARK  2 active torsions:
REMARK  status: ('A' for Active; 'I' for Inactive)
REMARK    1  A    between atoms: C_4  and  C_18 
REMARK    2  A    between atoms: C_9  and  C_12 
ROOT
HETATM    1  O   UNL     1       8.207  28.353  58.174  1.00  0.00    -0.267 OA
HETATM    2  C   UNL     1       7.495  27.925  57.276  1.00  0.00     0.259 A 
HETATM    3  N   UNL     1       7.856  26.857  56.498  1.00  0.00    -0.309 N 
HETATM    4  C   UNL     1       7.087  26.373  55.469  1.00  0.00     0.137 A 
HETATM    5  N   UNL     1       5.929  26.865  55.161  1.00  0.00    -0.232 NA
HETATM    6  C   UNL     1       5.466  27.968  55.898  1.00  0.00     0.074 A 
HETATM    7  C   UNL     1       4.238  28.534  55.563  1.00  0.00     0.033 A 
HETATM    8  C   UNL     1       3.743  29.636  56.272  1.00  0.00     0.014 A 
HETATM    9  C   UNL     1       4.469  30.190  57.336  1.00  0.00    -0.022 A 
HETATM   10  C   UNL     1       5.705  29.626  57.675  1.00  0.00     0.031 A 
HETATM   11  C   UNL     1       6.189  28.527  56.954  1.00  0.00     0.061 A 
HETATM   12  H   UNL     1       8.776  26.466  56.659  1.00  0.00     0.170 HD
ENDROOT
BRANCH   4  13
HETATM   13  C   UNL     1       7.643  25.164  54.725  1.00  0.00     0.198 C 
HETATM   14  C   UNL     1       7.004  25.070  53.344  1.00  0.00     0.045 C 
HETATM   15  C   UNL     1       7.634  23.903  52.597  1.00  0.00     0.044 C 
HETATM   16  C   UNL     1       7.744  22.701  53.490  1.00  0.00    -0.025 A 
HETATM   17  C   UNL     1       8.021  21.442  52.938  1.00  0.00     0.010 A 
HETATM   18  C   UNL     1       7.607  22.818  54.878  1.00  0.00     0.076 A 
HETATM   19  C   UNL     1       8.131  20.319  53.760  1.00  0.00     0.001 A 
HETATM   20  C   UNL     1       7.968  20.445  55.139  1.00  0.00     0.003 A 
HETATM   21  C   UNL     1       7.702  21.694  55.696  1.00  0.00     0.037 A 
HETATM   22  O   UNL     1       7.340  24.004  55.510  1.00  0.00    -0.338 OA
ENDBRANCH   4  13
BRANCH   9  23
HETATM   23  C   UNL     1       3.943  31.334  58.059  1.00  0.00     0.010 A 
HETATM   24  C   UNL     1       3.371  31.430  59.350  1.00  0.00     0.152 A 
HETATM   25  N   UNL     1       3.020  32.679  59.670  1.00  0.00    -0.187 NA
HETATM   26  N   UNL     1       3.365  33.389  58.584  1.00  0.00    -0.289 N 
HETATM   27  H   UNL     1       3.195  34.389  58.589  1.00  0.00     0.188 HD
HETATM   28  C   UNL     1       3.924  32.633  57.595  1.00  0.00     0.123 A 
ENDBRANCH   9  23
TORSDOF 2
ENDMDL
MODEL 3
REMARK VINA RESULT:      -9.9      2.804      9.077
REMARK  2 active torsions:
REMARK  status: ('A' for Active; 'I' for Inactive)
REMARK    1  A    between atoms: C_4  and  C_18 
REMARK    2  A    between atoms: C_9  and  C_12 
ROOT
HETATM    1  O   UNL     1       4.114  28.239  55.475  1.00  0.00    -0.267 OA
HETATM    2  C   UNL     1       5.270  27.939  55.747  1.00  0.00     0.259 A 
HETATM    3  N   UNL     1       5.895  26.852  55.196  1.00  0.00    -0.309 N 
HETATM    4  C   UNL     1       7.180  26.480  55.502  1.00  0.00     0.137 A 
HETATM    5  N   UNL     1       7.933  27.146  56.318  1.00  0.00    -0.232 NA
HETATM    6  C   UNL     1       7.384  28.280  56.941  1.00  0.00     0.074 A 
HETATM    7  C   UNL     1       8.165  28.993  57.848  1.00  0.00     0.033 A 
HETATM    8  C   UNL     1       7.653  30.128  58.492  1.00  0.00     0.014 A 
HETATM    9  C   UNL     1       6.348  30.573  58.235  1.00  0.00    -0.022 A 
HETATM   10  C   UNL     1       5.559  29.856  57.326  1.00  0.00     0.031 A 
HETATM   11  C   UNL     1       6.083  28.722  56.693  1.00  0.00     0.061 A 
HETATM   12  H   UNL     1       5.337  26.262  54.591  1.00  0.00     0.170 HD
ENDROOT
BRANCH   4  13
HETATM   13  C   UNL     1       7.716  25.251  54.775  1.00  0.00     0.198 C 
HETATM   14  C   UNL     1       7.099  25.166  53.383  1.00  0.00     0.045 C 
HETATM   15  C   UNL     1       7.709  23.977  52.655  1.00  0.00     0.044 C 
HETATM   16  C   UNL     1       7.769  22.777  53.557  1.00  0.00    -0.025 A 
HETATM   17  C   UNL     1       8.020  21.508  53.018  1.00  0.00     0.010 A 
HETATM   18  C   UNL     1       7.610  22.908  54.942  1.00  0.00     0.076 A 
HETATM   19  C   UNL     1       8.083  20.388  53.848  1.00  0.00     0.001 A 
HETATM   20  C   UNL     1       7.899  20.527  55.224  1.00  0.00     0.003 A 
HETATM   21  C   UNL     1       7.658  21.787  55.768  1.00  0.00     0.037 A 
HETATM   22  O   UNL     1       7.365  24.105  55.562  1.00  0.00    -0.338 OA
ENDBRANCH   4  13
BRANCH   9  23
HETATM   23  C   UNL     1       5.832  31.749  58.912  1.00  0.00     0.010 A 
HETATM   24  C   UNL     1       4.747  32.599  58.594  1.00  0.00     0.152 A 
HETATM   25  N   UNL     1       4.575  33.577  59.487  1.00  0.00    -0.187 NA
HETATM   26  N   UNL     1       5.551  33.358  60.382  1.00  0.00    -0.289 N 
HETATM   27  H   UNL     1       5.626  33.986  61.176  1.00  0.00     0.188 HD
HETATM   28  C   UNL     1       6.328  32.275  60.087  1.00  0.00     0.123 A 
ENDBRANCH   9  23
TORSDOF 2
ENDMDL
MODEL 4
REMARK VINA RESULT:      -9.9      5.636     11.190
REMARK  2 active torsions:
REMARK  status: ('A' for Active; 'I' for Inactive)
REMARK    1  A    between atoms: C_4  and  C_18 
REMARK    2  A    between atoms: C_9  and  C_12 
ROOT
HETATM    1  O   UNL     1       4.367  32.785  60.823  1.00  0.00    -0.267 OA
HETATM    2  C   UNL     1       5.509  32.522  61.179  1.00  0.00     0.259 A 
HETATM    3  N   UNL     1       6.405  31.886  60.362  1.00  0.00    -0.309 N 
HETATM    4  C   UNL     1       7.682  31.558  60.745  1.00  0.00     0.137 A 
HETATM    5  N   UNL     1       8.167  31.852  61.909  1.00  0.00    -0.232 NA
HETATM    6  C   UNL     1       7.325  32.504  62.826  1.00  0.00     0.074 A 
HETATM    7  C   UNL     1       7.816  32.801  64.096  1.00  0.00     0.033 A 
HETATM    8  C   UNL     1       7.007  33.448  65.040  1.00  0.00     0.014 A 
HETATM    9  C   UNL     1       5.691  33.816  64.727  1.00  0.00    -0.022 A 
HETATM   10  C   UNL     1       5.193  33.517  63.452  1.00  0.00     0.031 A 
HETATM   11  C   UNL     1       6.012  32.866  62.520  1.00  0.00     0.061 A 
HETATM   12  H   UNL     1       6.064  31.584  59.458  1.00  0.00     0.170 HD
ENDROOT
BRANCH   4  13
HETATM   13  C   UNL     1       8.543  30.869  59.693  1.00  0.00     0.198 C 
HETATM   14  C   UNL     1       9.609  31.834  59.186  1.00  0.00     0.045 C 
HETATM   15  C   UNL     1      10.500  31.096  58.197  1.00  0.00     0.044 C 
HETATM   16  C   UNL     1       9.673  30.278  57.247  1.00  0.00    -0.025 A 
HETATM   17  C   UNL     1      10.255  29.754  56.085  1.00  0.00     0.010 A 
HETATM   18  C   UNL     1       8.328  29.998  57.519  1.00  0.00     0.076 A 
HETATM   19  C   UNL     1       9.496  28.987  55.199  1.00  0.00     0.001 A 
HETATM   20  C   UNL     1       8.151  28.736  55.468  1.00  0.00     0.003 A 
HETATM   21  C   UNL     1       7.567  29.246  56.626  1.00  0.00     0.037 A 
HETATM   22  O   UNL     1       7.672  30.462  58.629  1.00  0.00    -0.338 OA
ENDBRANCH   4  13
BRANCH   9  23
HETATM   23  C   UNL     1       4.865  34.483  65.717  1.00  0.00     0.010 A 
HETATM   24  C   UNL     1       3.687  35.254  65.572  1.00  0.00     0.152 A 
HETATM   25  N   UNL     1       3.205  35.688  66.740  1.00  0.00    -0.187 NA
HETATM   26  N   UNL     1       4.074  35.199  67.639  1.00  0.00    -0.289 N 
HETATM   27  H   UNL     1       3.914  35.398  68.621  1.00  0.00     0.188 HD
HETATM   28  C   UNL     1       5.082  34.469  67.079  1.00  0.00     0.123 A 
ENDBRANCH   9  23
TORSDOF 2
ENDMDL
MODEL 5
REMARK VINA RESULT:      -9.8      1.606      2.850
REMARK  2 active torsions:
REMARK  status: ('A' for Active; 'I' for Inactive)
REMARK    1  A    between atoms: C_4  and  C_18 
REMARK    2  A    between atoms: C_9  and  C_12 
ROOT
HETATM    1  O   UNL     1       8.740  24.907  58.213  1.00  0.00    -0.267 OA
HETATM    2  C   UNL     1       8.271  25.627  57.341  1.00  0.00     0.259 A 
HETATM    3  N   UNL     1       7.976  26.948  57.558  1.00  0.00    -0.309 N 
HETATM    4  C   UNL     1       7.428  27.769  56.606  1.00  0.00     0.137 A 
HETATM    5  N   UNL     1       7.169  27.377  55.398  1.00  0.00    -0.232 NA
HETATM    6  C   UNL     1       7.433  26.036  55.073  1.00  0.00     0.074 A 
HETATM    7  C   UNL     1       7.131  25.583  53.790  1.00  0.00     0.033 A 
HETATM    8  C   UNL     1       7.377  24.252  53.427  1.00  0.00     0.014 A 
HETATM    9  C   UNL     1       7.934  23.349  54.343  1.00  0.00    -0.022 A 
HETATM   10  C   UNL     1       8.236  23.799  55.635  1.00  0.00     0.031 A 
HETATM   11  C   UNL     1       7.981  25.132  55.985  1.00  0.00     0.061 A 
HETATM   12  H   UNL     1       8.108  27.295  58.500  1.00  0.00     0.170 HD
ENDROOT
BRANCH   4  13
HETATM   13  C   UNL     1       7.186  29.215  57.024  1.00  0.00     0.198 C 
HETATM   14  C   UNL     1       7.981  29.526  58.287  1.00  0.00     0.045 C 
HETATM   15  C   UNL     1       7.782  30.994  58.636  1.00  0.00     0.044 C 
HETATM   16  C   UNL     1       6.334  31.377  58.509  1.00  0.00    -0.025 A 
HETATM   17  C   UNL     1       5.879  32.586  59.055  1.00  0.00     0.010 A 
HETATM   18  C   UNL     1       5.429  30.558  57.824  1.00  0.00     0.076 A 
HETATM   19  C   UNL     1       4.538  32.953  58.938  1.00  0.00     0.001 A 
HETATM   20  C   UNL     1       3.640  32.117  58.274  1.00  0.00     0.003 A 
HETATM   21  C   UNL     1       4.087  30.918  57.721  1.00  0.00     0.037 A 
HETATM   22  O   UNL     1       5.778  29.362  57.254  1.00  0.00    -0.338 OA
ENDBRANCH   4  13
BRANCH   9  23
HETATM   23  C   UNL     1       8.180  21.972  53.952  1.00  0.00     0.010 A 
HETATM   24  C   UNL     1       8.715  20.884  54.682  1.00  0.00     0.152 A 
HETATM   25  N   UNL     1       8.765  19.756  53.968  1.00  0.00    -0.187 NA
HETATM   26  N   UNL     1       8.264  20.117  52.776  1.00  0.00    -0.289 N 
HETATM   27  H   UNL     1       8.197  19.413  52.049  1.00  0.00     0.188 HD
HETATM   28  C   UNL     1       7.896  21.431  52.716  1.00  0.00     0.123 A 
ENDBRANCH   9  23
TORSDOF 2
ENDMDL
MODEL 6
REMARK VINA RESULT:      -9.7      2.947      4.125
REMARK  2 active torsions:
REMARK  status: ('A' for Active; 'I' for Inactive)
REMARK    1  A    between atoms: C_4  and  C_18 
REMARK    2  A    between atoms: C_9  and  C_12 
ROOT
HETATM    1  O   UNL     1       5.406  30.829  55.919  1.00  0.00    -0.267 OA
HETATM    2  C   UNL     1       6.184  30.347  56.732  1.00  0.00     0.259 A 
HETATM    3  N   UNL     1       6.587  31.023  57.854  1.00  0.00    -0.309 N 
HETATM    4  C   UNL     1       7.476  30.515  58.768  1.00  0.00     0.137 A 
HETATM    5  N   UNL     1       7.992  29.331  58.668  1.00  0.00    -0.232 NA
HETATM    6  C   UNL     1       7.645  28.555  57.550  1.00  0.00     0.074 A 
HETATM    7  C   UNL     1       8.213  27.291  57.405  1.00  0.00     0.033 A 
HETATM    8  C   UNL     1       7.895  26.488  56.303  1.00  0.00     0.014 A 
HETATM    9  C   UNL     1       6.995  26.934  55.324  1.00  0.00    -0.022 A 
HETATM   10  C   UNL     1       6.424  28.205  55.464  1.00  0.00     0.031 A 
HETATM   11  C   UNL     1       6.755  28.999  56.570  1.00  0.00     0.061 A 
HETATM   12  H   UNL     1       6.257  31.975  57.956  1.00  0.00     0.170 HD
ENDROOT
BRANCH   4  13
HETATM   13  C   UNL     1       7.792  31.405  59.964  1.00  0.00     0.198 C 
HETATM   14  C   UNL     1       8.907  30.777  60.794  1.00  0.00     0.045 C 
HETATM   15  C   UNL     1       9.254  31.722  61.935  1.00  0.00     0.044 C 
HETATM   16  C   UNL     1       8.006  32.254  62.580  1.00  0.00    -0.025 A 
HETATM   17  C   UNL     1       8.080  32.904  63.820  1.00  0.00     0.010 A 
HETATM   18  C   UNL     1       6.762  32.142  61.946  1.00  0.00     0.076 A 
HETATM   19  C   UNL     1       6.927  33.407  64.424  1.00  0.00     0.001 A 
HETATM   20  C   UNL     1       5.691  33.267  63.795  1.00  0.00     0.003 A 
HETATM   21  C   UNL     1       5.609  32.631  62.557  1.00  0.00     0.037 A 
HETATM   22  O   UNL     1       6.588  31.528  60.733  1.00  0.00    -0.338 OA
ENDBRANCH   4  13
BRANCH   9  23
HETATM   23  C   UNL     1       6.678  26.090  54.186  1.00  0.00     0.010 A 
HETATM   24  C   UNL     1       5.550  25.277  53.922  1.00  0.00     0.152 A 
HETATM   25  N   UNL     1       5.621  24.660  52.739  1.00  0.00    -0.187 NA
HETATM   26  N   UNL     1       6.796  25.075  52.240  1.00  0.00    -0.289 N 
HETATM   27  H   UNL     1       7.077  24.736  51.326  1.00  0.00     0.188 HD
HETATM   28  C   UNL     1       7.465  25.934  53.064  1.00  0.00     0.123 A 
ENDBRANCH   9  23
TORSDOF 2
ENDMDL
MODEL 7
REMARK VINA RESULT:      -9.6      3.690      9.800
REMARK  2 active torsions:
REMARK  status: ('A' for Active; 'I' for Inactive)
REMARK    1  A    between atoms: C_4  and  C_18 
REMARK    2  A    between atoms: C_9  and  C_12 
ROOT
HETATM    1  O   UNL     1       5.031  31.993  58.708  1.00  0.00    -0.267 OA
HETATM    2  C   UNL     1       6.049  31.333  58.871  1.00  0.00     0.259 A 
HETATM    3  N   UNL     1       6.472  30.399  57.963  1.00  0.00    -0.309 N 
HETATM    4  C   UNL     1       7.595  29.629  58.133  1.00  0.00     0.137 A 
HETATM    5  N   UNL     1       8.380  29.741  59.158  1.00  0.00    -0.232 NA
HETATM    6  C   UNL     1       8.033  30.671  60.152  1.00  0.00     0.074 A 
HETATM    7  C   UNL     1       8.844  30.785  61.279  1.00  0.00     0.033 A 
HETATM    8  C   UNL     1       8.531  31.700  62.293  1.00  0.00     0.014 A 
HETATM    9  C   UNL     1       7.400  32.522  62.195  1.00  0.00    -0.022 A 
HETATM   10  C   UNL     1       6.581  32.409  61.065  1.00  0.00     0.031 A 
HETATM   11  C   UNL     1       6.903  31.487  60.061  1.00  0.00     0.061 A 
HETATM   12  H   UNL     1       5.869  30.231  57.167  1.00  0.00     0.170 HD
ENDROOT
BRANCH   4  13
HETATM   13  C   UNL     1       7.919  28.654  57.007  1.00  0.00     0.198 C 
HETATM   14  C   UNL     1       7.204  29.085  55.731  1.00  0.00     0.045 C 
HETATM   15  C   UNL     1       7.607  28.140  54.607  1.00  0.00     0.044 C 
HETATM   16  C   UNL     1       7.574  26.714  55.077  1.00  0.00    -0.025 A 
HETATM   17  C   UNL     1       7.624  25.668  54.145  1.00  0.00     0.010 A 
HETATM   18  C   UNL     1       7.527  26.405  56.442  1.00  0.00     0.076 A 
HETATM   19  C   UNL     1       7.600  24.340  54.572  1.00  0.00     0.001 A 
HETATM   20  C   UNL     1       7.529  24.044  55.933  1.00  0.00     0.003 A 
HETATM   21  C   UNL     1       7.488  25.078  56.866  1.00  0.00     0.037 A 
HETATM   22  O   UNL     1       7.480  27.356  57.428  1.00  0.00    -0.338 OA
ENDBRANCH   4  13
BRANCH   9  23
HETATM   23  C   UNL     1       7.088  33.463  63.257  1.00  0.00     0.010 A 
HETATM   24  C   UNL     1       6.198  34.563  63.288  1.00  0.00     0.152 A 
HETATM   25  N   UNL     1       6.178  35.180  64.472  1.00  0.00    -0.187 NA
HETATM   26  N   UNL     1       7.057  34.479  65.206  1.00  0.00    -0.289 N 
HETATM   27  H   UNL     1       7.216  34.762  66.167  1.00  0.00     0.188 HD
HETATM   28  C   UNL     1       7.626  33.440  64.527  1.00  0.00     0.123 A 
ENDBRANCH   9  23
TORSDOF 2
ENDMDL
MODEL 8
REMARK VINA RESULT:      -9.5      3.039      9.222
REMARK  2 active torsions:
REMARK  status: ('A' for Active; 'I' for Inactive)
REMARK    1  A    between atoms: C_4  and  C_18 
REMARK    2  A    between atoms: C_9  and  C_12 
ROOT
HETATM    1  O   UNL     1       8.244  28.604  58.455  1.00  0.00    -0.267 OA
HETATM    2  C   UNL     1       7.411  28.021  57.772  1.00  0.00     0.259 A 
HETATM    3  N   UNL     1       7.537  26.701  57.428  1.00  0.00    -0.309 N 
HETATM    4  C   UNL     1       6.631  26.031  56.644  1.00  0.00     0.137 A 
HETATM    5  N   UNL     1       5.552  26.582  56.183  1.00  0.00    -0.232 NA
HETATM    6  C   UNL     1       5.330  27.937  56.477  1.00  0.00     0.074 A 
HETATM    7  C   UNL     1       4.193  28.559  55.965  1.00  0.00     0.033 A 
HETATM    8  C   UNL     1       3.937  29.910  56.234  1.00  0.00     0.014 A 
HETATM    9  C   UNL     1       4.814  30.664  57.026  1.00  0.00    -0.022 A 
HETATM   10  C   UNL     1       5.960  30.044  57.540  1.00  0.00     0.031 A 
HETATM   11  C   UNL     1       6.205  28.694  57.260  1.00  0.00     0.061 A 
HETATM   12  H   UNL     1       8.388  26.234  57.715  1.00  0.00     0.170 HD
ENDROOT
BRANCH   4  13
HETATM   13  C   UNL     1       6.928  24.559  56.381  1.00  0.00     0.198 C 
HETATM   14  C   UNL     1       8.162  24.134  57.168  1.00  0.00     0.045 C 
HETATM   15  C   UNL     1       8.388  22.645  56.948  1.00  0.00     0.044 C 
HETATM   16  C   UNL     1       8.228  22.294  55.496  1.00  0.00    -0.025 A 
HETATM   17  C   UNL     1       8.671  21.050  55.024  1.00  0.00     0.010 A 
HETATM   18  C   UNL     1       7.611  23.179  54.604  1.00  0.00     0.076 A 
HETATM   19  C   UNL     1       8.522  20.713  53.678  1.00  0.00     0.001 A 
HETATM   20  C   UNL     1       7.928  21.612  52.794  1.00  0.00     0.003 A 
HETATM   21  C   UNL     1       7.477  22.847  53.257  1.00  0.00     0.037 A 
HETATM   22  O   UNL     1       7.143  24.413  54.971  1.00  0.00    -0.338 OA
ENDBRANCH   4  13
BRANCH   9  23
HETATM   23  C   UNL     1       4.535  32.064  57.292  1.00  0.00     0.010 A 
HETATM   24  C   UNL     1       4.888  33.232  56.573  1.00  0.00     0.152 A 
HETATM   25  N   UNL     1       4.423  34.349  57.139  1.00  0.00    -0.187 NA
HETATM   26  N   UNL     1       3.770  33.902  58.223  1.00  0.00    -0.289 N 
HETATM   27  H   UNL     1       3.318  34.581  58.827  1.00  0.00     0.188 HD
HETATM   28  C   UNL     1       3.804  32.544  58.358  1.00  0.00     0.123 A 
ENDBRANCH   9  23
TORSDOF 2
ENDMDL
MODEL 9
REMARK VINA RESULT:      -9.5      3.823      5.097
REMARK  2 active torsions:
REMARK  status: ('A' for Active; 'I' for Inactive)
REMARK    1  A    between atoms: C_4  and  C_18 
REMARK    2  A    between atoms: C_9  and  C_12 
ROOT
HETATM    1  O   UNL     1       5.307  25.008  57.224  1.00  0.00    -0.267 OA
HETATM    2  C   UNL     1       5.566  25.647  56.213  1.00  0.00     0.259 A 
HETATM    3  N   UNL     1       5.152  26.941  56.035  1.00  0.00    -0.309 N 
HETATM    4  C   UNL     1       5.408  27.671  54.902  1.00  0.00     0.137 A 
HETATM    5  N   UNL     1       6.099  27.211  53.906  1.00  0.00    -0.232 NA
HETATM    6  C   UNL     1       6.569  25.890  53.988  1.00  0.00     0.074 A 
HETATM    7  C   UNL     1       7.286  25.364  52.916  1.00  0.00     0.033 A 
HETATM    8  C   UNL     1       7.770  24.050  52.957  1.00  0.00     0.014 A 
HETATM    9  C   UNL     1       7.549  23.238  54.079  1.00  0.00    -0.022 A 
HETATM   10  C   UNL     1       6.827  23.762  55.158  1.00  0.00     0.031 A 
HETATM   11  C   UNL     1       6.345  25.076  55.101  1.00  0.00     0.061 A 
HETATM   12  H   UNL     1       4.562  27.334  56.758  1.00  0.00     0.170 HD
ENDROOT
BRANCH   4  13
HETATM   13  C   UNL     1       4.883  29.102  54.891  1.00  0.00     0.198 C 
HETATM   14  C   UNL     1       3.883  29.293  56.026  1.00  0.00     0.045 C 
HETATM   15  C   UNL     1       3.436  30.747  56.039  1.00  0.00     0.044 C 
HETATM   16  C   UNL     1       3.133  31.220  54.645  1.00  0.00    -0.025 A 
HETATM   17  C   UNL     1       2.435  32.419  54.448  1.00  0.00     0.010 A 
HETATM   18  C   UNL     1       3.568  30.496  53.528  1.00  0.00     0.076 A 
HETATM   19  C   UNL     1       2.155  32.870  53.158  1.00  0.00     0.001 A 
HETATM   20  C   UNL     1       2.571  32.128  52.053  1.00  0.00     0.003 A 
HETATM   21  C   UNL     1       3.274  30.939  52.240  1.00  0.00     0.037 A 
HETATM   22  O   UNL     1       4.259  29.317  53.617  1.00  0.00    -0.338 OA
ENDBRANCH   4  13
BRANCH   9  23
HETATM   23  C   UNL     1       8.055  21.877  54.105  1.00  0.00     0.010 A 
HETATM   24  C   UNL     1       8.119  20.893  53.089  1.00  0.00     0.152 A 
HETATM   25  N   UNL     1       8.680  19.755  53.506  1.00  0.00    -0.187 NA
HETATM   26  N   UNL     1       8.977  20.003  54.791  1.00  0.00    -0.289 N 
HETATM   27  H   UNL     1       9.425  19.271  55.332  1.00  0.00     0.188 HD
HETATM   28  C   UNL     1       8.628  21.259  55.197  1.00  0.00     0.123 A 
ENDBRANCH   9  23
TORSDOF 2
ENDMDL
MODEL 10
REMARK VINA RESULT:      -9.4      5.281      9.395
REMARK  2 active torsions:
REMARK  status: ('A' for Active; 'I' for Inactive)
REMARK    1  A    between atoms: C_4  and  C_18 
REMARK    2  A    between atoms: C_9  and  C_12 
ROOT
HETATM    1  O   UNL     1       5.544  29.016  53.067  1.00  0.00    -0.267 OA
HETATM    2  C   UNL     1       5.478  27.894  52.580  1.00  0.00     0.259 A 
HETATM    3  N   UNL     1       5.806  26.767  53.285  1.00  0.00    -0.309 N 
HETATM    4  C   UNL     1       5.764  25.501  52.755  1.00  0.00     0.137 A 
HETATM    5  N   UNL     1       5.376  25.255  51.544  1.00  0.00    -0.232 NA
HETATM    6  C   UNL     1       5.018  26.346  50.735  1.00  0.00     0.074 A 
HETATM    7  C   UNL     1       4.628  26.107  49.418  1.00  0.00     0.033 A 
HETATM    8  C   UNL     1       4.267  27.169  48.578  1.00  0.00     0.014 A 
HETATM    9  C   UNL     1       4.285  28.491  49.043  1.00  0.00    -0.022 A 
HETATM   10  C   UNL     1       4.678  28.736  50.365  1.00  0.00     0.031 A 
HETATM   11  C   UNL     1       5.041  27.665  51.192  1.00  0.00     0.061 A 
HETATM   12  H   UNL     1       6.168  26.903  54.220  1.00  0.00     0.170 HD
ENDROOT
BRANCH   4  13
HETATM   13  C   UNL     1       6.148  24.365  53.697  1.00  0.00     0.198 C 
HETATM   14  C   UNL     1       6.920  24.922  54.888  1.00  0.00     0.045 C 
HETATM   15  C   UNL     1       7.221  23.779  55.847  1.00  0.00     0.044 C 
HETATM   16  C   UNL     1       7.708  22.572  55.096  1.00  0.00    -0.025 A 
HETATM   17  C   UNL     1       8.314  21.515  55.788  1.00  0.00     0.010 A 
HETATM   18  C   UNL     1       7.537  22.468  53.711  1.00  0.00     0.076 A 
HETATM   19  C   UNL     1       8.764  20.387  55.101  1.00  0.00     0.001 A 
HETATM   20  C   UNL     1       8.611  20.305  53.717  1.00  0.00     0.003 A 
HETATM   21  C   UNL     1       8.002  21.348  53.023  1.00  0.00     0.037 A 
HETATM   22  O   UNL     1       6.954  23.446  52.948  1.00  0.00    -0.338 OA
ENDBRANCH   4  13
BRANCH   9  23
HETATM   23  C   UNL     1       3.910  29.580  48.158  1.00  0.00     0.010 A 
HETATM   24  C   UNL     1       3.198  29.576  46.934  1.00  0.00     0.152 A 
HETATM   25  N   UNL     1       3.036  30.800  46.425  1.00  0.00    -0.187 NA
HETATM   26  N   UNL     1       3.643  31.595  47.321  1.00  0.00    -0.289 N 
HETATM   27  H   UNL     1       3.650  32.595  47.150  1.00  0.00     0.188 HD
HETATM   28  C   UNL     1       4.179  30.915  48.377  1.00  0.00     0.123 A 
ENDBRANCH   9  23
TORSDOF 2
ENDMDL
