MODEL 1
REMARK VINA RESULT:      -9.7      0.000      0.000
REMARK  5 active torsions:
REMARK  status: ('A' for Active; 'I' for Inactive)
REMARK    1  A    between atoms: O_1  and  C_2 
REMARK    2  A    between atoms: C_6  and  C_7 
REMARK    3  A    between atoms: C_7  and  N_8 
REMARK       I    between atoms: N_8  and  C_9 
REMARK    4  A    between atoms: C_9  and  C_11 
REMARK    5  A    between atoms: C_14  and  C_17 
ROOT
HETATM    1  N   UNL     1       5.499  26.599  50.282  1.00  0.00    -0.353 N 
HETATM    2  C   UNL     1       5.825  26.868  51.593  1.00  0.00     0.251 C 
HETATM    3  O   UNL     1       5.753  27.983  52.097  1.00  0.00    -0.268 OA
HETATM    4  H   UNL     1       5.771  25.717  49.874  1.00  0.00     0.163 HD
ENDROOT
BRANCH   2   5
HETATM    5  C   UNL     1       6.333  25.722  52.398  1.00  0.00     0.032 A 
HETATM    6  C   UNL     1       7.374  24.952  51.869  1.00  0.00     0.018 A 
HETATM    7  C   UNL     1       7.870  23.852  52.576  1.00  0.00     0.013 A 
HETATM    8  C   UNL     1       7.350  23.501  53.832  1.00  0.00    -0.026 A 
HETATM    9  C   UNL     1       6.322  24.301  54.362  1.00  0.00     0.013 A 
HETATM   10  C   UNL     1       5.817  25.401  53.658  1.00  0.00     0.018 A 
BRANCH   8  11
HETATM   11  C   UNL     1       7.863  22.331  54.569  1.00  0.00    -0.023 A 
HETATM   12  C   UNL     1       7.971  22.339  55.965  1.00  0.00     0.031 A 
HETATM   13  C   UNL     1       8.470  21.218  56.612  1.00  0.00     0.117 A 
HETATM   14  N   UNL     1       8.864  20.098  55.974  1.00  0.00    -0.273 NA
HETATM   15  C   UNL     1       8.756  20.099  54.630  1.00  0.00     0.117 A 
HETATM   16  C   UNL     1       8.270  21.171  53.897  1.00  0.00     0.031 A 
ENDBRANCH   8  11
ENDBRANCH   2   5
BRANCH   1  17
HETATM   17  C   UNL     1       5.136  27.652  49.360  1.00  0.00     0.161 C 
BRANCH  17  18
HETATM   18  C   UNL     1       3.845  27.324  48.655  1.00  0.00    -0.038 A 
HETATM   19  C   UNL     1       2.661  27.998  48.990  1.00  0.00     0.009 A 
HETATM   20  C   UNL     1       1.464  27.705  48.331  1.00  0.00     0.003 A 
HETATM   21  C   UNL     1       1.436  26.731  47.333  1.00  0.00     0.036 A 
HETATM   22  C   UNL     1       2.609  26.060  47.002  1.00  0.00     0.066 A 
HETATM   23  C   UNL     1       3.807  26.348  47.649  1.00  0.00     0.045 A 
BRANCH  22  24
HETATM   24  O   UNL     1       2.627  25.098  46.035  1.00  0.00    -0.361 OA
HETATM   25  H   UNL     1       1.711  24.900  45.781  1.00  0.00     0.217 HD
ENDBRANCH  22  24
ENDBRANCH  17  18
ENDBRANCH   1  17
TORSDOF 5
ENDMDL
MODEL 2
REMARK VINA RESULT:      -9.3      5.280      8.059
REMARK  5 active torsions:
REMARK  status: ('A' for Active; 'I' for Inactive)
REMARK    1  A    between atoms: O_1  and  C_2 
REMARK    2  A    between atoms: C_6  and  C_7 
REMARK    3  A    between atoms: C_7  and  N_8 
REMARK       I    between atoms: N_8  and  C_9 
REMARK    4  A    between atoms: C_9  and  C_11 
REMARK    5  A    between atoms: C_14  and  C_17 
ROOT
HETATM    1  N   UNL     1       6.963  28.124  57.090  1.00  0.00    -0.353 N 
HETATM    2  C   UNL     1       5.979  27.305  56.582  1.00  0.00     0.251 C 
HETATM    3  O   UNL     1       4.787  27.589  56.589  1.00  0.00    -0.268 OA
HETATM    4  H   UNL     1       7.889  27.752  57.241  1.00  0.00     0.163 HD
ENDROOT
BRANCH   2   5
HETATM    5  C   UNL     1       6.424  25.988  56.045  1.00  0.00     0.032 A 
HETATM    6  C   UNL     1       7.245  25.190  56.849  1.00  0.00     0.018 A 
HETATM    7  C   UNL     1       7.708  23.956  56.381  1.00  0.00     0.013 A 
HETATM    8  C   UNL     1       7.353  23.482  55.107  1.00  0.00    -0.026 A 
HETATM    9  C   UNL     1       6.506  24.285  54.322  1.00  0.00     0.013 A 
HETATM   10  C   UNL     1       6.042  25.524  54.783  1.00  0.00     0.018 A 
BRANCH   8  11
HETATM   11  C   UNL     1       7.855  22.188  54.609  1.00  0.00    -0.023 A 
HETATM   12  C   UNL     1       7.894  21.900  53.239  1.00  0.00     0.031 A 
HETATM   13  C   UNL     1       8.366  20.665  52.821  1.00  0.00     0.117 A 
HETATM   14  N   UNL     1       8.799  19.704  53.661  1.00  0.00    -0.273 NA
HETATM   15  C   UNL     1       8.759  19.991  54.977  1.00  0.00     0.117 A 
HETATM   16  C   UNL     1       8.305  21.197  55.490  1.00  0.00     0.031 A 
ENDBRANCH   8  11
ENDBRANCH   2   5
BRANCH   1  17
HETATM   17  C   UNL     1       6.644  29.359  57.771  1.00  0.00     0.161 C 
BRANCH  17  18
HETATM   18  C   UNL     1       7.898  30.135  58.085  1.00  0.00    -0.038 A 
HETATM   19  C   UNL     1       7.865  31.203  58.996  1.00  0.00     0.009 A 
HETATM   20  C   UNL     1       9.026  31.917  59.297  1.00  0.00     0.003 A 
HETATM   21  C   UNL     1      10.235  31.576  58.690  1.00  0.00     0.036 A 
HETATM   22  C   UNL     1      10.269  30.520  57.785  1.00  0.00     0.066 A 
HETATM   23  C   UNL     1       9.118  29.799  57.481  1.00  0.00     0.045 A 
BRANCH  22  24
HETATM   24  O   UNL     1      11.427  30.155  57.164  1.00  0.00    -0.361 OA
HETATM   25  H   UNL     1      11.941  30.956  56.975  1.00  0.00     0.217 HD
ENDBRANCH  22  24
ENDBRANCH  17  18
ENDBRANCH   1  17
TORSDOF 5
ENDMDL
MODEL 3
REMARK VINA RESULT:      -9.3     10.084     12.028
REMARK  5 active torsions:
REMARK  status: ('A' for Active; 'I' for Inactive)
REMARK    1  A    between atoms: O_1  and  C_2 
REMARK    2  A    between atoms: C_6  and  C_7 
REMARK    3  A    between atoms: C_7  and  N_8 
REMARK       I    between atoms: N_8  and  C_9 
REMARK    4  A    between atoms: C_9  and  C_11 
REMARK    5  A    between atoms: C_14  and  C_17 
ROOT
HETATM    1  N   UNL     1       9.061  30.173  58.482  1.00  0.00    -0.353 N 
HETATM    2  C   UNL     1       9.409  31.414  58.966  1.00  0.00     0.251 C 
HETATM    3  O   UNL     1      10.293  32.111  58.479  1.00  0.00    -0.268 OA
HETATM    4  H   UNL     1       8.478  29.568  59.042  1.00  0.00     0.163 HD
ENDROOT
BRANCH   2   5
HETATM    5  C   UNL     1       8.682  31.881  60.179  1.00  0.00     0.032 A 
HETATM    6  C   UNL     1       9.354  31.855  61.405  1.00  0.00     0.018 A 
HETATM    7  C   UNL     1       8.707  32.261  62.576  1.00  0.00     0.013 A 
HETATM    8  C   UNL     1       7.378  32.715  62.551  1.00  0.00    -0.026 A 
HETATM    9  C   UNL     1       6.724  32.760  61.307  1.00  0.00     0.013 A 
HETATM   10  C   UNL     1       7.366  32.351  60.131  1.00  0.00     0.018 A 
BRANCH   8  11
HETATM   11  C   UNL     1       6.692  33.128  63.790  1.00  0.00    -0.023 A 
HETATM   12  C   UNL     1       5.295  33.088  63.897  1.00  0.00     0.031 A 
HETATM   13  C   UNL     1       4.696  33.496  65.079  1.00  0.00     0.117 A 
HETATM   14  N   UNL     1       5.380  33.936  66.154  1.00  0.00    -0.273 NA
HETATM   15  C   UNL     1       6.723  33.969  66.042  1.00  0.00     0.117 A 
HETATM   16  C   UNL     1       7.411  33.582  64.902  1.00  0.00     0.031 A 
ENDBRANCH   8  11
ENDBRANCH   2   5
BRANCH   1  17
HETATM   17  C   UNL     1       9.793  29.546  57.403  1.00  0.00     0.161 C 
BRANCH  17  18
HETATM   18  C   UNL     1       8.896  28.632  56.609  1.00  0.00    -0.038 A 
HETATM   19  C   UNL     1       8.486  27.400  57.143  1.00  0.00     0.009 A 
HETATM   20  C   UNL     1       7.645  26.554  56.415  1.00  0.00     0.003 A 
HETATM   21  C   UNL     1       7.208  26.926  55.144  1.00  0.00     0.036 A 
HETATM   22  C   UNL     1       7.615  28.146  54.613  1.00  0.00     0.066 A 
HETATM   23  C   UNL     1       8.449  28.998  55.332  1.00  0.00     0.045 A 
BRANCH  22  24
HETATM   24  O   UNL     1       7.215  28.550  53.374  1.00  0.00    -0.361 OA
HETATM   25  H   UNL     1       6.298  28.260  53.237  1.00  0.00     0.217 HD
ENDBRANCH  22  24
ENDBRANCH  17  18
ENDBRANCH   1  17
TORSDOF 5
ENDMDL
MODEL 4
REMARK VINA RESULT:      -9.2      5.196      8.261
REMARK  5 active torsions:
REMARK  status: ('A' for Active; 'I' for Inactive)
REMARK    1  A    between atoms: O_1  and  C_2 
REMARK    2  A    between atoms: C_6  and  C_7 
REMARK    3  A    between atoms: C_7  and  N_8 
REMARK       I    between atoms: N_8  and  C_9 
REMARK    4  A    between atoms: C_9  and  C_11 
REMARK    5  A    between atoms: C_14  and  C_17 
ROOT
HETATM    1  N   UNL     1       6.982  28.048  57.090  1.00  0.00    -0.353 N 
HETATM    2  C   UNL     1       6.045  27.321  56.389  1.00  0.00     0.251 C 
HETATM    3  O   UNL     1       4.892  27.695  56.206  1.00  0.00    -0.268 OA
HETATM    4  H   UNL     1       7.840  27.602  57.380  1.00  0.00     0.163 HD
ENDROOT
BRANCH   2   5
HETATM    5  C   UNL     1       6.482  25.990  55.882  1.00  0.00     0.032 A 
HETATM    6  C   UNL     1       7.301  25.207  56.702  1.00  0.00     0.018 A 
HETATM    7  C   UNL     1       7.757  23.960  56.262  1.00  0.00     0.013 A 
HETATM    8  C   UNL     1       7.397  23.459  55.000  1.00  0.00    -0.026 A 
HETATM    9  C   UNL     1       6.551  24.247  54.199  1.00  0.00     0.013 A 
HETATM   10  C   UNL     1       6.095  25.499  54.632  1.00  0.00     0.018 A 
BRANCH   8  11
HETATM   11  C   UNL     1       7.891  22.151  54.531  1.00  0.00    -0.023 A 
HETATM   12  C   UNL     1       7.839  21.795  53.177  1.00  0.00     0.031 A 
HETATM   13  C   UNL     1       8.307  20.549  52.787  1.00  0.00     0.117 A 
HETATM   14  N   UNL     1       8.822  19.641  53.639  1.00  0.00    -0.273 NA
HETATM   15  C   UNL     1       8.869  19.993  54.940  1.00  0.00     0.117 A 
HETATM   16  C   UNL     1       8.425  21.214  55.424  1.00  0.00     0.031 A 
ENDBRANCH   8  11
ENDBRANCH   2   5
BRANCH   1  17
HETATM   17  C   UNL     1       6.638  29.284  57.758  1.00  0.00     0.161 C 
BRANCH  17  18
HETATM   18  C   UNL     1       7.876  30.086  58.067  1.00  0.00    -0.038 A 
HETATM   19  C   UNL     1       9.103  29.760  57.468  1.00  0.00     0.009 A 
HETATM   20  C   UNL     1      10.250  30.508  57.743  1.00  0.00     0.003 A 
HETATM   21  C   UNL     1      10.187  31.588  58.622  1.00  0.00     0.036 A 
HETATM   22  C   UNL     1       8.972  31.911  59.219  1.00  0.00     0.066 A 
HETATM   23  C   UNL     1       7.822  31.176  58.948  1.00  0.00     0.045 A 
BRANCH  22  24
HETATM   24  O   UNL     1       8.865  32.957  60.088  1.00  0.00    -0.361 OA
HETATM   25  H   UNL     1       8.921  33.784  59.583  1.00  0.00     0.217 HD
ENDBRANCH  22  24
ENDBRANCH  17  18
ENDBRANCH   1  17
TORSDOF 5
ENDMDL
MODEL 5
REMARK VINA RESULT:      -9.1      5.514      8.753
REMARK  5 active torsions:
REMARK  status: ('A' for Active; 'I' for Inactive)
REMARK    1  A    between atoms: O_1  and  C_2 
REMARK    2  A    between atoms: C_6  and  C_7 
REMARK    3  A    between atoms: C_7  and  N_8 
REMARK       I    between atoms: N_8  and  C_9 
REMARK    4  A    between atoms: C_9  and  C_11 
REMARK    5  A    between atoms: C_14  and  C_17 
ROOT
HETATM    1  N   UNL     1       7.538  24.847  54.250  1.00  0.00    -0.353 N 
HETATM    2  C   UNL     1       6.565  25.551  54.925  1.00  0.00     0.251 C 
HETATM    3  O   UNL     1       5.369  25.295  54.856  1.00  0.00    -0.268 OA
HETATM    4  H   UNL     1       8.470  25.227  54.184  1.00  0.00     0.163 HD
ENDROOT
BRANCH   2   5
HETATM    5  C   UNL     1       7.030  26.710  55.737  1.00  0.00     0.032 A 
HETATM    6  C   UNL     1       7.427  27.871  55.066  1.00  0.00     0.018 A 
HETATM    7  C   UNL     1       7.893  28.978  55.782  1.00  0.00     0.013 A 
HETATM    8  C   UNL     1       7.962  28.959  57.185  1.00  0.00    -0.026 A 
HETATM    9  C   UNL     1       7.534  27.794  57.846  1.00  0.00     0.013 A 
HETATM   10  C   UNL     1       7.071  26.680  57.135  1.00  0.00     0.018 A 
BRANCH   8  11
HETATM   11  C   UNL     1       8.469  30.122  57.937  1.00  0.00    -0.023 A 
HETATM   12  C   UNL     1       7.627  30.880  58.761  1.00  0.00     0.031 A 
HETATM   13  C   UNL     1       8.148  31.971  59.440  1.00  0.00     0.117 A 
HETATM   14  N   UNL     1       9.437  32.357  59.362  1.00  0.00    -0.273 NA
HETATM   15  C   UNL     1      10.240  31.621  58.568  1.00  0.00     0.117 A 
HETATM   16  C   UNL     1       9.810  30.515  57.850  1.00  0.00     0.031 A 
ENDBRANCH   8  11
ENDBRANCH   2   5
BRANCH   1  17
HETATM   17  C   UNL     1       7.201  23.796  53.314  1.00  0.00     0.161 C 
BRANCH  17  18
HETATM   18  C   UNL     1       7.740  22.469  53.785  1.00  0.00    -0.038 A 
HETATM   19  C   UNL     1       8.099  21.479  52.857  1.00  0.00     0.009 A 
HETATM   20  C   UNL     1       8.610  20.252  53.289  1.00  0.00     0.003 A 
HETATM   21  C   UNL     1       8.763  19.998  54.652  1.00  0.00     0.036 A 
HETATM   22  C   UNL     1       8.405  20.978  55.572  1.00  0.00     0.066 A 
HETATM   23  C   UNL     1       7.900  22.206  55.152  1.00  0.00     0.045 A 
BRANCH  22  24
HETATM   24  O   UNL     1       8.534  20.773  56.914  1.00  0.00    -0.361 OA
HETATM   25  H   UNL     1       7.792  20.222  57.213  1.00  0.00     0.217 HD
ENDBRANCH  22  24
ENDBRANCH  17  18
ENDBRANCH   1  17
TORSDOF 5
ENDMDL
MODEL 6
REMARK VINA RESULT:      -9.0     10.095     12.103
REMARK  5 active torsions:
REMARK  status: ('A' for Active; 'I' for Inactive)
REMARK    1  A    between atoms: O_1  and  C_2 
REMARK    2  A    between atoms: C_6  and  C_7 
REMARK    3  A    between atoms: C_7  and  N_8 
REMARK       I    between atoms: N_8  and  C_9 
REMARK    4  A    between atoms: C_9  and  C_11 
REMARK    5  A    between atoms: C_14  and  C_17 
ROOT
HETATM    1  N   UNL     1       8.906  30.195  58.336  1.00  0.00    -0.353 N 
HETATM    2  C   UNL     1       9.325  31.395  58.868  1.00  0.00     0.251 C 
HETATM    3  O   UNL     1      10.199  32.093  58.366  1.00  0.00    -0.268 OA
HETATM    4  H   UNL     1       8.340  29.575  58.895  1.00  0.00     0.163 HD
ENDROOT
BRANCH   2   5
HETATM    5  C   UNL     1       8.691  31.808  60.151  1.00  0.00     0.032 A 
HETATM    6  C   UNL     1       7.374  32.276  60.116  1.00  0.00     0.018 A 
HETATM    7  C   UNL     1       6.741  32.698  61.290  1.00  0.00     0.013 A 
HETATM    8  C   UNL     1       7.403  32.651  62.529  1.00  0.00    -0.026 A 
HETATM    9  C   UNL     1       8.718  32.152  62.550  1.00  0.00     0.013 A 
HETATM   10  C   UNL     1       9.358  31.732  61.377  1.00  0.00     0.018 A 
BRANCH   8  11
HETATM   11  C   UNL     1       6.741  33.111  63.763  1.00  0.00    -0.023 A 
HETATM   12  C   UNL     1       7.482  33.551  64.868  1.00  0.00     0.031 A 
HETATM   13  C   UNL     1       6.814  33.964  66.010  1.00  0.00     0.117 A 
HETATM   14  N   UNL     1       5.471  33.973  66.132  1.00  0.00    -0.273 NA
HETATM   15  C   UNL     1       4.767  33.548  65.064  1.00  0.00     0.117 A 
HETATM   16  C   UNL     1       5.346  33.117  63.880  1.00  0.00     0.031 A 
ENDBRANCH   8  11
ENDBRANCH   2   5
BRANCH   1  17
HETATM   17  C   UNL     1       9.548  29.614  57.177  1.00  0.00     0.161 C 
BRANCH  17  18
HETATM   18  C   UNL     1       8.694  28.524  56.583  1.00  0.00    -0.038 A 
HETATM   19  C   UNL     1       8.250  28.612  55.255  1.00  0.00     0.009 A 
HETATM   20  C   UNL     1       7.467  27.598  54.697  1.00  0.00     0.003 A 
HETATM   21  C   UNL     1       7.114  26.487  55.462  1.00  0.00     0.036 A 
HETATM   22  C   UNL     1       7.552  26.399  56.780  1.00  0.00     0.066 A 
HETATM   23  C   UNL     1       8.336  27.401  57.343  1.00  0.00     0.045 A 
BRANCH  22  24
HETATM   24  O   UNL     1       7.228  25.332  57.565  1.00  0.00    -0.361 OA
HETATM   25  H   UNL     1       6.872  24.629  56.998  1.00  0.00     0.217 HD
ENDBRANCH  22  24
ENDBRANCH  17  18
ENDBRANCH   1  17
TORSDOF 5
ENDMDL
MODEL 7
REMARK VINA RESULT:      -9.0      5.759      8.639
REMARK  5 active torsions:
REMARK  status: ('A' for Active; 'I' for Inactive)
REMARK    1  A    between atoms: O_1  and  C_2 
REMARK    2  A    between atoms: C_6  and  C_7 
REMARK    3  A    between atoms: C_7  and  N_8 
REMARK       I    between atoms: N_8  and  C_9 
REMARK    4  A    between atoms: C_9  and  C_11 
REMARK    5  A    between atoms: C_14  and  C_17 
ROOT
HETATM    1  N   UNL     1       7.496  25.450  54.353  1.00  0.00    -0.353 N 
HETATM    2  C   UNL     1       6.498  26.211  54.923  1.00  0.00     0.251 C 
HETATM    3  O   UNL     1       5.306  26.062  54.680  1.00  0.00    -0.268 OA
HETATM    4  H   UNL     1       8.456  25.751  54.433  1.00  0.00     0.163 HD
ENDROOT
BRANCH   2   5
HETATM    5  C   UNL     1       6.937  27.295  55.845  1.00  0.00     0.032 A 
HETATM    6  C   UNL     1       6.099  28.403  56.009  1.00  0.00     0.018 A 
HETATM    7  C   UNL     1       6.477  29.458  56.846  1.00  0.00     0.013 A 
HETATM    8  C   UNL     1       7.693  29.428  57.549  1.00  0.00    -0.026 A 
HETATM    9  C   UNL     1       8.511  28.295  57.394  1.00  0.00     0.013 A 
HETATM   10  C   UNL     1       8.140  27.237  56.555  1.00  0.00     0.018 A 
BRANCH   8  11
HETATM   11  C   UNL     1       8.097  30.548  58.418  1.00  0.00    -0.023 A 
HETATM   12  C   UNL     1       7.147  31.323  59.098  1.00  0.00     0.031 A 
HETATM   13  C   UNL     1       7.576  32.372  59.896  1.00  0.00     0.117 A 
HETATM   14  N   UNL     1       8.871  32.705  60.066  1.00  0.00    -0.273 NA
HETATM   15  C   UNL     1       9.778  31.953  59.409  1.00  0.00     0.117 A 
HETATM   16  C   UNL     1       9.445  30.885  58.590  1.00  0.00     0.031 A 
ENDBRANCH   8  11
ENDBRANCH   2   5
BRANCH   1  17
HETATM   17  C   UNL     1       7.209  24.467  53.331  1.00  0.00     0.161 C 
BRANCH  17  18
HETATM   18  C   UNL     1       7.509  23.076  53.830  1.00  0.00    -0.038 A 
HETATM   19  C   UNL     1       7.473  22.790  55.203  1.00  0.00     0.009 A 
HETATM   20  C   UNL     1       7.739  21.500  55.669  1.00  0.00     0.003 A 
HETATM   21  C   UNL     1       8.049  20.482  54.768  1.00  0.00     0.036 A 
HETATM   22  C   UNL     1       8.088  20.765  53.406  1.00  0.00     0.066 A 
HETATM   23  C   UNL     1       7.819  22.045  52.932  1.00  0.00     0.045 A 
BRANCH  22  24
HETATM   24  O   UNL     1       8.390  19.801  52.489  1.00  0.00    -0.361 OA
HETATM   25  H   UNL     1       7.591  19.606  51.973  1.00  0.00     0.217 HD
ENDBRANCH  22  24
ENDBRANCH  17  18
ENDBRANCH   1  17
TORSDOF 5
ENDMDL
MODEL 8
REMARK VINA RESULT:      -8.7      4.717      7.382
REMARK  5 active torsions:
REMARK  status: ('A' for Active; 'I' for Inactive)
REMARK    1  A    between atoms: O_1  and  C_2 
REMARK    2  A    between atoms: C_6  and  C_7 
REMARK    3  A    between atoms: C_7  and  N_8 
REMARK       I    between atoms: N_8  and  C_9 
REMARK    4  A    between atoms: C_9  and  C_11 
REMARK    5  A    between atoms: C_14  and  C_17 
ROOT
HETATM    1  N   UNL     1       6.333  28.654  55.728  1.00  0.00    -0.353 N 
HETATM    2  C   UNL     1       6.169  27.980  54.538  1.00  0.00     0.251 C 
HETATM    3  O   UNL     1       5.664  28.478  53.538  1.00  0.00    -0.268 OA
HETATM    4  H   UNL     1       6.562  28.136  56.564  1.00  0.00     0.163 HD
ENDROOT
BRANCH   2   5
HETATM    5  C   UNL     1       6.598  26.553  54.520  1.00  0.00     0.032 A 
HETATM    6  C   UNL     1       7.404  26.119  53.463  1.00  0.00     0.018 A 
HETATM    7  C   UNL     1       7.815  24.784  53.388  1.00  0.00     0.013 A 
HETATM    8  C   UNL     1       7.442  23.854  54.372  1.00  0.00    -0.026 A 
HETATM    9  C   UNL     1       6.654  24.312  55.443  1.00  0.00     0.013 A 
HETATM   10  C   UNL     1       6.236  25.647  55.521  1.00  0.00     0.018 A 
BRANCH   8  11
HETATM   11  C   UNL     1       7.863  22.443  54.284  1.00  0.00    -0.023 A 
HETATM   12  C   UNL     1       8.083  21.674  55.434  1.00  0.00     0.031 A 
HETATM   13  C   UNL     1       8.487  20.355  55.299  1.00  0.00     0.117 A 
HETATM   14  N   UNL     1       8.686  19.749  54.111  1.00  0.00    -0.273 NA
HETATM   15  C   UNL     1       8.471  20.497  53.010  1.00  0.00     0.117 A 
HETATM   16  C   UNL     1       8.065  21.822  53.045  1.00  0.00     0.031 A 
ENDBRANCH   8  11
ENDBRANCH   2   5
BRANCH   1  17
HETATM   17  C   UNL     1       5.822  29.994  55.917  1.00  0.00     0.161 C 
BRANCH  17  18
HETATM   18  C   UNL     1       6.286  30.561  57.234  1.00  0.00    -0.038 A 
HETATM   19  C   UNL     1       5.715  31.739  57.741  1.00  0.00     0.009 A 
HETATM   20  C   UNL     1       6.134  32.262  58.967  1.00  0.00     0.003 A 
HETATM   21  C   UNL     1       7.132  31.619  59.697  1.00  0.00     0.036 A 
HETATM   22  C   UNL     1       7.701  30.453  59.195  1.00  0.00     0.066 A 
HETATM   23  C   UNL     1       7.287  29.920  57.977  1.00  0.00     0.045 A 
BRANCH  22  24
HETATM   24  O   UNL     1       8.683  29.792  59.873  1.00  0.00    -0.361 OA
HETATM   25  H   UNL     1       8.886  30.290  60.682  1.00  0.00     0.217 HD
ENDBRANCH  22  24
ENDBRANCH  17  18
ENDBRANCH   1  17
TORSDOF 5
ENDMDL
MODEL 9
REMARK VINA RESULT:      -8.7      1.497      1.934
REMARK  5 active torsions:
REMARK  status: ('A' for Active; 'I' for Inactive)
REMARK    1  A    between atoms: O_1  and  C_2 
REMARK    2  A    between atoms: C_6  and  C_7 
REMARK    3  A    between atoms: C_7  and  N_8 
REMARK       I    between atoms: N_8  and  C_9 
REMARK    4  A    between atoms: C_9  and  C_11 
REMARK    5  A    between atoms: C_14  and  C_17 
ROOT
HETATM    1  N   UNL     1       4.487  27.343  51.981  1.00  0.00    -0.353 N 
HETATM    2  C   UNL     1       5.726  27.318  52.584  1.00  0.00     0.251 C 
HETATM    3  O   UNL     1       6.391  28.322  52.812  1.00  0.00    -0.268 OA
HETATM    4  H   UNL     1       4.086  26.484  51.637  1.00  0.00     0.163 HD
ENDROOT
BRANCH   2   5
HETATM    5  C   UNL     1       6.273  25.974  52.918  1.00  0.00     0.032 A 
HETATM    6  C   UNL     1       5.908  25.396  54.138  1.00  0.00     0.018 A 
HETATM    7  C   UNL     1       6.413  24.146  54.509  1.00  0.00     0.013 A 
HETATM    8  C   UNL     1       7.283  23.435  53.666  1.00  0.00    -0.026 A 
HETATM    9  C   UNL     1       7.619  24.018  52.431  1.00  0.00     0.013 A 
HETATM   10  C   UNL     1       7.120  25.272  52.056  1.00  0.00     0.018 A 
BRANCH   8  11
HETATM   11  C   UNL     1       7.828  22.124  54.065  1.00  0.00    -0.023 A 
HETATM   12  C   UNL     1       7.803  21.701  55.400  1.00  0.00     0.031 A 
HETATM   13  C   UNL     1       8.336  20.463  55.727  1.00  0.00     0.117 A 
HETATM   14  N   UNL     1       8.887  19.623  54.829  1.00  0.00    -0.273 NA
HETATM   15  C   UNL     1       8.905  20.039  53.547  1.00  0.00     0.117 A 
HETATM   16  C   UNL     1       8.397  21.257  53.124  1.00  0.00     0.031 A 
ENDBRANCH   8  11
ENDBRANCH   2   5
BRANCH   1  17
HETATM   17  C   UNL     1       3.915  28.572  51.475  1.00  0.00     0.161 C 
BRANCH  17  18
HETATM   18  C   UNL     1       3.813  28.534  49.972  1.00  0.00    -0.038 A 
HETATM   19  C   UNL     1       2.812  29.260  49.309  1.00  0.00     0.009 A 
HETATM   20  C   UNL     1       2.721  29.237  47.915  1.00  0.00     0.003 A 
HETATM   21  C   UNL     1       3.627  28.485  47.167  1.00  0.00     0.036 A 
HETATM   22  C   UNL     1       4.618  27.763  47.823  1.00  0.00     0.066 A 
HETATM   23  C   UNL     1       4.720  27.783  49.211  1.00  0.00     0.045 A 
BRANCH  22  24
HETATM   24  O   UNL     1       5.523  27.011  47.133  1.00  0.00    -0.361 OA
HETATM   25  H   UNL     1       5.316  26.073  47.277  1.00  0.00     0.217 HD
ENDBRANCH  22  24
ENDBRANCH  17  18
ENDBRANCH   1  17
TORSDOF 5
ENDMDL
MODEL 10
REMARK VINA RESULT:      -8.5      6.517      9.395
REMARK  5 active torsions:
REMARK  status: ('A' for Active; 'I' for Inactive)
REMARK    1  A    between atoms: O_1  and  C_2 
REMARK    2  A    between atoms: C_6  and  C_7 
REMARK    3  A    between atoms: C_7  and  N_8 
REMARK       I    between atoms: N_8  and  C_9 
REMARK    4  A    between atoms: C_9  and  C_11 
REMARK    5  A    between atoms: C_14  and  C_17 
ROOT
HETATM    1  N   UNL     1       7.546  29.918  57.863  1.00  0.00    -0.353 N 
HETATM    2  C   UNL     1       6.757  29.268  56.940  1.00  0.00     0.251 C 
HETATM    3  O   UNL     1       5.767  29.768  56.419  1.00  0.00    -0.268 OA
HETATM    4  H   UNL     1       8.216  29.390  58.403  1.00  0.00     0.163 HD
ENDROOT
BRANCH   2   5
HETATM    5  C   UNL     1       7.134  27.863  56.619  1.00  0.00     0.032 A 
HETATM    6  C   UNL     1       6.748  27.342  55.380  1.00  0.00     0.018 A 
HETATM    7  C   UNL     1       7.058  26.021  55.040  1.00  0.00     0.013 A 
HETATM    8  C   UNL     1       7.772  25.192  55.923  1.00  0.00    -0.026 A 
HETATM    9  C   UNL     1       8.176  25.740  57.153  1.00  0.00     0.013 A 
HETATM   10  C   UNL     1       7.865  27.061  57.501  1.00  0.00     0.018 A 
BRANCH   8  11
HETATM   11  C   UNL     1       8.084  23.795  55.570  1.00  0.00    -0.023 A 
HETATM   12  C   UNL     1       8.262  22.816  56.556  1.00  0.00     0.031 A 
HETATM   13  C   UNL     1       8.564  21.518  56.175  1.00  0.00     0.117 A 
HETATM   14  N   UNL     1       8.700  21.125  54.893  1.00  0.00    -0.273 NA
HETATM   15  C   UNL     1       8.526  22.074  53.950  1.00  0.00     0.117 A 
HETATM   16  C   UNL     1       8.222  23.396  54.235  1.00  0.00     0.031 A 
ENDBRANCH   8  11
ENDBRANCH   2   5
BRANCH   1  17
HETATM   17  C   UNL     1       7.199  31.229  58.368  1.00  0.00     0.161 C 
BRANCH  17  18
HETATM   18  C   UNL     1       7.667  31.394  59.791  1.00  0.00    -0.038 A 
HETATM   19  C   UNL     1       7.315  32.536  60.527  1.00  0.00     0.009 A 
HETATM   20  C   UNL     1       7.737  32.688  61.850  1.00  0.00     0.003 A 
HETATM   21  C   UNL     1       8.518  31.703  62.452  1.00  0.00     0.036 A 
HETATM   22  C   UNL     1       8.869  30.571  61.724  1.00  0.00     0.066 A 
HETATM   23  C   UNL     1       8.450  30.408  60.407  1.00  0.00     0.045 A 
BRANCH  22  24
HETATM   24  O   UNL     1       9.635  29.584  62.271  1.00  0.00    -0.361 OA
HETATM   25  H   UNL     1      10.535  29.926  62.397  1.00  0.00     0.217 HD
ENDBRANCH  22  24
ENDBRANCH  17  18
ENDBRANCH   1  17
TORSDOF 5
ENDMDL
