MODEL 1
REMARK VINA RESULT:      -9.8      0.000      0.000
REMARK  10 active torsions:
REMARK  status: ('A' for Active; 'I' for Inactive)
REMARK    1  A    between atoms: C_2  and  O_3 
REMARK    2  A    between atoms: O_3  and  C_4 
REMARK    3  A    between atoms: C_9  and  C_10 
REMARK    4  A    between atoms: C_10  and  O_11 
REMARK    5  A    between atoms: O_11  and  C_12 
REMARK    6  A    between atoms: C_12  and  C_13 
REMARK       I    between atoms: C_13  and  N_14 
REMARK    7  A    between atoms: N_14  and  C_15 
REMARK    8  A    between atoms: C_16  and  C_17 
REMARK       I    between atoms: C_17  and  N_18 
REMARK    9  A    between atoms: N_18  and  C_19 
REMARK   10  A    between atoms: C_19  and  C_20 
ROOT
HETATM    1  C   UNL     1       6.965  28.419  55.825  1.00  0.00     0.050 A 
HETATM    2  C   UNL     1       6.837  27.035  55.564  1.00  0.00     0.058 A 
HETATM    3  C   UNL     1       5.825  26.564  54.709  1.00  0.00     0.019 A 
HETATM    4  C   UNL     1       4.915  27.446  54.132  1.00  0.00     0.001 A 
HETATM    5  C   UNL     1       5.015  28.804  54.405  1.00  0.00     0.002 A 
HETATM    6  C   UNL     1       6.029  29.284  55.241  1.00  0.00     0.030 A 
ENDROOT
BRANCH   1   7
HETATM    7  N   UNL     1       8.034  28.900  56.627  1.00  0.00    -0.324 N 
HETATM    8  C   UNL     1       9.250  29.408  56.201  1.00  0.00     0.246 C 
HETATM    9  O   UNL     1       9.621  29.532  55.036  1.00  0.00    -0.271 OA
HETATM   10  H   UNL     1       7.910  28.809  57.640  1.00  0.00     0.169 HD
BRANCH   8  11
HETATM   11  C   UNL     1      10.146  29.886  57.346  1.00  0.00     0.282 C 
BRANCH  11  12
HETATM   12  O   UNL     1       9.430  30.188  58.541  1.00  0.00    -0.308 OA
BRANCH  12  13
HETATM   13  C   UNL     1       9.560  31.467  58.977  1.00  0.00     0.298 C 
HETATM   14  O   UNL     1      10.286  32.304  58.468  1.00  0.00    -0.259 OA
BRANCH  13  15
HETATM   15  C   UNL     1       8.696  31.653  60.163  1.00  0.00     0.092 A 
HETATM   16  C   UNL     1       7.409  32.165  60.048  1.00  0.00     0.180 A 
HETATM   17  N   UNL     1       6.594  32.362  61.118  1.00  0.00    -0.236 NA
HETATM   18  C   UNL     1       7.078  32.043  62.338  1.00  0.00     0.119 A 
HETATM   19  C   UNL     1       8.344  31.529  62.550  1.00  0.00     0.020 A 
HETATM   20  C   UNL     1       9.166  31.333  61.444  1.00  0.00     0.023 A 
BRANCH  16  21
HETATM   21  O   UNL     1       6.915  32.441  58.791  1.00  0.00    -0.334 OA
BRANCH  21  22
HETATM   22  C   UNL     1       5.818  31.610  58.405  1.00  0.00     0.173 C 
HETATM   23  C   UNL     1       5.182  32.216  57.168  1.00  0.00     0.034 C 
ENDBRANCH  21  22
ENDBRANCH  16  21
ENDBRANCH  13  15
ENDBRANCH  12  13
ENDBRANCH  11  12
ENDBRANCH   8  11
ENDBRANCH   1   7
BRANCH   2  24
HETATM   24  C   UNL     1       7.686  25.983  56.196  1.00  0.00     0.254 C 
HETATM   25  N   UNL     1       7.695  24.759  55.562  1.00  0.00    -0.349 N 
HETATM   26  H   UNL     1       7.354  24.740  54.608  1.00  0.00     0.163 HD
HETATM   27  O   UNL     1       8.381  26.252  57.169  1.00  0.00    -0.268 OA
BRANCH  25  28
HETATM   28  C   UNL     1       8.630  23.704  55.932  1.00  0.00     0.114 C 
HETATM   29  C   UNL     1       8.425  23.203  57.366  1.00  0.00     0.037 C 
BRANCH  28  30
HETATM   30  C   UNL     1       8.517  22.576  54.917  1.00  0.00    -0.036 A 
HETATM   31  C   UNL     1       8.841  21.251  55.252  1.00  0.00     0.009 A 
HETATM   32  C   UNL     1       8.701  20.224  54.317  1.00  0.00     0.001 A 
HETATM   33  C   UNL     1       8.227  20.505  53.039  1.00  0.00     0.000 A 
HETATM   34  C   UNL     1       7.891  21.813  52.693  1.00  0.00     0.001 A 
HETATM   35  C   UNL     1       8.031  22.842  53.627  1.00  0.00     0.009 A 
ENDBRANCH  28  30
ENDBRANCH  25  28
ENDBRANCH   2  24
TORSDOF 10
ENDMDL
MODEL 2
REMARK VINA RESULT:      -9.5      2.119      3.648
REMARK  10 active torsions:
REMARK  status: ('A' for Active; 'I' for Inactive)
REMARK    1  A    between atoms: C_2  and  O_3 
REMARK    2  A    between atoms: O_3  and  C_4 
REMARK    3  A    between atoms: C_9  and  C_10 
REMARK    4  A    between atoms: C_10  and  O_11 
REMARK    5  A    between atoms: O_11  and  C_12 
REMARK    6  A    between atoms: C_12  and  C_13 
REMARK       I    between atoms: C_13  and  N_14 
REMARK    7  A    between atoms: N_14  and  C_15 
REMARK    8  A    between atoms: C_16  and  C_17 
REMARK       I    between atoms: C_17  and  N_18 
REMARK    9  A    between atoms: N_18  and  C_19 
REMARK   10  A    between atoms: C_19  and  C_20 
ROOT
HETATM    1  C   UNL     1       5.669  28.065  52.864  1.00  0.00     0.050 A 
HETATM    2  C   UNL     1       6.266  26.783  52.855  1.00  0.00     0.058 A 
HETATM    3  C   UNL     1       6.060  25.910  51.772  1.00  0.00     0.019 A 
HETATM    4  C   UNL     1       5.242  26.280  50.708  1.00  0.00     0.001 A 
HETATM    5  C   UNL     1       4.628  27.526  50.721  1.00  0.00     0.002 A 
HETATM    6  C   UNL     1       4.840  28.408  51.786  1.00  0.00     0.030 A 
ENDROOT
BRANCH   1   7
HETATM    7  N   UNL     1       5.940  28.973  53.921  1.00  0.00    -0.324 N 
HETATM    8  C   UNL     1       5.237  29.129  55.104  1.00  0.00     0.246 C 
HETATM    9  O   UNL     1       4.241  28.497  55.450  1.00  0.00    -0.271 OA
HETATM   10  H   UNL     1       6.713  29.627  53.764  1.00  0.00     0.169 HD
BRANCH   8  11
HETATM   11  C   UNL     1       5.847  30.172  56.044  1.00  0.00     0.282 C 
BRANCH  11  12
HETATM   12  O   UNL     1       6.034  29.699  57.375  1.00  0.00    -0.308 OA
BRANCH  12  13
HETATM   13  C   UNL     1       7.020  28.777  57.519  1.00  0.00     0.298 C 
HETATM   14  O   UNL     1       6.839  27.578  57.639  1.00  0.00    -0.259 OA
BRANCH  13  15
HETATM   15  C   UNL     1       8.324  29.476  57.523  1.00  0.00     0.092 A 
HETATM   16  C   UNL     1       8.653  30.390  58.517  1.00  0.00     0.180 A 
HETATM   17  N   UNL     1       9.835  31.060  58.543  1.00  0.00    -0.236 NA
HETATM   18  C   UNL     1      10.714  30.814  57.548  1.00  0.00     0.119 A 
HETATM   19  C   UNL     1      10.475  29.922  56.517  1.00  0.00     0.020 A 
HETATM   20  C   UNL     1       9.260  29.245  56.505  1.00  0.00     0.023 A 
BRANCH  16  21
HETATM   21  O   UNL     1       7.763  30.594  59.550  1.00  0.00    -0.334 OA
BRANCH  21  22
HETATM   22  C   UNL     1       7.525  31.972  59.845  1.00  0.00     0.173 C 
HETATM   23  C   UNL     1       7.907  32.216  61.293  1.00  0.00     0.034 C 
ENDBRANCH  21  22
ENDBRANCH  16  21
ENDBRANCH  13  15
ENDBRANCH  12  13
ENDBRANCH  11  12
ENDBRANCH   8  11
ENDBRANCH   1   7
BRANCH   2  24
HETATM   24  C   UNL     1       7.082  26.234  53.977  1.00  0.00     0.254 C 
HETATM   25  N   UNL     1       6.862  24.908  54.287  1.00  0.00    -0.349 N 
HETATM   26  H   UNL     1       6.379  24.354  53.589  1.00  0.00     0.163 HD
HETATM   27  O   UNL     1       7.942  26.925  54.510  1.00  0.00    -0.268 OA
BRANCH  25  28
HETATM   28  C   UNL     1       7.722  24.177  55.208  1.00  0.00     0.114 C 
HETATM   29  C   UNL     1       7.210  24.205  56.651  1.00  0.00     0.037 C 
BRANCH  28  30
HETATM   30  C   UNL     1       7.887  22.755  54.692  1.00  0.00    -0.036 A 
HETATM   31  C   UNL     1       8.019  22.482  53.320  1.00  0.00     0.009 A 
HETATM   32  C   UNL     1       8.202  21.175  52.866  1.00  0.00     0.001 A 
HETATM   33  C   UNL     1       8.263  20.124  53.778  1.00  0.00     0.000 A 
HETATM   34  C   UNL     1       8.143  20.377  55.142  1.00  0.00     0.001 A 
HETATM   35  C   UNL     1       7.960  21.685  55.598  1.00  0.00     0.009 A 
ENDBRANCH  28  30
ENDBRANCH  25  28
ENDBRANCH   2  24
TORSDOF 10
ENDMDL
MODEL 3
REMARK VINA RESULT:      -9.5      2.211      3.388
REMARK  10 active torsions:
REMARK  status: ('A' for Active; 'I' for Inactive)
REMARK    1  A    between atoms: C_2  and  O_3 
REMARK    2  A    between atoms: O_3  and  C_4 
REMARK    3  A    between atoms: C_9  and  C_10 
REMARK    4  A    between atoms: C_10  and  O_11 
REMARK    5  A    between atoms: O_11  and  C_12 
REMARK    6  A    between atoms: C_12  and  C_13 
REMARK       I    between atoms: C_13  and  N_14 
REMARK    7  A    between atoms: N_14  and  C_15 
REMARK    8  A    between atoms: C_16  and  C_17 
REMARK       I    between atoms: C_17  and  N_18 
REMARK    9  A    between atoms: N_18  and  C_19 
REMARK   10  A    between atoms: C_19  and  C_20 
ROOT
HETATM    1  C   UNL     1       5.465  28.217  52.723  1.00  0.00     0.050 A 
HETATM    2  C   UNL     1       6.115  26.962  52.762  1.00  0.00     0.058 A 
HETATM    3  C   UNL     1       6.006  26.071  51.679  1.00  0.00     0.019 A 
HETATM    4  C   UNL     1       5.231  26.395  50.569  1.00  0.00     0.001 A 
HETATM    5  C   UNL     1       4.564  27.613  50.535  1.00  0.00     0.002 A 
HETATM    6  C   UNL     1       4.681  28.513  51.599  1.00  0.00     0.030 A 
ENDROOT
BRANCH   1   7
HETATM    7  N   UNL     1       5.639  29.146  53.783  1.00  0.00    -0.324 N 
HETATM    8  C   UNL     1       4.864  29.285  54.922  1.00  0.00     0.246 C 
HETATM    9  O   UNL     1       3.875  28.619  55.219  1.00  0.00    -0.271 OA
HETATM   10  H   UNL     1       6.393  29.828  53.661  1.00  0.00     0.169 HD
BRANCH   8  11
HETATM   11  C   UNL     1       5.378  30.362  55.882  1.00  0.00     0.282 C 
BRANCH  11  12
HETATM   12  O   UNL     1       6.736  30.175  56.271  1.00  0.00    -0.308 OA
BRANCH  12  13
HETATM   13  C   UNL     1       6.907  29.572  57.475  1.00  0.00     0.298 C 
HETATM   14  O   UNL     1       6.618  28.413  57.719  1.00  0.00    -0.259 OA
BRANCH  13  15
HETATM   15  C   UNL     1       7.476  30.556  58.421  1.00  0.00     0.092 A 
HETATM   16  C   UNL     1       8.832  30.568  58.725  1.00  0.00     0.180 A 
HETATM   17  N   UNL     1       9.386  31.449  59.600  1.00  0.00    -0.236 NA
HETATM   18  C   UNL     1       8.563  32.341  60.192  1.00  0.00     0.119 A 
HETATM   19  C   UNL     1       7.202  32.405  59.953  1.00  0.00     0.020 A 
HETATM   20  C   UNL     1       6.651  31.496  59.055  1.00  0.00     0.023 A 
BRANCH  16  21
HETATM   21  O   UNL     1       9.665  29.681  58.076  1.00  0.00    -0.334 OA
BRANCH  21  22
HETATM   22  C   UNL     1      10.497  30.287  57.085  1.00  0.00     0.173 C 
HETATM   23  C   UNL     1      10.183  29.641  55.749  1.00  0.00     0.034 C 
ENDBRANCH  21  22
ENDBRANCH  16  21
ENDBRANCH  13  15
ENDBRANCH  12  13
ENDBRANCH  11  12
ENDBRANCH   8  11
ENDBRANCH   1   7
BRANCH   2  24
HETATM   24  C   UNL     1       6.894  26.459  53.931  1.00  0.00     0.254 C 
HETATM   25  N   UNL     1       6.705  25.132  54.252  1.00  0.00    -0.349 N 
HETATM   26  H   UNL     1       6.277  24.550  53.541  1.00  0.00     0.163 HD
HETATM   27  O   UNL     1       7.701  27.189  54.495  1.00  0.00    -0.268 OA
BRANCH  25  28
HETATM   28  C   UNL     1       7.543  24.446  55.227  1.00  0.00     0.114 C 
HETATM   29  C   UNL     1       6.976  24.507  56.649  1.00  0.00     0.037 C 
BRANCH  28  30
HETATM   30  C   UNL     1       7.754  23.012  54.762  1.00  0.00    -0.036 A 
HETATM   31  C   UNL     1       7.758  21.939  55.669  1.00  0.00     0.009 A 
HETATM   32  C   UNL     1       7.921  20.627  55.222  1.00  0.00     0.001 A 
HETATM   33  C   UNL     1       8.073  20.369  53.862  1.00  0.00     0.000 A 
HETATM   34  C   UNL     1       8.062  21.420  52.948  1.00  0.00     0.001 A 
HETATM   35  C   UNL     1       7.899  22.734  53.394  1.00  0.00     0.009 A 
ENDBRANCH  28  30
ENDBRANCH  25  28
ENDBRANCH   2  24
TORSDOF 10
ENDMDL
MODEL 4
REMARK VINA RESULT:      -9.3      2.663      5.085
REMARK  10 active torsions:
REMARK  status: ('A' for Active; 'I' for Inactive)
REMARK    1  A    between atoms: C_2  and  O_3 
REMARK    2  A    between atoms: O_3  and  C_4 
REMARK    3  A    between atoms: C_9  and  C_10 
REMARK    4  A    between atoms: C_10  and  O_11 
REMARK    5  A    between atoms: O_11  and  C_12 
REMARK    6  A    between atoms: C_12  and  C_13 
REMARK       I    between atoms: C_13  and  N_14 
REMARK    7  A    between atoms: N_14  and  C_15 
REMARK    8  A    between atoms: C_16  and  C_17 
REMARK       I    between atoms: C_17  and  N_18 
REMARK    9  A    between atoms: N_18  and  C_19 
REMARK   10  A    between atoms: C_19  and  C_20 
ROOT
HETATM    1  C   UNL     1       7.836  30.493  58.366  1.00  0.00     0.050 A 
HETATM    2  C   UNL     1       7.882  29.434  57.431  1.00  0.00     0.058 A 
HETATM    3  C   UNL     1       9.106  29.044  56.857  1.00  0.00     0.019 A 
HETATM    4  C   UNL     1      10.284  29.714  57.176  1.00  0.00     0.001 A 
HETATM    5  C   UNL     1      10.244  30.775  58.071  1.00  0.00     0.002 A 
HETATM    6  C   UNL     1       9.035  31.159  58.660  1.00  0.00     0.030 A 
ENDROOT
BRANCH   1   7
HETATM    7  N   UNL     1       6.613  30.834  59.001  1.00  0.00    -0.324 N 
HETATM    8  C   UNL     1       5.807  31.933  58.752  1.00  0.00     0.246 C 
HETATM    9  O   UNL     1       6.015  32.818  57.925  1.00  0.00    -0.271 OA
HETATM   10  H   UNL     1       6.322  30.225  59.772  1.00  0.00     0.169 HD
BRANCH   8  11
HETATM   11  C   UNL     1       4.528  31.955  59.593  1.00  0.00     0.282 C 
BRANCH  11  12
HETATM   12  O   UNL     1       4.623  32.777  60.753  1.00  0.00    -0.308 OA
BRANCH  12  13
HETATM   13  C   UNL     1       4.460  32.123  61.931  1.00  0.00     0.298 C 
HETATM   14  O   UNL     1       3.532  31.376  62.189  1.00  0.00    -0.259 OA
BRANCH  13  15
HETATM   15  C   UNL     1       5.576  32.486  62.832  1.00  0.00     0.092 A 
HETATM   16  C   UNL     1       5.357  33.191  64.010  1.00  0.00     0.180 A 
HETATM   17  N   UNL     1       6.360  33.552  64.853  1.00  0.00    -0.236 NA
HETATM   18  C   UNL     1       7.619  33.204  64.510  1.00  0.00     0.119 A 
HETATM   19  C   UNL     1       7.934  32.504  63.359  1.00  0.00     0.020 A 
HETATM   20  C   UNL     1       6.896  32.141  62.507  1.00  0.00     0.023 A 
BRANCH  16  21
HETATM   21  O   UNL     1       4.061  33.497  64.367  1.00  0.00    -0.334 OA
BRANCH  21  22
HETATM   22  C   UNL     1       3.845  34.886  64.626  1.00  0.00     0.173 C 
HETATM   23  C   UNL     1       3.449  35.036  66.084  1.00  0.00     0.034 C 
ENDBRANCH  21  22
ENDBRANCH  16  21
ENDBRANCH  13  15
ENDBRANCH  12  13
ENDBRANCH  11  12
ENDBRANCH   8  11
ENDBRANCH   1   7
BRANCH   2  24
HETATM   24  C   UNL     1       6.679  28.702  56.936  1.00  0.00     0.254 C 
HETATM   25  N   UNL     1       6.805  28.108  55.699  1.00  0.00    -0.349 N 
HETATM   26  H   UNL     1       7.748  27.986  55.348  1.00  0.00     0.163 HD
HETATM   27  O   UNL     1       5.688  28.591  57.648  1.00  0.00    -0.268 OA
BRANCH  25  28
HETATM   28  C   UNL     1       5.801  27.189  55.177  1.00  0.00     0.114 C 
HETATM   29  C   UNL     1       4.738  27.890  54.324  1.00  0.00     0.037 C 
BRANCH  28  30
HETATM   30  C   UNL     1       6.508  26.084  54.407  1.00  0.00    -0.036 A 
HETATM   31  C   UNL     1       7.266  26.360  53.256  1.00  0.00     0.009 A 
HETATM   32  C   UNL     1       7.935  25.338  52.580  1.00  0.00     0.001 A 
HETATM   33  C   UNL     1       7.862  24.029  53.049  1.00  0.00     0.000 A 
HETATM   34  C   UNL     1       7.123  23.739  54.194  1.00  0.00     0.001 A 
HETATM   35  C   UNL     1       6.453  24.760  54.872  1.00  0.00     0.009 A 
ENDBRANCH  28  30
ENDBRANCH  25  28
ENDBRANCH   2  24
TORSDOF 10
ENDMDL
MODEL 5
REMARK VINA RESULT:      -9.2      2.451      8.810
REMARK  10 active torsions:
REMARK  status: ('A' for Active; 'I' for Inactive)
REMARK    1  A    between atoms: C_2  and  O_3 
REMARK    2  A    between atoms: O_3  and  C_4 
REMARK    3  A    between atoms: C_9  and  C_10 
REMARK    4  A    between atoms: C_10  and  O_11 
REMARK    5  A    between atoms: O_11  and  C_12 
REMARK    6  A    between atoms: C_12  and  C_13 
REMARK       I    between atoms: C_13  and  N_14 
REMARK    7  A    between atoms: N_14  and  C_15 
REMARK    8  A    between atoms: C_16  and  C_17 
REMARK       I    between atoms: C_17  and  N_18 
REMARK    9  A    between atoms: N_18  and  C_19 
REMARK   10  A    between atoms: C_19  and  C_20 
ROOT
HETATM    1  C   UNL     1       4.435  28.700  54.473  1.00  0.00     0.050 A 
HETATM    2  C   UNL     1       5.056  29.445  55.501  1.00  0.00     0.058 A 
HETATM    3  C   UNL     1       4.830  30.829  55.612  1.00  0.00     0.019 A 
HETATM    4  C   UNL     1       4.018  31.491  54.695  1.00  0.00     0.001 A 
HETATM    5  C   UNL     1       3.426  30.772  53.664  1.00  0.00     0.002 A 
HETATM    6  C   UNL     1       3.632  29.393  53.555  1.00  0.00     0.030 A 
ENDROOT
BRANCH   1   7
HETATM    7  N   UNL     1       4.603  27.291  54.408  1.00  0.00    -0.324 N 
HETATM    8  C   UNL     1       4.996  26.535  53.316  1.00  0.00     0.246 C 
HETATM    9  O   UNL     1       5.271  26.958  52.196  1.00  0.00    -0.271 OA
HETATM   10  H   UNL     1       4.351  26.770  55.253  1.00  0.00     0.169 HD
BRANCH   8  11
HETATM   11  C   UNL     1       5.125  25.041  53.623  1.00  0.00     0.282 C 
BRANCH  11  12
HETATM   12  O   UNL     1       6.100  24.377  52.823  1.00  0.00    -0.308 OA
BRANCH  12  13
HETATM   13  C   UNL     1       7.339  24.308  53.373  1.00  0.00     0.298 C 
HETATM   14  O   UNL     1       8.113  25.246  53.462  1.00  0.00    -0.259 OA
BRANCH  13  15
HETATM   15  C   UNL     1       7.583  22.919  53.818  1.00  0.00     0.092 A 
HETATM   16  C   UNL     1       7.554  22.573  55.164  1.00  0.00     0.180 A 
HETATM   17  N   UNL     1       7.787  21.311  55.608  1.00  0.00    -0.236 NA
HETATM   18  C   UNL     1       8.060  20.365  54.683  1.00  0.00     0.119 A 
HETATM   19  C   UNL     1       8.112  20.614  53.323  1.00  0.00     0.020 A 
HETATM   20  C   UNL     1       7.871  21.912  52.885  1.00  0.00     0.023 A 
BRANCH  16  21
HETATM   21  O   UNL     1       7.226  23.542  56.089  1.00  0.00    -0.334 OA
BRANCH  21  22
HETATM   22  C   UNL     1       8.289  23.865  56.988  1.00  0.00     0.173 C 
HETATM   23  C   UNL     1       8.382  25.377  57.080  1.00  0.00     0.034 C 
ENDBRANCH  21  22
ENDBRANCH  16  21
ENDBRANCH  13  15
ENDBRANCH  12  13
ENDBRANCH  11  12
ENDBRANCH   8  11
ENDBRANCH   1   7
BRANCH   2  24
HETATM   24  C   UNL     1       6.020  28.871  56.484  1.00  0.00     0.254 C 
HETATM   25  N   UNL     1       7.155  29.619  56.719  1.00  0.00    -0.349 N 
HETATM   26  H   UNL     1       7.128  30.588  56.424  1.00  0.00     0.163 HD
HETATM   27  O   UNL     1       5.748  27.838  57.085  1.00  0.00    -0.268 OA
BRANCH  25  28
HETATM   28  C   UNL     1       8.081  29.299  57.797  1.00  0.00     0.114 C 
HETATM   29  C   UNL     1       9.529  29.156  57.316  1.00  0.00     0.037 C 
BRANCH  28  30
HETATM   30  C   UNL     1       7.947  30.357  58.882  1.00  0.00    -0.036 A 
HETATM   31  C   UNL     1       8.818  30.394  59.984  1.00  0.00     0.009 A 
HETATM   32  C   UNL     1       8.701  31.391  60.954  1.00  0.00     0.001 A 
HETATM   33  C   UNL     1       7.717  32.369  60.832  1.00  0.00     0.000 A 
HETATM   34  C   UNL     1       6.851  32.353  59.740  1.00  0.00     0.001 A 
HETATM   35  C   UNL     1       6.967  31.356  58.769  1.00  0.00     0.009 A 
ENDBRANCH  28  30
ENDBRANCH  25  28
ENDBRANCH   2  24
TORSDOF 10
ENDMDL
MODEL 6
REMARK VINA RESULT:      -9.0      2.076      5.553
REMARK  10 active torsions:
REMARK  status: ('A' for Active; 'I' for Inactive)
REMARK    1  A    between atoms: C_2  and  O_3 
REMARK    2  A    between atoms: O_3  and  C_4 
REMARK    3  A    between atoms: C_9  and  C_10 
REMARK    4  A    between atoms: C_10  and  O_11 
REMARK    5  A    between atoms: O_11  and  C_12 
REMARK    6  A    between atoms: C_12  and  C_13 
REMARK       I    between atoms: C_13  and  N_14 
REMARK    7  A    between atoms: N_14  and  C_15 
REMARK    8  A    between atoms: C_16  and  C_17 
REMARK       I    between atoms: C_17  and  N_18 
REMARK    9  A    between atoms: N_18  and  C_19 
REMARK   10  A    between atoms: C_19  and  C_20 
ROOT
HETATM    1  C   UNL     1       7.943  23.711  55.031  1.00  0.00     0.050 A 
HETATM    2  C   UNL     1       7.686  23.743  53.641  1.00  0.00     0.058 A 
HETATM    3  C   UNL     1       7.642  22.550  52.898  1.00  0.00     0.019 A 
HETATM    4  C   UNL     1       7.883  21.323  53.511  1.00  0.00     0.001 A 
HETATM    5  C   UNL     1       8.165  21.283  54.870  1.00  0.00     0.002 A 
HETATM    6  C   UNL     1       8.194  22.463  55.621  1.00  0.00     0.030 A 
ENDROOT
BRANCH   1   7
HETATM    7  N   UNL     1       7.911  24.908  55.793  1.00  0.00    -0.324 N 
HETATM    8  C   UNL     1       6.883  25.373  56.597  1.00  0.00     0.246 C 
HETATM    9  O   UNL     1       5.803  24.821  56.793  1.00  0.00    -0.271 OA
HETATM   10  H   UNL     1       8.722  25.526  55.692  1.00  0.00     0.169 HD
BRANCH   8  11
HETATM   11  C   UNL     1       7.217  26.683  57.316  1.00  0.00     0.282 C 
BRANCH  11  12
HETATM   12  O   UNL     1       8.437  27.277  56.880  1.00  0.00    -0.308 OA
BRANCH  12  13
HETATM   13  C   UNL     1       8.295  28.455  56.221  1.00  0.00     0.298 C 
HETATM   14  O   UNL     1       7.744  28.586  55.142  1.00  0.00    -0.259 OA
BRANCH  13  15
HETATM   15  C   UNL     1       8.930  29.525  57.022  1.00  0.00     0.092 A 
HETATM   16  C   UNL     1       8.183  30.342  57.862  1.00  0.00     0.180 A 
HETATM   17  N   UNL     1       8.732  31.342  58.600  1.00  0.00    -0.236 NA
HETATM   18  C   UNL     1      10.065  31.536  58.494  1.00  0.00     0.119 A 
HETATM   19  C   UNL     1      10.888  30.775  57.685  1.00  0.00     0.020 A 
HETATM   20  C   UNL     1      10.311  29.754  56.936  1.00  0.00     0.023 A 
BRANCH  16  21
HETATM   21  O   UNL     1       6.832  30.099  57.993  1.00  0.00    -0.334 OA
BRANCH  21  22
HETATM   22  C   UNL     1       6.049  31.278  58.192  1.00  0.00     0.173 C 
HETATM   23  C   UNL     1       5.292  31.561  56.908  1.00  0.00     0.034 C 
ENDBRANCH  21  22
ENDBRANCH  16  21
ENDBRANCH  13  15
ENDBRANCH  12  13
ENDBRANCH  11  12
ENDBRANCH   8  11
ENDBRANCH   1   7
BRANCH   2  24
HETATM   24  C   UNL     1       7.508  24.997  52.853  1.00  0.00     0.254 C 
HETATM   25  N   UNL     1       6.313  25.115  52.174  1.00  0.00    -0.349 N 
HETATM   26  H   UNL     1       5.566  24.494  52.460  1.00  0.00     0.163 HD
HETATM   27  O   UNL     1       8.357  25.880  52.896  1.00  0.00    -0.268 OA
BRANCH  25  28
HETATM   28  C   UNL     1       5.907  26.361  51.536  1.00  0.00     0.114 C 
HETATM   29  C   UNL     1       4.971  26.142  50.343  1.00  0.00     0.037 C 
BRANCH  28  30
HETATM   30  C   UNL     1       5.281  27.262  52.590  1.00  0.00    -0.036 A 
HETATM   31  C   UNL     1       5.006  26.796  53.886  1.00  0.00     0.009 A 
HETATM   32  C   UNL     1       4.462  27.645  54.851  1.00  0.00     0.001 A 
HETATM   33  C   UNL     1       4.191  28.974  54.535  1.00  0.00     0.000 A 
HETATM   34  C   UNL     1       4.466  29.456  53.257  1.00  0.00     0.001 A 
HETATM   35  C   UNL     1       5.011  28.607  52.291  1.00  0.00     0.009 A 
ENDBRANCH  28  30
ENDBRANCH  25  28
ENDBRANCH   2  24
TORSDOF 10
ENDMDL
MODEL 7
REMARK VINA RESULT:      -8.8      2.436      8.460
REMARK  10 active torsions:
REMARK  status: ('A' for Active; 'I' for Inactive)
REMARK    1  A    between atoms: C_2  and  O_3 
REMARK    2  A    between atoms: O_3  and  C_4 
REMARK    3  A    between atoms: C_9  and  C_10 
REMARK    4  A    between atoms: C_10  and  O_11 
REMARK    5  A    between atoms: O_11  and  C_12 
REMARK    6  A    between atoms: C_12  and  C_13 
REMARK       I    between atoms: C_13  and  N_14 
REMARK    7  A    between atoms: N_14  and  C_15 
REMARK    8  A    between atoms: C_16  and  C_17 
REMARK       I    between atoms: C_17  and  N_18 
REMARK    9  A    between atoms: N_18  and  C_19 
REMARK   10  A    between atoms: C_19  and  C_20 
ROOT
HETATM    1  C   UNL     1       4.483  28.626  54.524  1.00  0.00     0.050 A 
HETATM    2  C   UNL     1       5.091  29.398  55.540  1.00  0.00     0.058 A 
HETATM    3  C   UNL     1       4.822  30.775  55.644  1.00  0.00     0.019 A 
HETATM    4  C   UNL     1       3.979  31.404  54.731  1.00  0.00     0.001 A 
HETATM    5  C   UNL     1       3.400  30.659  53.712  1.00  0.00     0.002 A 
HETATM    6  C   UNL     1       3.649  29.287  53.611  1.00  0.00     0.030 A 
ENDROOT
BRANCH   1   7
HETATM    7  N   UNL     1       4.696  27.223  54.467  1.00  0.00    -0.324 N 
HETATM    8  C   UNL     1       4.946  26.450  53.345  1.00  0.00     0.246 C 
HETATM    9  O   UNL     1       5.028  26.850  52.187  1.00  0.00    -0.271 OA
HETATM   10  H   UNL     1       4.598  26.718  55.353  1.00  0.00     0.169 HD
BRANCH   8  11
HETATM   11  C   UNL     1       5.180  24.971  53.664  1.00  0.00     0.282 C 
BRANCH  11  12
HETATM   12  O   UNL     1       6.284  24.405  52.962  1.00  0.00    -0.308 OA
BRANCH  12  13
HETATM   13  C   UNL     1       7.489  24.957  53.253  1.00  0.00     0.298 C 
HETATM   14  O   UNL     1       8.146  25.638  52.485  1.00  0.00    -0.259 OA
BRANCH  13  15
HETATM   15  C   UNL     1       7.862  24.577  54.633  1.00  0.00     0.092 A 
HETATM   16  C   UNL     1       8.394  23.326  54.922  1.00  0.00     0.180 A 
HETATM   17  N   UNL     1       8.734  22.940  56.179  1.00  0.00    -0.236 NA
HETATM   18  C   UNL     1       8.535  23.825  57.179  1.00  0.00     0.119 A 
HETATM   19  C   UNL     1       8.012  25.091  56.989  1.00  0.00     0.020 A 
HETATM   20  C   UNL     1       7.668  25.472  55.696  1.00  0.00     0.023 A 
BRANCH  16  21
HETATM   21  O   UNL     1       8.634  22.453  53.882  1.00  0.00    -0.334 OA
BRANCH  21  22
HETATM   22  C   UNL     1       7.981  21.190  54.025  1.00  0.00     0.173 C 
HETATM   23  C   UNL     1       8.343  20.335  52.825  1.00  0.00     0.034 C 
ENDBRANCH  21  22
ENDBRANCH  16  21
ENDBRANCH  13  15
ENDBRANCH  12  13
ENDBRANCH  11  12
ENDBRANCH   8  11
ENDBRANCH   1   7
BRANCH   2  24
HETATM   24  C   UNL     1       6.084  28.862  56.516  1.00  0.00     0.254 C 
HETATM   25  N   UNL     1       7.299  29.513  56.555  1.00  0.00    -0.349 N 
HETATM   26  H   UNL     1       7.334  30.433  56.131  1.00  0.00     0.163 HD
HETATM   27  O   UNL     1       5.774  27.951  57.275  1.00  0.00    -0.268 OA
BRANCH  25  28
HETATM   28  C   UNL     1       8.286  29.245  57.594  1.00  0.00     0.114 C 
HETATM   29  C   UNL     1       9.682  28.960  57.029  1.00  0.00     0.037 C 
BRANCH  28  30
HETATM   30  C   UNL     1       8.296  30.413  58.568  1.00  0.00    -0.036 A 
HETATM   31  C   UNL     1       7.131  31.150  58.842  1.00  0.00     0.009 A 
HETATM   32  C   UNL     1       7.151  32.199  59.763  1.00  0.00     0.001 A 
HETATM   33  C   UNL     1       8.332  32.521  60.428  1.00  0.00     0.000 A 
HETATM   34  C   UNL     1       9.493  31.794  60.175  1.00  0.00     0.001 A 
HETATM   35  C   UNL     1       9.475  30.744  59.253  1.00  0.00     0.009 A 
ENDBRANCH  28  30
ENDBRANCH  25  28
ENDBRANCH   2  24
TORSDOF 10
ENDMDL
MODEL 8
REMARK VINA RESULT:      -8.8      1.960      5.255
REMARK  10 active torsions:
REMARK  status: ('A' for Active; 'I' for Inactive)
REMARK    1  A    between atoms: C_2  and  O_3 
REMARK    2  A    between atoms: O_3  and  C_4 
REMARK    3  A    between atoms: C_9  and  C_10 
REMARK    4  A    between atoms: C_10  and  O_11 
REMARK    5  A    between atoms: O_11  and  C_12 
REMARK    6  A    between atoms: C_12  and  C_13 
REMARK       I    between atoms: C_13  and  N_14 
REMARK    7  A    between atoms: N_14  and  C_15 
REMARK    8  A    between atoms: C_16  and  C_17 
REMARK       I    between atoms: C_17  and  N_18 
REMARK    9  A    between atoms: N_18  and  C_19 
REMARK   10  A    between atoms: C_19  and  C_20 
ROOT
HETATM    1  C   UNL     1       7.832  26.385  56.850  1.00  0.00     0.050 A 
HETATM    2  C   UNL     1       7.465  26.202  55.498  1.00  0.00     0.058 A 
HETATM    3  C   UNL     1       7.595  24.940  54.890  1.00  0.00     0.019 A 
HETATM    4  C   UNL     1       8.115  23.861  55.600  1.00  0.00     0.001 A 
HETATM    5  C   UNL     1       8.506  24.038  56.920  1.00  0.00     0.002 A 
HETATM    6  C   UNL     1       8.365  25.285  57.538  1.00  0.00     0.030 A 
ENDROOT
BRANCH   1   7
HETATM    7  N   UNL     1       7.629  27.640  57.484  1.00  0.00    -0.324 N 
HETATM    8  C   UNL     1       8.524  28.693  57.583  1.00  0.00     0.246 C 
HETATM    9  O   UNL     1       9.667  28.724  57.133  1.00  0.00    -0.271 OA
HETATM   10  H   UNL     1       6.736  27.757  57.971  1.00  0.00     0.169 HD
BRANCH   8  11
HETATM   11  C   UNL     1       7.945  29.920  58.293  1.00  0.00     0.282 C 
BRANCH  11  12
HETATM   12  O   UNL     1       8.650  30.275  59.479  1.00  0.00    -0.308 OA
BRANCH  12  13
HETATM   13  C   UNL     1       8.844  31.607  59.651  1.00  0.00     0.298 C 
HETATM   14  O   UNL     1       9.510  32.313  58.914  1.00  0.00    -0.259 OA
BRANCH  13  15
HETATM   15  C   UNL     1       8.134  32.035  60.875  1.00  0.00     0.092 A 
HETATM   16  C   UNL     1       6.823  32.496  60.829  1.00  0.00     0.180 A 
HETATM   17  N   UNL     1       6.146  32.910  61.932  1.00  0.00    -0.236 NA
HETATM   18  C   UNL     1       6.795  32.867  63.116  1.00  0.00     0.119 A 
HETATM   19  C   UNL     1       8.098  32.425  63.260  1.00  0.00     0.020 A 
HETATM   20  C   UNL     1       8.777  32.005  62.121  1.00  0.00     0.023 A 
BRANCH  16  21
HETATM   21  O   UNL     1       6.161  32.489  59.620  1.00  0.00    -0.334 OA
BRANCH  21  22
HETATM   22  C   UNL     1       4.808  32.942  59.699  1.00  0.00     0.173 C 
HETATM   23  C   UNL     1       4.607  34.007  58.636  1.00  0.00     0.034 C 
ENDBRANCH  21  22
ENDBRANCH  16  21
ENDBRANCH  13  15
ENDBRANCH  12  13
ENDBRANCH  11  12
ENDBRANCH   8  11
ENDBRANCH   1   7
BRANCH   2  24
HETATM   24  C   UNL     1       6.986  27.298  54.606  1.00  0.00     0.254 C 
HETATM   25  N   UNL     1       5.618  27.419  54.484  1.00  0.00    -0.349 N 
HETATM   26  H   UNL     1       5.057  26.950  55.187  1.00  0.00     0.163 HD
HETATM   27  O   UNL     1       7.786  28.072  54.094  1.00  0.00    -0.268 OA
BRANCH  25  28
HETATM   28  C   UNL     1       4.999  28.560  53.823  1.00  0.00     0.114 C 
HETATM   29  C   UNL     1       3.999  28.150  52.736  1.00  0.00     0.037 C 
BRANCH  28  30
HETATM   30  C   UNL     1       4.354  29.443  54.882  1.00  0.00    -0.036 A 
HETATM   31  C   UNL     1       4.643  29.281  56.247  1.00  0.00     0.009 A 
HETATM   32  C   UNL     1       4.068  30.121  57.203  1.00  0.00     0.001 A 
HETATM   33  C   UNL     1       3.203  31.138  56.806  1.00  0.00     0.000 A 
HETATM   34  C   UNL     1       2.913  31.318  55.455  1.00  0.00     0.001 A 
HETATM   35  C   UNL     1       3.488  30.479  54.498  1.00  0.00     0.009 A 
ENDBRANCH  28  30
ENDBRANCH  25  28
ENDBRANCH   2  24
TORSDOF 10
ENDMDL
MODEL 9
REMARK VINA RESULT:      -8.7      4.413      8.068
REMARK  10 active torsions:
REMARK  status: ('A' for Active; 'I' for Inactive)
REMARK    1  A    between atoms: C_2  and  O_3 
REMARK    2  A    between atoms: O_3  and  C_4 
REMARK    3  A    between atoms: C_9  and  C_10 
REMARK    4  A    between atoms: C_10  and  O_11 
REMARK    5  A    between atoms: O_11  and  C_12 
REMARK    6  A    between atoms: C_12  and  C_13 
REMARK       I    between atoms: C_13  and  N_14 
REMARK    7  A    between atoms: N_14  and  C_15 
REMARK    8  A    between atoms: C_16  and  C_17 
REMARK       I    between atoms: C_17  and  N_18 
REMARK    9  A    between atoms: N_18  and  C_19 
REMARK   10  A    between atoms: C_19  and  C_20 
ROOT
HETATM    1  C   UNL     1       6.546  28.551  55.232  1.00  0.00     0.050 A 
HETATM    2  C   UNL     1       6.744  27.176  55.492  1.00  0.00     0.058 A 
HETATM    3  C   UNL     1       7.246  26.753  56.737  1.00  0.00     0.019 A 
HETATM    4  C   UNL     1       7.584  27.681  57.718  1.00  0.00     0.001 A 
HETATM    5  C   UNL     1       7.420  29.036  57.461  1.00  0.00     0.002 A 
HETATM    6  C   UNL     1       6.906  29.465  56.233  1.00  0.00     0.030 A 
ENDROOT
BRANCH   1   7
HETATM    7  N   UNL     1       5.969  28.971  54.005  1.00  0.00    -0.324 N 
HETATM    8  C   UNL     1       4.641  29.272  53.752  1.00  0.00     0.246 C 
HETATM    9  O   UNL     1       3.717  29.228  54.560  1.00  0.00    -0.271 OA
HETATM   10  H   UNL     1       6.601  29.001  53.199  1.00  0.00     0.169 HD
BRANCH   8  11
HETATM   11  C   UNL     1       4.384  29.746  52.319  1.00  0.00     0.282 C 
BRANCH  11  12
HETATM   12  O   UNL     1       3.959  28.705  51.444  1.00  0.00    -0.308 OA
BRANCH  12  13
HETATM   13  C   UNL     1       4.718  28.550  50.330  1.00  0.00     0.298 C 
HETATM   14  O   UNL     1       5.822  29.042  50.167  1.00  0.00    -0.259 OA
BRANCH  13  15
HETATM   15  C   UNL     1       3.976  27.713  49.363  1.00  0.00     0.092 A 
HETATM   16  C   UNL     1       2.989  28.251  48.546  1.00  0.00     0.180 A 
HETATM   17  N   UNL     1       2.278  27.508  47.658  1.00  0.00    -0.236 NA
HETATM   18  C   UNL     1       2.556  26.188  47.585  1.00  0.00     0.119 A 
HETATM   19  C   UNL     1       3.519  25.564  48.357  1.00  0.00     0.020 A 
HETATM   20  C   UNL     1       4.238  26.339  49.262  1.00  0.00     0.023 A 
BRANCH  16  21
HETATM   21  O   UNL     1       2.751  29.608  48.600  1.00  0.00    -0.334 OA
BRANCH  21  22
HETATM   22  C   UNL     1       1.367  29.949  48.707  1.00  0.00     0.173 C 
HETATM   23  C   UNL     1       1.106  30.410  50.129  1.00  0.00     0.034 C 
ENDBRANCH  21  22
ENDBRANCH  16  21
ENDBRANCH  13  15
ENDBRANCH  12  13
ENDBRANCH  11  12
ENDBRANCH   8  11
ENDBRANCH   1   7
BRANCH   2  24
HETATM   24  C   UNL     1       6.512  26.093  54.492  1.00  0.00     0.254 C 
HETATM   25  N   UNL     1       7.370  25.016  54.564  1.00  0.00    -0.349 N 
HETATM   26  H   UNL     1       7.901  24.915  55.421  1.00  0.00     0.163 HD
HETATM   27  O   UNL     1       5.559  26.156  53.725  1.00  0.00    -0.268 OA
BRANCH  25  28
HETATM   28  C   UNL     1       7.142  23.795  53.800  1.00  0.00     0.114 C 
HETATM   29  C   UNL     1       7.781  23.835  52.408  1.00  0.00     0.037 C 
BRANCH  28  30
HETATM   30  C   UNL     1       7.638  22.612  54.618  1.00  0.00    -0.036 A 
HETATM   31  C   UNL     1       7.918  21.372  54.019  1.00  0.00     0.009 A 
HETATM   32  C   UNL     1       8.404  20.306  54.779  1.00  0.00     0.001 A 
HETATM   33  C   UNL     1       8.622  20.467  56.145  1.00  0.00     0.000 A 
HETATM   34  C   UNL     1       8.358  21.693  56.753  1.00  0.00     0.001 A 
HETATM   35  C   UNL     1       7.873  22.760  55.994  1.00  0.00     0.009 A 
ENDBRANCH  28  30
ENDBRANCH  25  28
ENDBRANCH   2  24
TORSDOF 10
ENDMDL
MODEL 10
REMARK VINA RESULT:      -8.7      2.860      5.226
REMARK  10 active torsions:
REMARK  status: ('A' for Active; 'I' for Inactive)
REMARK    1  A    between atoms: C_2  and  O_3 
REMARK    2  A    between atoms: O_3  and  C_4 
REMARK    3  A    between atoms: C_9  and  C_10 
REMARK    4  A    between atoms: C_10  and  O_11 
REMARK    5  A    between atoms: O_11  and  C_12 
REMARK    6  A    between atoms: C_12  and  C_13 
REMARK       I    between atoms: C_13  and  N_14 
REMARK    7  A    between atoms: N_14  and  C_15 
REMARK    8  A    between atoms: C_16  and  C_17 
REMARK       I    between atoms: C_17  and  N_18 
REMARK    9  A    between atoms: N_18  and  C_19 
REMARK   10  A    between atoms: C_19  and  C_20 
ROOT
HETATM    1  C   UNL     1       8.034  30.474  58.290  1.00  0.00     0.050 A 
HETATM    2  C   UNL     1       7.942  29.451  57.319  1.00  0.00     0.058 A 
HETATM    3  C   UNL     1       9.084  29.043  56.606  1.00  0.00     0.019 A 
HETATM    4  C   UNL     1      10.313  29.661  56.821  1.00  0.00     0.001 A 
HETATM    5  C   UNL     1      10.407  30.687  57.752  1.00  0.00     0.002 A 
HETATM    6  C   UNL     1       9.281  31.088  58.478  1.00  0.00     0.030 A 
ENDROOT
BRANCH   1   7
HETATM    7  N   UNL     1       6.898  30.831  59.063  1.00  0.00    -0.324 N 
HETATM    8  C   UNL     1       6.081  31.939  58.907  1.00  0.00     0.246 C 
HETATM    9  O   UNL     1       6.201  32.819  58.058  1.00  0.00    -0.271 OA
HETATM   10  H   UNL     1       6.692  30.227  59.865  1.00  0.00     0.169 HD
BRANCH   8  11
HETATM   11  C   UNL     1       4.909  31.978  59.891  1.00  0.00     0.282 C 
BRANCH  11  12
HETATM   12  O   UNL     1       5.081  32.925  60.943  1.00  0.00    -0.308 OA
BRANCH  12  13
HETATM   13  C   UNL     1       4.338  32.687  62.053  1.00  0.00     0.298 C 
HETATM   14  O   UNL     1       3.830  31.614  62.332  1.00  0.00    -0.259 OA
BRANCH  13  15
HETATM   15  C   UNL     1       4.242  33.938  62.836  1.00  0.00     0.092 A 
HETATM   16  C   UNL     1       4.867  34.070  64.071  1.00  0.00     0.180 A 
HETATM   17  N   UNL     1       4.788  35.199  64.822  1.00  0.00    -0.236 NA
HETATM   18  C   UNL     1       4.061  36.226  64.330  1.00  0.00     0.119 A 
HETATM   19  C   UNL     1       3.405  36.187  63.113  1.00  0.00     0.020 A 
HETATM   20  C   UNL     1       3.496  35.024  62.356  1.00  0.00     0.023 A 
BRANCH  16  21
HETATM   21  O   UNL     1       5.642  33.028  64.535  1.00  0.00    -0.334 OA
BRANCH  21  22
HETATM   22  C   UNL     1       6.997  33.393  64.808  1.00  0.00     0.173 C 
HETATM   23  C   UNL     1       7.871  32.801  63.719  1.00  0.00     0.034 C 
ENDBRANCH  21  22
ENDBRANCH  16  21
ENDBRANCH  13  15
ENDBRANCH  12  13
ENDBRANCH  11  12
ENDBRANCH   8  11
ENDBRANCH   1   7
BRANCH   2  24
HETATM   24  C   UNL     1       6.667  28.780  56.930  1.00  0.00     0.254 C 
HETATM   25  N   UNL     1       6.703  28.060  55.754  1.00  0.00    -0.349 N 
HETATM   26  H   UNL     1       7.621  27.827  55.393  1.00  0.00     0.163 HD
HETATM   27  O   UNL     1       5.695  28.821  57.675  1.00  0.00    -0.268 OA
BRANCH  25  28
HETATM   28  C   UNL     1       5.610  27.184  55.351  1.00  0.00     0.114 C 
HETATM   29  C   UNL     1       4.777  27.760  54.201  1.00  0.00     0.037 C 
BRANCH  28  30
HETATM   30  C   UNL     1       6.185  25.819  55.006  1.00  0.00    -0.036 A 
HETATM   31  C   UNL     1       6.717  24.975  55.996  1.00  0.00     0.009 A 
HETATM   32  C   UNL     1       7.211  23.711  55.666  1.00  0.00     0.001 A 
HETATM   33  C   UNL     1       7.173  23.271  54.346  1.00  0.00     0.000 A 
HETATM   34  C   UNL     1       6.640  24.092  53.353  1.00  0.00     0.001 A 
HETATM   35  C   UNL     1       6.145  25.356  53.682  1.00  0.00     0.009 A 
ENDBRANCH  28  30
ENDBRANCH  25  28
ENDBRANCH   2  24
TORSDOF 10
ENDMDL
