MODEL 1
REMARK VINA RESULT:     -11.2      0.000      0.000
REMARK  4 active torsions:
REMARK  status: ('A' for Active; 'I' for Inactive)
REMARK       I    between atoms: C_2  and  N_3 
REMARK    1  A    between atoms: C_2  and  C_21 
REMARK    2  A    between atoms: N_3  and  C_4 
REMARK    3  A    between atoms: C_7  and  C_10 
REMARK    4  A    between atoms: C_24  and  N_27 
ROOT
HETATM    1  C   UNL     1       7.280  29.702  58.165  1.00  0.00     0.035 A 
HETATM    2  C   UNL     1       8.504  29.266  57.653  1.00  0.00     0.030 A 
HETATM    3  C   UNL     1       8.547  28.381  56.569  1.00  0.00     0.016 A 
HETATM    4  C   UNL     1       7.361  27.942  55.978  1.00  0.00    -0.005 A 
HETATM    5  C   UNL     1       6.130  28.357  56.490  1.00  0.00     0.016 A 
HETATM    6  C   UNL     1       6.094  29.241  57.573  1.00  0.00     0.030 A 
ENDROOT
BRANCH   1   7
HETATM    7  N   UNL     1       7.151  30.582  59.260  1.00  0.00    -0.323 N 
HETATM    8  C   UNL     1       8.056  30.786  60.287  1.00  0.00     0.256 C 
HETATM    9  O   UNL     1       9.121  30.205  60.454  1.00  0.00    -0.267 OA
HETATM   10  H   UNL     1       6.262  31.059  59.337  1.00  0.00     0.169 HD
BRANCH   8  11
HETATM   11  C   UNL     1       7.637  31.797  61.299  1.00  0.00     0.032 A 
HETATM   12  C   UNL     1       6.657  32.753  61.031  1.00  0.00     0.019 A 
HETATM   13  C   UNL     1       6.287  33.671  62.023  1.00  0.00     0.030 A 
HETATM   14  C   UNL     1       6.884  33.685  63.297  1.00  0.00     0.030 A 
HETATM   15  C   UNL     1       7.870  32.714  63.532  1.00  0.00     0.030 A 
HETATM   16  C   UNL     1       8.254  31.791  62.549  1.00  0.00     0.019 A 
BRANCH  14  17
HETATM   17  N   UNL     1       6.461  34.593  64.265  1.00  0.00    -0.381 N 
HETATM   18  C   UNL     1       5.734  35.818  63.899  1.00  0.00     0.123 C 
HETATM   19  C   UNL     1       4.224  35.602  63.990  1.00  0.00     0.020 C 
HETATM   20  C   UNL     1       3.824  35.069  65.365  1.00  0.00     0.003 C 
HETATM   21  C   UNL     1       4.635  33.826  65.728  1.00  0.00     0.020 C 
HETATM   22  C   UNL     1       6.138  34.090  65.612  1.00  0.00     0.123 C 
ENDBRANCH  14  17
ENDBRANCH   8  11
ENDBRANCH   1   7
BRANCH   4  23
HETATM   23  C   UNL     1       7.427  26.967  54.861  1.00  0.00     0.098 A 
HETATM   24  N   UNL     1       7.312  27.450  53.659  1.00  0.00    -0.170 NA
HETATM   25  N   UNL     1       7.420  26.602  52.604  1.00  0.00    -0.242 N 
HETATM   26  C   UNL     1       7.691  25.258  52.672  1.00  0.00     0.272 A 
HETATM   27  H   UNL     1       7.350  27.017  51.681  1.00  0.00     0.192 HD
HETATM   28  O   UNL     1       7.836  24.563  51.672  1.00  0.00    -0.266 OA
HETATM   29  C   UNL     1       7.783  24.684  54.024  1.00  0.00     0.046 A 
HETATM   30  C   UNL     1       7.992  23.309  54.191  1.00  0.00     0.018 A 
HETATM   31  C   UNL     1       7.626  25.519  55.129  1.00  0.00     0.011 A 
HETATM   32  C   UNL     1       8.027  22.764  55.472  1.00  0.00     0.001 A 
HETATM   33  C   UNL     1       7.840  23.588  56.582  1.00  0.00     0.001 A 
HETATM   34  C   UNL     1       7.632  24.961  56.414  1.00  0.00     0.015 A 
ENDBRANCH   4  23
TORSDOF 4
ENDMDL
MODEL 2
REMARK VINA RESULT:     -10.6      8.940     11.776
REMARK  4 active torsions:
REMARK  status: ('A' for Active; 'I' for Inactive)
REMARK       I    between atoms: C_2  and  N_3 
REMARK    1  A    between atoms: C_2  and  C_21 
REMARK    2  A    between atoms: N_3  and  C_4 
REMARK    3  A    between atoms: C_7  and  C_10 
REMARK    4  A    between atoms: C_24  and  N_27 
ROOT
HETATM    1  C   UNL     1       5.847  26.500  51.992  1.00  0.00     0.035 A 
HETATM    2  C   UNL     1       4.982  25.686  52.728  1.00  0.00     0.030 A 
HETATM    3  C   UNL     1       5.484  24.805  53.693  1.00  0.00     0.016 A 
HETATM    4  C   UNL     1       6.856  24.746  53.939  1.00  0.00    -0.005 A 
HETATM    5  C   UNL     1       7.734  25.542  53.200  1.00  0.00     0.016 A 
HETATM    6  C   UNL     1       7.226  26.420  52.237  1.00  0.00     0.030 A 
ENDROOT
BRANCH   1   7
HETATM    7  N   UNL     1       5.423  27.404  50.996  1.00  0.00    -0.323 N 
HETATM    8  C   UNL     1       4.769  27.108  49.813  1.00  0.00     0.256 C 
HETATM    9  O   UNL     1       4.476  25.995  49.394  1.00  0.00    -0.267 OA
HETATM   10  H   UNL     1       5.698  28.369  51.134  1.00  0.00     0.169 HD
BRANCH   8  11
HETATM   11  C   UNL     1       4.441  28.290  48.966  1.00  0.00     0.032 A 
HETATM   12  C   UNL     1       3.519  28.221  47.921  1.00  0.00     0.019 A 
HETATM   13  C   UNL     1       3.234  29.367  47.165  1.00  0.00     0.030 A 
HETATM   14  C   UNL     1       3.862  30.603  47.404  1.00  0.00     0.030 A 
HETATM   15  C   UNL     1       4.789  30.636  48.457  1.00  0.00     0.030 A 
HETATM   16  C   UNL     1       5.088  29.499  49.221  1.00  0.00     0.019 A 
BRANCH  14  17
HETATM   17  N   UNL     1       3.522  31.724  46.651  1.00  0.00    -0.381 N 
HETATM   18  C   UNL     1       4.199  33.014  46.853  1.00  0.00     0.123 C 
HETATM   19  C   UNL     1       5.358  33.180  45.872  1.00  0.00     0.020 C 
HETATM   20  C   UNL     1       4.895  32.978  44.430  1.00  0.00     0.003 C 
HETATM   21  C   UNL     1       4.157  31.650  44.273  1.00  0.00     0.020 C 
HETATM   22  C   UNL     1       3.013  31.528  45.283  1.00  0.00     0.123 C 
ENDBRANCH  14  17
ENDBRANCH   8  11
ENDBRANCH   1   7
BRANCH   4  23
HETATM   23  C   UNL     1       7.373  23.771  54.932  1.00  0.00     0.098 A 
HETATM   24  N   UNL     1       7.396  24.160  56.173  1.00  0.00    -0.170 NA
HETATM   25  N   UNL     1       7.810  23.281  57.123  1.00  0.00    -0.242 N 
HETATM   26  C   UNL     1       8.172  21.975  56.911  1.00  0.00     0.272 A 
HETATM   27  H   UNL     1       7.792  23.611  58.082  1.00  0.00     0.192 HD
HETATM   28  O   UNL     1       8.478  21.219  57.827  1.00  0.00    -0.266 OA
HETATM   29  C   UNL     1       8.192  21.527  55.509  1.00  0.00     0.046 A 
HETATM   30  C   UNL     1       8.612  20.229  55.192  1.00  0.00     0.018 A 
HETATM   31  C   UNL     1       7.822  22.421  54.505  1.00  0.00     0.011 A 
HETATM   32  C   UNL     1       8.678  19.828  53.859  1.00  0.00     0.001 A 
HETATM   33  C   UNL     1       8.338  20.726  52.848  1.00  0.00     0.001 A 
HETATM   34  C   UNL     1       7.919  22.022  53.165  1.00  0.00     0.015 A 
ENDBRANCH   4  23
TORSDOF 4
ENDMDL
MODEL 3
REMARK VINA RESULT:     -10.5      2.311      3.378
REMARK  4 active torsions:
REMARK  status: ('A' for Active; 'I' for Inactive)
REMARK       I    between atoms: C_2  and  N_3 
REMARK    1  A    between atoms: C_2  and  C_21 
REMARK    2  A    between atoms: N_3  and  C_4 
REMARK    3  A    between atoms: C_7  and  C_10 
REMARK    4  A    between atoms: C_24  and  N_27 
ROOT
HETATM    1  C   UNL     1       6.407  27.414  57.032  1.00  0.00     0.035 A 
HETATM    2  C   UNL     1       5.383  26.531  56.680  1.00  0.00     0.030 A 
HETATM    3  C   UNL     1       5.669  25.359  55.970  1.00  0.00     0.016 A 
HETATM    4  C   UNL     1       6.986  25.055  55.624  1.00  0.00    -0.005 A 
HETATM    5  C   UNL     1       8.017  25.937  55.955  1.00  0.00     0.016 A 
HETATM    6  C   UNL     1       7.725  27.107  56.665  1.00  0.00     0.030 A 
ENDROOT
BRANCH   1   7
HETATM    7  N   UNL     1       6.201  28.620  57.736  1.00  0.00    -0.323 N 
HETATM    8  C   UNL     1       6.041  29.888  57.206  1.00  0.00     0.256 C 
HETATM    9  O   UNL     1       6.090  30.201  56.023  1.00  0.00    -0.267 OA
HETATM   10  H   UNL     1       6.253  28.552  58.745  1.00  0.00     0.169 HD
BRANCH   8  11
HETATM   11  C   UNL     1       5.829  30.965  58.214  1.00  0.00     0.032 A 
HETATM   12  C   UNL     1       4.592  31.588  58.385  1.00  0.00     0.019 A 
HETATM   13  C   UNL     1       4.442  32.585  59.359  1.00  0.00     0.030 A 
HETATM   14  C   UNL     1       5.506  33.009  60.174  1.00  0.00     0.030 A 
HETATM   15  C   UNL     1       6.738  32.367  59.972  1.00  0.00     0.030 A 
HETATM   16  C   UNL     1       6.906  31.371  59.001  1.00  0.00     0.019 A 
BRANCH  14  17
HETATM   17  N   UNL     1       5.303  33.979  61.153  1.00  0.00    -0.381 N 
HETATM   18  C   UNL     1       3.949  34.404  61.538  1.00  0.00     0.123 C 
HETATM   19  C   UNL     1       3.458  33.622  62.755  1.00  0.00     0.020 C 
HETATM   20  C   UNL     1       4.455  33.713  63.910  1.00  0.00     0.003 C 
HETATM   21  C   UNL     1       5.856  33.309  63.457  1.00  0.00     0.020 C 
HETATM   22  C   UNL     1       6.297  34.113  62.232  1.00  0.00     0.123 C 
ENDBRANCH  14  17
ENDBRANCH   8  11
ENDBRANCH   1   7
BRANCH   4  23
HETATM   23  C   UNL     1       7.263  23.833  54.829  1.00  0.00     0.098 A 
HETATM   24  N   UNL     1       7.030  23.904  53.552  1.00  0.00    -0.170 NA
HETATM   25  N   UNL     1       7.320  22.825  52.777  1.00  0.00    -0.242 N 
HETATM   26  C   UNL     1       7.891  21.653  53.205  1.00  0.00     0.272 A 
HETATM   27  H   UNL     1       7.148  22.924  51.782  1.00  0.00     0.192 HD
HETATM   28  O   UNL     1       8.181  20.742  52.436  1.00  0.00    -0.266 OA
HETATM   29  C   UNL     1       8.124  21.538  54.654  1.00  0.00     0.046 A 
HETATM   30  C   UNL     1       8.643  20.352  55.189  1.00  0.00     0.018 A 
HETATM   31  C   UNL     1       7.790  22.607  55.483  1.00  0.00     0.011 A 
HETATM   32  C   UNL     1       8.813  20.230  56.566  1.00  0.00     0.001 A 
HETATM   33  C   UNL     1       8.452  21.284  57.406  1.00  0.00     0.001 A 
HETATM   34  C   UNL     1       7.935  22.468  56.870  1.00  0.00     0.015 A 
ENDBRANCH   4  23
TORSDOF 4
ENDMDL
MODEL 4
REMARK VINA RESULT:     -10.2      9.003     11.656
REMARK  4 active torsions:
REMARK  status: ('A' for Active; 'I' for Inactive)
REMARK       I    between atoms: C_2  and  N_3 
REMARK    1  A    between atoms: C_2  and  C_21 
REMARK    2  A    between atoms: N_3  and  C_4 
REMARK    3  A    between atoms: C_7  and  C_10 
REMARK    4  A    between atoms: C_24  and  N_27 
ROOT
HETATM    1  C   UNL     1       5.314  26.367  51.920  1.00  0.00     0.035 A 
HETATM    2  C   UNL     1       6.703  26.223  51.968  1.00  0.00     0.030 A 
HETATM    3  C   UNL     1       7.297  25.370  52.905  1.00  0.00     0.016 A 
HETATM    4  C   UNL     1       6.501  24.642  53.791  1.00  0.00    -0.005 A 
HETATM    5  C   UNL     1       5.113  24.790  53.765  1.00  0.00     0.016 A 
HETATM    6  C   UNL     1       4.525  25.643  52.826  1.00  0.00     0.030 A 
ENDROOT
BRANCH   1   7
HETATM    7  N   UNL     1       4.640  27.213  51.014  1.00  0.00    -0.323 N 
HETATM    8  C   UNL     1       4.380  26.978  49.676  1.00  0.00     0.256 C 
HETATM    9  O   UNL     1       4.727  26.003  49.020  1.00  0.00    -0.267 OA
HETATM   10  H   UNL     1       4.387  28.126  51.372  1.00  0.00     0.169 HD
BRANCH   8  11
HETATM   11  C   UNL     1       3.633  28.065  48.982  1.00  0.00     0.032 A 
HETATM   12  C   UNL     1       3.383  28.036  47.610  1.00  0.00     0.019 A 
HETATM   13  C   UNL     1       2.662  29.076  47.009  1.00  0.00     0.030 A 
HETATM   14  C   UNL     1       2.184  30.180  47.737  1.00  0.00     0.030 A 
HETATM   15  C   UNL     1       2.457  30.183  49.114  1.00  0.00     0.030 A 
HETATM   16  C   UNL     1       3.181  29.152  49.730  1.00  0.00     0.019 A 
BRANCH  14  17
HETATM   17  N   UNL     1       1.441  31.175  47.106  1.00  0.00    -0.381 N 
HETATM   18  C   UNL     1       0.891  30.977  45.756  1.00  0.00     0.123 C 
HETATM   19  C   UNL     1      -0.551  30.477  45.823  1.00  0.00     0.020 C 
HETATM   20  C   UNL     1      -1.416  31.399  46.682  1.00  0.00     0.003 C 
HETATM   21  C   UNL     1      -0.787  31.616  48.057  1.00  0.00     0.020 C 
HETATM   22  C   UNL     1       0.658  32.107  47.935  1.00  0.00     0.123 C 
ENDBRANCH  14  17
ENDBRANCH   8  11
ENDBRANCH   1   7
BRANCH   4  23
HETATM   23  C   UNL     1       7.152  23.781  54.809  1.00  0.00     0.098 A 
HETATM   24  N   UNL     1       7.209  24.252  56.020  1.00  0.00    -0.170 NA
HETATM   25  N   UNL     1       7.748  23.475  56.996  1.00  0.00    -0.242 N 
HETATM   26  C   UNL     1       8.209  22.192  56.844  1.00  0.00     0.272 A 
HETATM   27  H   UNL     1       7.754  23.865  57.933  1.00  0.00     0.192 HD
HETATM   28  O   UNL     1       8.628  21.526  57.785  1.00  0.00    -0.266 OA
HETATM   29  C   UNL     1       8.192  21.656  55.473  1.00  0.00     0.046 A 
HETATM   30  C   UNL     1       8.703  20.378  55.212  1.00  0.00     0.018 A 
HETATM   31  C   UNL     1       7.692  22.447  54.440  1.00  0.00     0.011 A 
HETATM   32  C   UNL     1       8.731  19.897  53.905  1.00  0.00     0.001 A 
HETATM   33  C   UNL     1       8.262  20.695  52.862  1.00  0.00     0.001 A 
HETATM   34  C   UNL     1       7.750  21.970  53.124  1.00  0.00     0.015 A 
ENDBRANCH   4  23
TORSDOF 4
ENDMDL
MODEL 5
REMARK VINA RESULT:     -10.1      3.380      4.000
REMARK  4 active torsions:
REMARK  status: ('A' for Active; 'I' for Inactive)
REMARK       I    between atoms: C_2  and  N_3 
REMARK    1  A    between atoms: C_2  and  C_21 
REMARK    2  A    between atoms: N_3  and  C_4 
REMARK    3  A    between atoms: C_7  and  C_10 
REMARK    4  A    between atoms: C_24  and  N_27 
ROOT
HETATM    1  C   UNL     1       6.180  28.638  57.574  1.00  0.00     0.035 A 
HETATM    2  C   UNL     1       7.540  28.334  57.673  1.00  0.00     0.030 A 
HETATM    3  C   UNL     1       8.024  27.092  57.247  1.00  0.00     0.016 A 
HETATM    4  C   UNL     1       7.149  26.152  56.701  1.00  0.00    -0.005 A 
HETATM    5  C   UNL     1       5.784  26.436  56.612  1.00  0.00     0.016 A 
HETATM    6  C   UNL     1       5.307  27.679  57.039  1.00  0.00     0.030 A 
ENDROOT
BRANCH   1   7
HETATM    7  N   UNL     1       5.613  29.861  57.992  1.00  0.00    -0.323 N 
HETATM    8  C   UNL     1       5.309  30.960  57.207  1.00  0.00     0.256 C 
HETATM    9  O   UNL     1       5.517  31.086  56.007  1.00  0.00    -0.267 OA
HETATM   10  H   UNL     1       5.486  29.967  58.990  1.00  0.00     0.169 HD
BRANCH   8  11
HETATM   11  C   UNL     1       4.704  32.106  57.943  1.00  0.00     0.032 A 
HETATM   12  C   UNL     1       4.881  33.428  57.533  1.00  0.00     0.019 A 
HETATM   13  C   UNL     1       4.277  34.469  58.251  1.00  0.00     0.030 A 
HETATM   14  C   UNL     1       3.500  34.239  59.400  1.00  0.00     0.030 A 
HETATM   15  C   UNL     1       3.347  32.899  59.790  1.00  0.00     0.030 A 
HETATM   16  C   UNL     1       3.947  31.847  59.085  1.00  0.00     0.019 A 
BRANCH  14  17
HETATM   17  N   UNL     1       2.889  35.301  60.063  1.00  0.00    -0.381 N 
HETATM   18  C   UNL     1       1.977  35.073  61.194  1.00  0.00     0.123 C 
HETATM   19  C   UNL     1       2.724  35.174  62.524  1.00  0.00     0.020 C 
HETATM   20  C   UNL     1       3.480  36.498  62.634  1.00  0.00     0.003 C 
HETATM   21  C   UNL     1       4.378  36.718  61.418  1.00  0.00     0.020 C 
HETATM   22  C   UNL     1       3.586  36.597  60.114  1.00  0.00     0.123 C 
ENDBRANCH  14  17
ENDBRANCH   8  11
ENDBRANCH   1   7
BRANCH   4  23
HETATM   23  C   UNL     1       7.673  24.823  56.299  1.00  0.00     0.098 A 
HETATM   24  N   UNL     1       8.036  24.025  57.261  1.00  0.00    -0.170 NA
HETATM   25  N   UNL     1       8.471  22.778  56.942  1.00  0.00    -0.242 N 
HETATM   26  C   UNL     1       8.526  22.239  55.681  1.00  0.00     0.272 A 
HETATM   27  H   UNL     1       8.724  22.175  57.718  1.00  0.00     0.192 HD
HETATM   28  O   UNL     1       8.873  21.082  55.473  1.00  0.00    -0.266 OA
HETATM   29  C   UNL     1       8.158  23.140  54.576  1.00  0.00     0.046 A 
HETATM   30  C   UNL     1       8.246  22.696  53.250  1.00  0.00     0.018 A 
HETATM   31  C   UNL     1       7.756  24.442  54.866  1.00  0.00     0.011 A 
HETATM   32  C   UNL     1       7.945  23.569  52.206  1.00  0.00     0.001 A 
HETATM   33  C   UNL     1       7.572  24.883  52.487  1.00  0.00     0.001 A 
HETATM   34  C   UNL     1       7.484  25.324  53.811  1.00  0.00     0.015 A 
ENDBRANCH   4  23
TORSDOF 4
ENDMDL
MODEL 6
REMARK VINA RESULT:     -10.0      3.564      4.568
REMARK  4 active torsions:
REMARK  status: ('A' for Active; 'I' for Inactive)
REMARK       I    between atoms: C_2  and  N_3 
REMARK    1  A    between atoms: C_2  and  C_21 
REMARK    2  A    between atoms: N_3  and  C_4 
REMARK    3  A    between atoms: C_7  and  C_10 
REMARK    4  A    between atoms: C_24  and  N_27 
ROOT
HETATM    1  C   UNL     1       6.696  27.760  57.361  1.00  0.00     0.035 A 
HETATM    2  C   UNL     1       8.037  27.372  57.400  1.00  0.00     0.030 A 
HETATM    3  C   UNL     1       8.404  26.051  57.122  1.00  0.00     0.016 A 
HETATM    4  C   UNL     1       7.428  25.112  56.784  1.00  0.00    -0.005 A 
HETATM    5  C   UNL     1       6.082  25.482  56.757  1.00  0.00     0.016 A 
HETATM    6  C   UNL     1       5.722  26.804  57.036  1.00  0.00     0.030 A 
ENDROOT
BRANCH   1   7
HETATM    7  N   UNL     1       6.244  29.068  57.640  1.00  0.00    -0.323 N 
HETATM    8  C   UNL     1       5.923  30.060  56.730  1.00  0.00     0.256 C 
HETATM    9  O   UNL     1       6.014  29.996  55.510  1.00  0.00    -0.267 OA
HETATM   10  H   UNL     1       6.227  29.326  58.618  1.00  0.00     0.169 HD
BRANCH   8  11
HETATM   11  C   UNL     1       5.463  31.341  57.337  1.00  0.00     0.032 A 
HETATM   12  C   UNL     1       4.741  32.289  56.611  1.00  0.00     0.019 A 
HETATM   13  C   UNL     1       4.317  33.471  57.234  1.00  0.00     0.030 A 
HETATM   14  C   UNL     1       4.608  33.759  58.580  1.00  0.00     0.030 A 
HETATM   15  C   UNL     1       5.342  32.789  59.280  1.00  0.00     0.030 A 
HETATM   16  C   UNL     1       5.776  31.603  58.670  1.00  0.00     0.019 A 
BRANCH  14  17
HETATM   17  N   UNL     1       4.137  34.931  59.168  1.00  0.00    -0.381 N 
HETATM   18  C   UNL     1       3.485  35.979  58.369  1.00  0.00     0.123 C 
HETATM   19  C   UNL     1       1.966  35.812  58.389  1.00  0.00     0.020 C 
HETATM   20  C   UNL     1       1.436  35.747  59.821  1.00  0.00     0.003 C 
HETATM   21  C   UNL     1       2.172  34.680  60.629  1.00  0.00     0.020 C 
HETATM   22  C   UNL     1       3.687  34.885  60.570  1.00  0.00     0.123 C 
ENDBRANCH  14  17
ENDBRANCH   8  11
ENDBRANCH   1   7
BRANCH   4  23
HETATM   23  C   UNL     1       7.831  23.705  56.539  1.00  0.00     0.098 A 
HETATM   24  N   UNL     1       8.147  22.999  57.585  1.00  0.00    -0.170 NA
HETATM   25  N   UNL     1       8.471  21.691  57.414  1.00  0.00    -0.242 N 
HETATM   26  C   UNL     1       8.453  21.003  56.226  1.00  0.00     0.272 A 
HETATM   27  H   UNL     1       8.689  21.165  58.254  1.00  0.00     0.192 HD
HETATM   28  O   UNL     1       8.699  19.803  56.155  1.00  0.00    -0.266 OA
HETATM   29  C   UNL     1       8.138  21.794  55.025  1.00  0.00     0.046 A 
HETATM   30  C   UNL     1       8.161  21.190  53.762  1.00  0.00     0.018 A 
HETATM   31  C   UNL     1       7.852  23.151  55.161  1.00  0.00     0.011 A 
HETATM   32  C   UNL     1       7.912  21.955  52.624  1.00  0.00     0.001 A 
HETATM   33  C   UNL     1       7.656  23.320  52.749  1.00  0.00     0.001 A 
HETATM   34  C   UNL     1       7.632  23.921  54.011  1.00  0.00     0.015 A 
ENDBRANCH   4  23
TORSDOF 4
ENDMDL
MODEL 7
REMARK VINA RESULT:      -9.8      1.628      1.813
REMARK  4 active torsions:
REMARK  status: ('A' for Active; 'I' for Inactive)
REMARK       I    between atoms: C_2  and  N_3 
REMARK    1  A    between atoms: C_2  and  C_21 
REMARK    2  A    between atoms: N_3  and  C_4 
REMARK    3  A    between atoms: C_7  and  C_10 
REMARK    4  A    between atoms: C_24  and  N_27 
ROOT
HETATM    1  C   UNL     1       5.721  30.221  57.898  1.00  0.00     0.035 A 
HETATM    2  C   UNL     1       6.832  29.672  57.252  1.00  0.00     0.030 A 
HETATM    3  C   UNL     1       6.667  28.823  56.152  1.00  0.00     0.016 A 
HETATM    4  C   UNL     1       5.387  28.533  55.679  1.00  0.00    -0.005 A 
HETATM    5  C   UNL     1       4.267  29.062  56.325  1.00  0.00     0.016 A 
HETATM    6  C   UNL     1       4.438  29.909  57.424  1.00  0.00     0.030 A 
ENDROOT
BRANCH   1   7
HETATM    7  N   UNL     1       5.803  31.074  59.019  1.00  0.00    -0.323 N 
HETATM    8  C   UNL     1       6.864  31.883  59.387  1.00  0.00     0.256 C 
HETATM    9  O   UNL     1       7.948  31.974  58.824  1.00  0.00    -0.267 OA
HETATM   10  H   UNL     1       5.023  31.028  59.663  1.00  0.00     0.169 HD
BRANCH   8  11
HETATM   11  C   UNL     1       6.642  32.682  60.626  1.00  0.00     0.032 A 
HETATM   12  C   UNL     1       5.610  33.615  60.732  1.00  0.00     0.019 A 
HETATM   13  C   UNL     1       5.435  34.329  61.926  1.00  0.00     0.030 A 
HETATM   14  C   UNL     1       6.280  34.157  63.037  1.00  0.00     0.030 A 
HETATM   15  C   UNL     1       7.312  33.217  62.895  1.00  0.00     0.030 A 
HETATM   16  C   UNL     1       7.503  32.497  61.707  1.00  0.00     0.019 A 
BRANCH  14  17
HETATM   17  N   UNL     1       6.048  34.863  64.215  1.00  0.00    -0.381 N 
HETATM   18  C   UNL     1       5.246  36.096  64.223  1.00  0.00     0.123 C 
HETATM   19  C   UNL     1       3.788  35.795  64.567  1.00  0.00     0.020 C 
HETATM   20  C   UNL     1       3.679  35.013  65.876  1.00  0.00     0.003 C 
HETATM   21  C   UNL     1       4.562  33.767  65.844  1.00  0.00     0.020 C 
HETATM   22  C   UNL     1       6.008  34.120  65.487  1.00  0.00     0.123 C 
ENDBRANCH  14  17
ENDBRANCH   8  11
ENDBRANCH   1   7
BRANCH   4  23
HETATM   23  C   UNL     1       5.230  27.593  54.542  1.00  0.00     0.098 A 
HETATM   24  N   UNL     1       4.534  28.017  53.528  1.00  0.00    -0.170 NA
HETATM   25  N   UNL     1       4.411  27.210  52.441  1.00  0.00    -0.242 N 
HETATM   26  C   UNL     1       4.997  25.981  52.277  1.00  0.00     0.272 A 
HETATM   27  H   UNL     1       3.881  27.582  51.660  1.00  0.00     0.192 HD
HETATM   28  O   UNL     1       4.891  25.332  51.241  1.00  0.00    -0.266 OA
HETATM   29  C   UNL     1       5.755  25.465  53.429  1.00  0.00     0.046 A 
HETATM   30  C   UNL     1       6.334  24.191  53.376  1.00  0.00     0.018 A 
HETATM   31  C   UNL     1       5.858  26.247  54.579  1.00  0.00     0.011 A 
HETATM   32  C   UNL     1       7.006  23.689  54.488  1.00  0.00     0.001 A 
HETATM   33  C   UNL     1       7.087  24.452  55.653  1.00  0.00     0.001 A 
HETATM   34  C   UNL     1       6.509  25.725  55.704  1.00  0.00     0.015 A 
ENDBRANCH   4  23
TORSDOF 4
ENDMDL
MODEL 8
REMARK VINA RESULT:      -9.7      1.811      2.686
REMARK  4 active torsions:
REMARK  status: ('A' for Active; 'I' for Inactive)
REMARK       I    between atoms: C_2  and  N_3 
REMARK    1  A    between atoms: C_2  and  C_21 
REMARK    2  A    between atoms: N_3  and  C_4 
REMARK    3  A    between atoms: C_7  and  C_10 
REMARK    4  A    between atoms: C_24  and  N_27 
ROOT
HETATM    1  C   UNL     1       5.935  29.585  57.610  1.00  0.00     0.035 A 
HETATM    2  C   UNL     1       4.935  28.876  56.938  1.00  0.00     0.030 A 
HETATM    3  C   UNL     1       5.269  27.869  56.025  1.00  0.00     0.016 A 
HETATM    4  C   UNL     1       6.608  27.553  55.792  1.00  0.00    -0.005 A 
HETATM    5  C   UNL     1       7.618  28.265  56.444  1.00  0.00     0.016 A 
HETATM    6  C   UNL     1       7.278  29.270  57.356  1.00  0.00     0.030 A 
ENDROOT
BRANCH   1   7
HETATM    7  N   UNL     1       5.682  30.620  58.535  1.00  0.00    -0.323 N 
HETATM    8  C   UNL     1       5.559  31.973  58.272  1.00  0.00     0.256 C 
HETATM    9  O   UNL     1       5.690  32.526  57.186  1.00  0.00    -0.267 OA
HETATM   10  H   UNL     1       5.665  30.343  59.508  1.00  0.00     0.169 HD
BRANCH   8  11
HETATM   11  C   UNL     1       5.279  32.820  59.466  1.00  0.00     0.032 A 
HETATM   12  C   UNL     1       6.126  32.842  60.575  1.00  0.00     0.019 A 
HETATM   13  C   UNL     1       5.825  33.668  61.666  1.00  0.00     0.030 A 
HETATM   14  C   UNL     1       4.677  34.480  61.703  1.00  0.00     0.030 A 
HETATM   15  C   UNL     1       3.843  34.430  60.575  1.00  0.00     0.030 A 
HETATM   16  C   UNL     1       4.127  33.606  59.477  1.00  0.00     0.019 A 
BRANCH  14  17
HETATM   17  N   UNL     1       4.436  35.313  62.794  1.00  0.00    -0.381 N 
HETATM   18  C   UNL     1       5.531  35.773  63.660  1.00  0.00     0.123 C 
HETATM   19  C   UNL     1       6.039  37.144  63.214  1.00  0.00     0.020 C 
HETATM   20  C   UNL     1       4.895  38.153  63.122  1.00  0.00     0.003 C 
HETATM   21  C   UNL     1       3.759  37.617  62.253  1.00  0.00     0.020 C 
HETATM   22  C   UNL     1       3.294  36.241  62.735  1.00  0.00     0.123 C 
ENDBRANCH  14  17
ENDBRANCH   8  11
ENDBRANCH   1   7
BRANCH   4  23
HETATM   23  C   UNL     1       6.943  26.516  54.785  1.00  0.00     0.098 A 
HETATM   24  N   UNL     1       6.734  26.826  53.539  1.00  0.00    -0.170 NA
HETATM   25  N   UNL     1       7.077  25.927  52.580  1.00  0.00    -0.242 N 
HETATM   26  C   UNL     1       7.679  24.712  52.789  1.00  0.00     0.272 A 
HETATM   27  H   UNL     1       6.922  26.211  51.618  1.00  0.00     0.192 HD
HETATM   28  O   UNL     1       8.016  23.975  51.868  1.00  0.00    -0.266 OA
HETATM   29  C   UNL     1       7.886  24.325  54.194  1.00  0.00     0.046 A 
HETATM   30  C   UNL     1       8.434  23.074  54.505  1.00  0.00     0.018 A 
HETATM   31  C   UNL     1       7.498  25.203  55.205  1.00  0.00     0.011 A 
HETATM   32  C   UNL     1       8.580  22.693  55.837  1.00  0.00     0.001 A 
HETATM   33  C   UNL     1       8.166  23.554  56.854  1.00  0.00     0.001 A 
HETATM   34  C   UNL     1       7.619  24.803  56.542  1.00  0.00     0.015 A 
ENDBRANCH   4  23
TORSDOF 4
ENDMDL
MODEL 9
REMARK VINA RESULT:      -9.5      8.491     10.933
REMARK  4 active torsions:
REMARK  status: ('A' for Active; 'I' for Inactive)
REMARK       I    between atoms: C_2  and  N_3 
REMARK    1  A    between atoms: C_2  and  C_21 
REMARK    2  A    between atoms: N_3  and  C_4 
REMARK    3  A    between atoms: C_7  and  C_10 
REMARK    4  A    between atoms: C_24  and  N_27 
ROOT
HETATM    1  C   UNL     1       5.792  26.850  52.469  1.00  0.00     0.035 A 
HETATM    2  C   UNL     1       7.138  26.854  52.843  1.00  0.00     0.030 A 
HETATM    3  C   UNL     1       7.644  25.858  53.687  1.00  0.00     0.016 A 
HETATM    4  C   UNL     1       6.807  24.842  54.148  1.00  0.00    -0.005 A 
HETATM    5  C   UNL     1       5.456  24.835  53.796  1.00  0.00     0.016 A 
HETATM    6  C   UNL     1       4.956  25.832  52.952  1.00  0.00     0.030 A 
ENDROOT
BRANCH   1   7
HETATM    7  N   UNL     1       5.203  27.822  51.632  1.00  0.00    -0.323 N 
HETATM    8  C   UNL     1       4.735  29.073  51.995  1.00  0.00     0.256 C 
HETATM    9  O   UNL     1       4.710  29.550  53.123  1.00  0.00    -0.267 OA
HETATM   10  H   UNL     1       5.039  27.536  50.676  1.00  0.00     0.169 HD
BRANCH   8  11
HETATM   11  C   UNL     1       4.173  29.880  50.875  1.00  0.00     0.032 A 
HETATM   12  C   UNL     1       2.934  29.592  50.302  1.00  0.00     0.019 A 
HETATM   13  C   UNL     1       2.443  30.391  49.261  1.00  0.00     0.030 A 
HETATM   14  C   UNL     1       3.165  31.482  48.744  1.00  0.00     0.030 A 
HETATM   15  C   UNL     1       4.410  31.741  49.338  1.00  0.00     0.030 A 
HETATM   16  C   UNL     1       4.917  30.949  50.377  1.00  0.00     0.019 A 
BRANCH  14  17
HETATM   17  N   UNL     1       2.623  32.272  47.733  1.00  0.00    -0.381 N 
HETATM   18  C   UNL     1       3.479  33.085  46.856  1.00  0.00     0.123 C 
HETATM   19  C   UNL     1       3.808  32.332  45.567  1.00  0.00     0.020 C 
HETATM   20  C   UNL     1       2.536  31.852  44.868  1.00  0.00     0.003 C 
HETATM   21  C   UNL     1       1.654  31.054  45.826  1.00  0.00     0.020 C 
HETATM   22  C   UNL     1       1.362  31.846  47.102  1.00  0.00     0.123 C 
ENDBRANCH  14  17
ENDBRANCH   8  11
ENDBRANCH   1   7
BRANCH   4  23
HETATM   23  C   UNL     1       7.351  23.823  55.081  1.00  0.00     0.098 A 
HETATM   24  N   UNL     1       7.397  24.151  56.338  1.00  0.00    -0.170 NA
HETATM   25  N   UNL     1       7.837  23.230  57.235  1.00  0.00    -0.242 N 
HETATM   26  C   UNL     1       8.205  21.938  56.952  1.00  0.00     0.272 A 
HETATM   27  H   UNL     1       7.837  23.511  58.210  1.00  0.00     0.192 HD
HETATM   28  O   UNL     1       8.535  21.141  57.823  1.00  0.00    -0.266 OA
HETATM   29  C   UNL     1       8.199  21.561  55.529  1.00  0.00     0.046 A 
HETATM   30  C   UNL     1       8.622  20.283  55.140  1.00  0.00     0.018 A 
HETATM   31  C   UNL     1       7.801  22.499  54.578  1.00  0.00     0.011 A 
HETATM   32  C   UNL     1       8.663  19.949  53.788  1.00  0.00     0.001 A 
HETATM   33  C   UNL     1       8.296  20.893  52.829  1.00  0.00     0.001 A 
HETATM   34  C   UNL     1       7.873  22.168  53.219  1.00  0.00     0.015 A 
ENDBRANCH   4  23
TORSDOF 4
ENDMDL
MODEL 10
REMARK VINA RESULT:      -9.3      3.589     11.467
REMARK  4 active torsions:
REMARK  status: ('A' for Active; 'I' for Inactive)
REMARK       I    between atoms: C_2  and  N_3 
REMARK    1  A    between atoms: C_2  and  C_21 
REMARK    2  A    between atoms: N_3  and  C_4 
REMARK    3  A    between atoms: C_7  and  C_10 
REMARK    4  A    between atoms: C_24  and  N_27 
ROOT
HETATM    1  C   UNL     1       5.485  29.687  57.452  1.00  0.00     0.035 A 
HETATM    2  C   UNL     1       6.222  30.794  57.881  1.00  0.00     0.030 A 
HETATM    3  C   UNL     1       5.575  31.974  58.267  1.00  0.00     0.016 A 
HETATM    4  C   UNL     1       4.181  32.046  58.242  1.00  0.00    -0.005 A 
HETATM    5  C   UNL     1       3.432  30.953  57.800  1.00  0.00     0.016 A 
HETATM    6  C   UNL     1       4.085  29.777  57.416  1.00  0.00     0.030 A 
ENDROOT
BRANCH   1   7
HETATM    7  N   UNL     1       6.061  28.468  57.036  1.00  0.00    -0.323 N 
HETATM    8  C   UNL     1       6.045  27.919  55.766  1.00  0.00     0.256 C 
HETATM    9  O   UNL     1       5.487  28.375  54.775  1.00  0.00    -0.267 OA
HETATM   10  H   UNL     1       6.465  27.902  57.771  1.00  0.00     0.169 HD
BRANCH   8  11
HETATM   11  C   UNL     1       6.756  26.615  55.640  1.00  0.00     0.032 A 
HETATM   12  C   UNL     1       6.972  26.005  54.404  1.00  0.00     0.019 A 
HETATM   13  C   UNL     1       7.660  24.786  54.338  1.00  0.00     0.030 A 
HETATM   14  C   UNL     1       8.137  24.127  55.485  1.00  0.00     0.030 A 
HETATM   15  C   UNL     1       7.897  24.763  56.713  1.00  0.00     0.030 A 
HETATM   16  C   UNL     1       7.207  25.981  56.797  1.00  0.00     0.019 A 
BRANCH  14  17
HETATM   17  N   UNL     1       8.847  22.934  55.371  1.00  0.00    -0.381 N 
HETATM   18  C   UNL     1       8.600  21.807  56.283  1.00  0.00     0.123 C 
HETATM   19  C   UNL     1       7.600  20.824  55.674  1.00  0.00     0.020 C 
HETATM   20  C   UNL     1       8.046  20.371  54.285  1.00  0.00     0.003 C 
HETATM   21  C   UNL     1       8.338  21.570  53.385  1.00  0.00     0.020 C 
HETATM   22  C   UNL     1       9.335  22.527  54.042  1.00  0.00     0.123 C 
ENDBRANCH  14  17
ENDBRANCH   8  11
ENDBRANCH   1   7
BRANCH   4  23
HETATM   23  C   UNL     1       3.515  33.320  58.609  1.00  0.00     0.098 A 
HETATM   24  N   UNL     1       3.201  34.116  57.629  1.00  0.00    -0.170 NA
HETATM   25  N   UNL     1       2.542  35.269  57.914  1.00  0.00    -0.242 N 
HETATM   26  C   UNL     1       2.119  35.673  59.155  1.00  0.00     0.272 A 
HETATM   27  H   UNL     1       2.292  35.854  57.123  1.00  0.00     0.192 HD
HETATM   28  O   UNL     1       1.474  36.701  59.330  1.00  0.00    -0.266 OA
HETATM   29  C   UNL     1       2.501  34.807  60.283  1.00  0.00     0.046 A 
HETATM   30  C   UNL     1       2.169  35.173  61.593  1.00  0.00     0.018 A 
HETATM   31  C   UNL     1       3.223  33.641  60.030  1.00  0.00     0.011 A 
HETATM   32  C   UNL     1       2.578  34.374  62.660  1.00  0.00     0.001 A 
HETATM   33  C   UNL     1       3.327  33.223  62.417  1.00  0.00     0.001 A 
HETATM   34  C   UNL     1       3.657  32.859  61.108  1.00  0.00     0.015 A 
ENDBRANCH   4  23
TORSDOF 4
ENDMDL
