MODEL 1
REMARK VINA RESULT:      -8.8      0.000      0.000
REMARK  5 active torsions:
REMARK  status: ('A' for Active; 'I' for Inactive)
REMARK    1  A    between atoms: C_2  and  N_3 
REMARK    2  A    between atoms: C_7  and  N_8 
REMARK       I    between atoms: N_8  and  C_9 
REMARK       I    between atoms: C_9  and  N_10 
REMARK    3  A    between atoms: N_10  and  C_11 
REMARK    4  A    between atoms: C_11  and  C_12 
REMARK    5  A    between atoms: C_17  and  C_18 
ROOT
HETATM    1  N   UNL     1       4.389  27.359  56.699  1.00  0.00    -0.293 N 
HETATM    2  C   UNL     1       5.228  26.232  56.581  1.00  0.00     0.322 C 
HETATM    3  N   UNL     1       6.489  26.476  56.121  1.00  0.00    -0.339 N 
HETATM    4  O   UNL     1       4.791  25.180  57.008  1.00  0.00    -0.247 OA
HETATM    5  H   UNL     1       3.642  27.243  57.376  1.00  0.00     0.172 HD
HETATM    6  H   UNL     1       6.805  27.431  56.176  1.00  0.00     0.164 HD
ENDROOT
BRANCH   3   7
HETATM    7  C   UNL     1       7.458  25.419  56.323  1.00  0.00     0.163 C 
BRANCH   7   8
HETATM    8  C   UNL     1       7.702  24.492  55.159  1.00  0.00    -0.037 A 
HETATM    9  C   UNL     1       7.747  25.059  53.873  1.00  0.00     0.051 A 
HETATM   10  C   UNL     1       7.864  24.255  52.744  1.00  0.00     0.117 A 
HETATM   11  F   UNL     1       7.887  24.824  51.532  1.00  0.00    -0.206 F 
HETATM   12  C   UNL     1       7.937  22.875  52.853  1.00  0.00     0.058 A 
HETATM   13  C   UNL     1       7.892  22.277  54.119  1.00  0.00     0.051 A 
HETATM   14  C   UNL     1       7.762  23.093  55.265  1.00  0.00     0.025 A 
BRANCH  13  15
HETATM   15  C   UNL     1       7.943  20.774  54.258  1.00  0.00     0.417 C 
HETATM   16  F   UNL     1       9.202  20.274  54.372  1.00  0.00    -0.166 F 
HETATM   17  F   UNL     1       7.262  20.338  55.354  1.00  0.00    -0.166 F 
HETATM   18  F   UNL     1       7.377  20.143  53.193  1.00  0.00    -0.166 F 
ENDBRANCH  13  15
ENDBRANCH   7   8
ENDBRANCH   3   7
BRANCH   1  19
HETATM   19  C   UNL     1       4.450  28.558  56.018  1.00  0.00     0.129 C 
HETATM   20  N   UNL     1       4.325  28.863  54.680  1.00  0.00    -0.250 N 
HETATM   21  N   UNL     1       4.507  30.180  54.438  1.00  0.00    -0.183 NA
HETATM   22  C   UNL     1       4.606  30.728  55.649  1.00  0.00     0.142 C 
HETATM   23  C   UNL     1       4.550  29.767  56.671  1.00  0.00     0.071 C 
BRANCH  20  24
HETATM   24  C   UNL     1       3.812  28.024  53.599  1.00  0.00     0.104 C 
HETATM   25  C   UNL     1       4.912  27.155  52.988  1.00  0.00     0.034 C 
HETATM   26  C   UNL     1       3.118  28.870  52.529  1.00  0.00     0.034 C 
ENDBRANCH  20  24
ENDBRANCH   1  19
TORSDOF 5
ENDMDL
MODEL 2
REMARK VINA RESULT:      -8.8      3.169      4.325
REMARK  5 active torsions:
REMARK  status: ('A' for Active; 'I' for Inactive)
REMARK    1  A    between atoms: C_2  and  N_3 
REMARK    2  A    between atoms: C_7  and  N_8 
REMARK       I    between atoms: N_8  and  C_9 
REMARK       I    between atoms: C_9  and  N_10 
REMARK    3  A    between atoms: N_10  and  C_11 
REMARK    4  A    between atoms: C_11  and  C_12 
REMARK    5  A    between atoms: C_17  and  C_18 
ROOT
HETATM    1  N   UNL     1       7.841  29.326  55.460  1.00  0.00    -0.293 N 
HETATM    2  C   UNL     1       7.271  28.071  55.160  1.00  0.00     0.322 C 
HETATM    3  N   UNL     1       7.434  27.104  56.109  1.00  0.00    -0.339 N 
HETATM    4  O   UNL     1       6.596  28.006  54.150  1.00  0.00    -0.247 OA
HETATM    5  H   UNL     1       7.401  30.100  54.973  1.00  0.00     0.172 HD
HETATM    6  H   UNL     1       7.680  27.424  57.032  1.00  0.00     0.164 HD
ENDROOT
BRANCH   3   7
HETATM    7  C   UNL     1       6.576  25.943  55.990  1.00  0.00     0.163 C 
BRANCH   7   8
HETATM    8  C   UNL     1       7.207  24.689  55.439  1.00  0.00    -0.037 A 
HETATM    9  C   UNL     1       7.398  24.612  54.048  1.00  0.00     0.051 A 
HETATM   10  C   UNL     1       7.875  23.447  53.457  1.00  0.00     0.117 A 
HETATM   11  F   UNL     1       8.031  23.400  52.128  1.00  0.00    -0.206 F 
HETATM   12  C   UNL     1       8.175  22.329  54.221  1.00  0.00     0.058 A 
HETATM   13  C   UNL     1       7.994  22.370  55.609  1.00  0.00     0.051 A 
HETATM   14  C   UNL     1       7.497  23.550  56.208  1.00  0.00     0.025 A 
BRANCH  13  15
HETATM   15  C   UNL     1       8.288  21.154  56.456  1.00  0.00     0.417 C 
HETATM   16  F   UNL     1       7.387  20.148  56.304  1.00  0.00    -0.166 F 
HETATM   17  F   UNL     1       9.507  20.617  56.174  1.00  0.00    -0.166 F 
HETATM   18  F   UNL     1       8.308  21.450  57.785  1.00  0.00    -0.166 F 
ENDBRANCH  13  15
ENDBRANCH   7   8
ENDBRANCH   3   7
BRANCH   1  19
HETATM   19  C   UNL     1       8.899  29.618  56.297  1.00  0.00     0.129 C 
HETATM   20  N   UNL     1       8.945  30.014  57.616  1.00  0.00    -0.250 N 
HETATM   21  N   UNL     1      10.210  30.244  58.035  1.00  0.00    -0.183 NA
HETATM   22  C   UNL     1      10.972  29.852  57.015  1.00  0.00     0.142 C 
HETATM   23  C   UNL     1      10.209  29.427  55.915  1.00  0.00     0.071 C 
BRANCH  20  24
HETATM   24  C   UNL     1       7.879  29.981  58.615  1.00  0.00     0.104 C 
HETATM   25  C   UNL     1       6.676  30.820  58.184  1.00  0.00     0.034 C 
HETATM   26  C   UNL     1       8.397  30.420  59.987  1.00  0.00     0.034 C 
ENDBRANCH  20  24
ENDBRANCH   1  19
TORSDOF 5
ENDMDL
MODEL 3
REMARK VINA RESULT:      -8.6      2.320      3.561
REMARK  5 active torsions:
REMARK  status: ('A' for Active; 'I' for Inactive)
REMARK    1  A    between atoms: C_2  and  N_3 
REMARK    2  A    between atoms: C_7  and  N_8 
REMARK       I    between atoms: N_8  and  C_9 
REMARK       I    between atoms: C_9  and  N_10 
REMARK    3  A    between atoms: N_10  and  C_11 
REMARK    4  A    between atoms: C_11  and  C_12 
REMARK    5  A    between atoms: C_17  and  C_18 
ROOT
HETATM    1  N   UNL     1       4.120  26.360  53.229  1.00  0.00    -0.293 N 
HETATM    2  C   UNL     1       5.046  25.589  52.497  1.00  0.00     0.322 C 
HETATM    3  N   UNL     1       6.335  26.041  52.508  1.00  0.00    -0.339 N 
HETATM    4  O   UNL     1       4.637  24.542  52.031  1.00  0.00    -0.247 OA
HETATM    5  H   UNL     1       3.306  25.838  53.533  1.00  0.00     0.172 HD
HETATM    6  H   UNL     1       6.571  26.691  53.240  1.00  0.00     0.164 HD
ENDROOT
BRANCH   3   7
HETATM    7  C   UNL     1       7.344  25.099  52.073  1.00  0.00     0.163 C 
BRANCH   7   8
HETATM    8  C   UNL     1       7.815  24.092  53.093  1.00  0.00    -0.037 A 
HETATM    9  C   UNL     1       8.044  22.777  52.653  1.00  0.00     0.051 A 
HETATM   10  C   UNL     1       8.378  21.771  53.554  1.00  0.00     0.117 A 
HETATM   11  F   UNL     1       8.573  20.524  53.105  1.00  0.00    -0.206 F 
HETATM   12  C   UNL     1       8.493  22.035  54.910  1.00  0.00     0.058 A 
HETATM   13  C   UNL     1       8.269  23.335  55.383  1.00  0.00     0.051 A 
HETATM   14  C   UNL     1       7.918  24.353  54.469  1.00  0.00     0.025 A 
BRANCH  13  15
HETATM   15  C   UNL     1       8.362  23.638  56.860  1.00  0.00     0.417 C 
HETATM   16  F   UNL     1       9.467  24.349  57.207  1.00  0.00    -0.166 F 
HETATM   17  F   UNL     1       7.294  24.358  57.303  1.00  0.00    -0.166 F 
HETATM   18  F   UNL     1       8.386  22.505  57.614  1.00  0.00    -0.166 F 
ENDBRANCH  13  15
ENDBRANCH   7   8
ENDBRANCH   3   7
BRANCH   1  19
HETATM   19  C   UNL     1       4.179  27.699  53.559  1.00  0.00     0.129 C 
HETATM   20  N   UNL     1       4.680  28.353  54.663  1.00  0.00    -0.250 N 
HETATM   21  N   UNL     1       4.483  29.689  54.598  1.00  0.00    -0.183 NA
HETATM   22  C   UNL     1       3.981  29.890  53.380  1.00  0.00     0.142 C 
HETATM   23  C   UNL     1       3.797  28.687  52.678  1.00  0.00     0.071 C 
BRANCH  20  24
HETATM   24  C   UNL     1       5.557  27.832  55.710  1.00  0.00     0.104 C 
HETATM   25  C   UNL     1       5.265  28.479  57.064  1.00  0.00     0.034 C 
HETATM   26  C   UNL     1       7.030  27.996  55.324  1.00  0.00     0.034 C 
ENDBRANCH  20  24
ENDBRANCH   1  19
TORSDOF 5
ENDMDL
MODEL 4
REMARK VINA RESULT:      -8.6      1.004      2.387
REMARK  5 active torsions:
REMARK  status: ('A' for Active; 'I' for Inactive)
REMARK    1  A    between atoms: C_2  and  N_3 
REMARK    2  A    between atoms: C_7  and  N_8 
REMARK       I    between atoms: N_8  and  C_9 
REMARK       I    between atoms: C_9  and  N_10 
REMARK    3  A    between atoms: N_10  and  C_11 
REMARK    4  A    between atoms: C_11  and  C_12 
REMARK    5  A    between atoms: C_17  and  C_18 
ROOT
HETATM    1  N   UNL     1       4.402  27.320  56.705  1.00  0.00    -0.293 N 
HETATM    2  C   UNL     1       5.271  26.215  56.591  1.00  0.00     0.322 C 
HETATM    3  N   UNL     1       6.519  26.489  56.110  1.00  0.00    -0.339 N 
HETATM    4  O   UNL     1       4.870  25.158  57.038  1.00  0.00    -0.247 OA
HETATM    5  H   UNL     1       3.668  27.192  57.393  1.00  0.00     0.172 HD
HETATM    6  H   UNL     1       6.808  27.454  56.149  1.00  0.00     0.164 HD
ENDROOT
BRANCH   3   7
HETATM    7  C   UNL     1       7.520  25.463  56.314  1.00  0.00     0.163 C 
BRANCH   7   8
HETATM    8  C   UNL     1       7.742  24.497  55.177  1.00  0.00    -0.037 A 
HETATM    9  C   UNL     1       7.742  25.018  53.871  1.00  0.00     0.051 A 
HETATM   10  C   UNL     1       7.835  24.175  52.768  1.00  0.00     0.117 A 
HETATM   11  F   UNL     1       7.817  24.700  51.536  1.00  0.00    -0.206 F 
HETATM   12  C   UNL     1       7.928  22.801  52.924  1.00  0.00     0.058 A 
HETATM   13  C   UNL     1       7.928  22.249  54.212  1.00  0.00     0.051 A 
HETATM   14  C   UNL     1       7.821  23.104  55.331  1.00  0.00     0.025 A 
BRANCH  13  15
HETATM   15  C   UNL     1       8.000  20.752  54.403  1.00  0.00     0.417 C 
HETATM   16  F   UNL     1       7.125  20.273  55.327  1.00  0.00    -0.166 F 
HETATM   17  F   UNL     1       7.741  20.076  53.250  1.00  0.00    -0.166 F 
HETATM   18  F   UNL     1       9.237  20.347  54.803  1.00  0.00    -0.166 F 
ENDBRANCH  13  15
ENDBRANCH   7   8
ENDBRANCH   3   7
BRANCH   1  19
HETATM   19  C   UNL     1       4.421  28.511  56.007  1.00  0.00     0.129 C 
HETATM   20  N   UNL     1       4.809  29.783  56.368  1.00  0.00    -0.250 N 
HETATM   21  N   UNL     1       4.610  30.678  55.375  1.00  0.00    -0.183 NA
HETATM   22  C   UNL     1       4.229  29.938  54.334  1.00  0.00     0.142 C 
HETATM   23  C   UNL     1       4.120  28.577  54.664  1.00  0.00     0.071 C 
BRANCH  20  24
HETATM   24  C   UNL     1       5.583  30.202  57.534  1.00  0.00     0.104 C 
HETATM   25  C   UNL     1       5.475  31.709  57.771  1.00  0.00     0.034 C 
HETATM   26  C   UNL     1       7.044  29.765  57.410  1.00  0.00     0.034 C 
ENDBRANCH  20  24
ENDBRANCH   1  19
TORSDOF 5
ENDMDL
MODEL 5
REMARK VINA RESULT:      -8.6      2.838      4.115
REMARK  5 active torsions:
REMARK  status: ('A' for Active; 'I' for Inactive)
REMARK    1  A    between atoms: C_2  and  N_3 
REMARK    2  A    between atoms: C_7  and  N_8 
REMARK       I    between atoms: N_8  and  C_9 
REMARK       I    between atoms: C_9  and  N_10 
REMARK    3  A    between atoms: N_10  and  C_11 
REMARK    4  A    between atoms: C_11  and  C_12 
REMARK    5  A    between atoms: C_17  and  C_18 
ROOT
HETATM    1  N   UNL     1       7.572  29.021  54.677  1.00  0.00    -0.293 N 
HETATM    2  C   UNL     1       7.311  27.874  53.899  1.00  0.00     0.322 C 
HETATM    3  N   UNL     1       7.695  26.685  54.449  1.00  0.00    -0.339 N 
HETATM    4  O   UNL     1       6.670  28.041  52.879  1.00  0.00    -0.247 OA
HETATM    5  H   UNL     1       6.964  29.804  54.464  1.00  0.00     0.172 HD
HETATM    6  H   UNL     1       7.859  26.688  55.443  1.00  0.00     0.164 HD
ENDROOT
BRANCH   3   7
HETATM    7  C   UNL     1       7.133  25.494  53.849  1.00  0.00     0.163 C 
BRANCH   7   8
HETATM    8  C   UNL     1       7.509  24.176  54.478  1.00  0.00    -0.037 A 
HETATM    9  C   UNL     1       7.821  24.173  55.849  1.00  0.00     0.051 A 
HETATM   10  C   UNL     1       8.278  23.018  56.475  1.00  0.00     0.117 A 
HETATM   11  F   UNL     1       8.583  23.053  57.778  1.00  0.00    -0.206 F 
HETATM   12  C   UNL     1       8.438  21.837  55.766  1.00  0.00     0.058 A 
HETATM   13  C   UNL     1       8.138  21.805  54.398  1.00  0.00     0.051 A 
HETATM   14  C   UNL     1       7.686  22.982  53.760  1.00  0.00     0.025 A 
BRANCH  13  15
HETATM   15  C   UNL     1       8.333  20.536  53.602  1.00  0.00     0.417 C 
HETATM   16  F   UNL     1       7.260  20.196  52.839  1.00  0.00    -0.166 F 
HETATM   17  F   UNL     1       9.391  20.624  52.749  1.00  0.00    -0.166 F 
HETATM   18  F   UNL     1       8.587  19.464  54.402  1.00  0.00    -0.166 F 
ENDBRANCH  13  15
ENDBRANCH   7   8
ENDBRANCH   3   7
BRANCH   1  19
HETATM   19  C   UNL     1       8.532  29.206  55.651  1.00  0.00     0.129 C 
HETATM   20  N   UNL     1       8.470  29.142  57.027  1.00  0.00    -0.250 N 
HETATM   21  N   UNL     1       9.654  29.447  57.604  1.00  0.00    -0.183 NA
HETATM   22  C   UNL     1      10.501  29.564  56.581  1.00  0.00     0.142 C 
HETATM   23  C   UNL     1       9.861  29.397  55.343  1.00  0.00     0.071 C 
BRANCH  20  24
HETATM   24  C   UNL     1       7.413  28.584  57.866  1.00  0.00     0.104 C 
HETATM   25  C   UNL     1       7.377  27.057  57.788  1.00  0.00     0.034 C 
HETATM   26  C   UNL     1       6.052  29.187  57.509  1.00  0.00     0.034 C 
ENDBRANCH  20  24
ENDBRANCH   1  19
TORSDOF 5
ENDMDL
MODEL 6
REMARK VINA RESULT:      -8.6      2.132      2.864
REMARK  5 active torsions:
REMARK  status: ('A' for Active; 'I' for Inactive)
REMARK    1  A    between atoms: C_2  and  N_3 
REMARK    2  A    between atoms: C_7  and  N_8 
REMARK       I    between atoms: N_8  and  C_9 
REMARK       I    between atoms: C_9  and  N_10 
REMARK    3  A    between atoms: N_10  and  C_11 
REMARK    4  A    between atoms: C_11  and  C_12 
REMARK    5  A    between atoms: C_17  and  C_18 
ROOT
HETATM    1  N   UNL     1       6.770  28.634  53.577  1.00  0.00    -0.293 N 
HETATM    2  C   UNL     1       7.314  27.970  54.695  1.00  0.00     0.322 C 
HETATM    3  N   UNL     1       6.671  26.828  55.077  1.00  0.00    -0.339 N 
HETATM    4  O   UNL     1       8.360  28.408  55.134  1.00  0.00    -0.247 OA
HETATM    5  H   UNL     1       7.439  29.215  53.083  1.00  0.00     0.172 HD
HETATM    6  H   UNL     1       6.066  26.408  54.390  1.00  0.00     0.164 HD
ENDROOT
BRANCH   3   7
HETATM    7  C   UNL     1       7.398  25.957  55.976  1.00  0.00     0.163 C 
BRANCH   7   8
HETATM    8  C   UNL     1       7.769  24.594  55.448  1.00  0.00    -0.037 A 
HETATM    9  C   UNL     1       7.818  24.428  54.052  1.00  0.00     0.051 A 
HETATM   10  C   UNL     1       8.049  23.176  53.491  1.00  0.00     0.117 A 
HETATM   11  F   UNL     1       8.073  23.047  52.159  1.00  0.00    -0.206 F 
HETATM   12  C   UNL     1       8.236  22.058  54.290  1.00  0.00     0.058 A 
HETATM   13  C   UNL     1       8.191  22.188  55.684  1.00  0.00     0.051 A 
HETATM   14  C   UNL     1       7.944  23.457  56.253  1.00  0.00     0.025 A 
BRANCH  13  15
HETATM   15  C   UNL     1       8.365  20.978  56.572  1.00  0.00     0.417 C 
HETATM   16  F   UNL     1       7.422  20.017  56.381  1.00  0.00    -0.166 F 
HETATM   17  F   UNL     1       9.569  20.371  56.380  1.00  0.00    -0.166 F 
HETATM   18  F   UNL     1       8.317  21.303  57.893  1.00  0.00    -0.166 F 
ENDBRANCH  13  15
ENDBRANCH   7   8
ENDBRANCH   3   7
BRANCH   1  19
HETATM   19  C   UNL     1       5.477  28.602  53.096  1.00  0.00     0.129 C 
HETATM   20  N   UNL     1       4.890  27.877  52.081  1.00  0.00    -0.250 N 
HETATM   21  N   UNL     1       3.588  28.197  51.912  1.00  0.00    -0.183 NA
HETATM   22  C   UNL     1       3.318  29.026  52.920  1.00  0.00     0.142 C 
HETATM   23  C   UNL     1       4.452  29.292  53.705  1.00  0.00     0.071 C 
BRANCH  20  24
HETATM   24  C   UNL     1       5.413  26.707  51.378  1.00  0.00     0.104 C 
HETATM   25  C   UNL     1       4.906  26.642  49.937  1.00  0.00     0.034 C 
HETATM   26  C   UNL     1       5.088  25.419  52.138  1.00  0.00     0.034 C 
ENDBRANCH  20  24
ENDBRANCH   1  19
TORSDOF 5
ENDMDL
MODEL 7
REMARK VINA RESULT:      -8.4      1.942      2.946
REMARK  5 active torsions:
REMARK  status: ('A' for Active; 'I' for Inactive)
REMARK    1  A    between atoms: C_2  and  N_3 
REMARK    2  A    between atoms: C_7  and  N_8 
REMARK       I    between atoms: N_8  and  C_9 
REMARK       I    between atoms: C_9  and  N_10 
REMARK    3  A    between atoms: N_10  and  C_11 
REMARK    4  A    between atoms: C_11  and  C_12 
REMARK    5  A    between atoms: C_17  and  C_18 
ROOT
HETATM    1  N   UNL     1       4.015  26.583  53.309  1.00  0.00    -0.293 N 
HETATM    2  C   UNL     1       4.966  25.796  52.627  1.00  0.00     0.322 C 
HETATM    3  N   UNL     1       6.225  26.319  52.550  1.00  0.00    -0.339 N 
HETATM    4  O   UNL     1       4.608  24.686  52.281  1.00  0.00    -0.247 OA
HETATM    5  H   UNL     1       3.242  26.049  53.690  1.00  0.00     0.172 HD
HETATM    6  H   UNL     1       6.441  27.053  53.206  1.00  0.00     0.164 HD
ENDROOT
BRANCH   3   7
HETATM    7  C   UNL     1       7.277  25.397  52.179  1.00  0.00     0.163 C 
BRANCH   7   8
HETATM    8  C   UNL     1       7.633  24.333  53.187  1.00  0.00    -0.037 A 
HETATM    9  C   UNL     1       8.008  24.755  54.475  1.00  0.00     0.051 A 
HETATM   10  C   UNL     1       8.450  23.839  55.424  1.00  0.00     0.117 A 
HETATM   11  F   UNL     1       8.815  24.275  56.637  1.00  0.00    -0.206 F 
HETATM   12  C   UNL     1       8.534  22.488  55.129  1.00  0.00     0.058 A 
HETATM   13  C   UNL     1       8.171  22.033  53.854  1.00  0.00     0.051 A 
HETATM   14  C   UNL     1       7.734  22.965  52.886  1.00  0.00     0.025 A 
BRANCH  13  15
HETATM   15  C   UNL     1       8.282  20.568  53.503  1.00  0.00     0.417 C 
HETATM   16  F   UNL     1       9.348  20.272  52.714  1.00  0.00    -0.166 F 
HETATM   17  F   UNL     1       8.400  19.784  54.610  1.00  0.00    -0.166 F 
HETATM   18  F   UNL     1       7.181  20.117  52.841  1.00  0.00    -0.166 F 
ENDBRANCH  13  15
ENDBRANCH   7   8
ENDBRANCH   3   7
BRANCH   1  19
HETATM   19  C   UNL     1       4.002  27.949  53.501  1.00  0.00     0.129 C 
HETATM   20  N   UNL     1       4.509  28.741  54.510  1.00  0.00    -0.250 N 
HETATM   21  N   UNL     1       4.223  30.049  54.323  1.00  0.00    -0.183 NA
HETATM   22  C   UNL     1       3.657  30.095  53.117  1.00  0.00     0.142 C 
HETATM   23  C   UNL     1       3.519  28.819  52.548  1.00  0.00     0.071 C 
BRANCH  20  24
HETATM   24  C   UNL     1       5.462  28.383  55.557  1.00  0.00     0.104 C 
HETATM   25  C   UNL     1       6.899  28.372  55.033  1.00  0.00     0.034 C 
HETATM   26  C   UNL     1       5.097  27.041  56.196  1.00  0.00     0.034 C 
ENDBRANCH  20  24
ENDBRANCH   1  19
TORSDOF 5
ENDMDL
MODEL 8
REMARK VINA RESULT:      -8.3      1.836      2.997
REMARK  5 active torsions:
REMARK  status: ('A' for Active; 'I' for Inactive)
REMARK    1  A    between atoms: C_2  and  N_3 
REMARK    2  A    between atoms: C_7  and  N_8 
REMARK       I    between atoms: N_8  and  C_9 
REMARK       I    between atoms: C_9  and  N_10 
REMARK    3  A    between atoms: N_10  and  C_11 
REMARK    4  A    between atoms: C_11  and  C_12 
REMARK    5  A    between atoms: C_17  and  C_18 
ROOT
HETATM    1  N   UNL     1       4.799  26.896  54.831  1.00  0.00    -0.293 N 
HETATM    2  C   UNL     1       5.651  25.950  55.437  1.00  0.00     0.322 C 
HETATM    3  N   UNL     1       6.984  26.101  55.180  1.00  0.00    -0.339 N 
HETATM    4  O   UNL     1       5.135  25.171  56.216  1.00  0.00    -0.247 OA
HETATM    5  H   UNL     1       3.916  27.019  55.315  1.00  0.00     0.172 HD
HETATM    6  H   UNL     1       7.270  27.004  54.835  1.00  0.00     0.164 HD
ENDROOT
BRANCH   3   7
HETATM    7  C   UNL     1       7.887  25.381  56.053  1.00  0.00     0.163 C 
BRANCH   7   8
HETATM    8  C   UNL     1       7.957  23.885  55.869  1.00  0.00    -0.037 A 
HETATM    9  C   UNL     1       8.134  23.095  57.018  1.00  0.00     0.051 A 
HETATM   10  C   UNL     1       8.313  21.719  56.917  1.00  0.00     0.117 A 
HETATM   11  F   UNL     1       8.495  20.997  58.029  1.00  0.00    -0.206 F 
HETATM   12  C   UNL     1       8.324  21.089  55.682  1.00  0.00     0.058 A 
HETATM   13  C   UNL     1       8.153  21.847  54.516  1.00  0.00     0.051 A 
HETATM   14  C   UNL     1       7.984  23.246  54.619  1.00  0.00     0.025 A 
BRANCH  13  15
HETATM   15  C   UNL     1       8.190  21.183  53.160  1.00  0.00     0.417 C 
HETATM   16  F   UNL     1       9.313  20.450  52.937  1.00  0.00    -0.166 F 
HETATM   17  F   UNL     1       7.141  20.335  52.976  1.00  0.00    -0.166 F 
HETATM   18  F   UNL     1       8.119  22.089  52.146  1.00  0.00    -0.166 F 
ENDBRANCH  13  15
ENDBRANCH   7   8
ENDBRANCH   3   7
BRANCH   1  19
HETATM   19  C   UNL     1       5.008  27.642  53.688  1.00  0.00     0.129 C 
HETATM   20  N   UNL     1       5.387  27.284  52.412  1.00  0.00    -0.250 N 
HETATM   21  N   UNL     1       5.524  28.356  51.601  1.00  0.00    -0.183 NA
HETATM   22  C   UNL     1       5.090  29.382  52.333  1.00  0.00     0.142 C 
HETATM   23  C   UNL     1       4.730  28.990  53.633  1.00  0.00     0.071 C 
BRANCH  20  24
HETATM   24  C   UNL     1       5.419  25.952  51.812  1.00  0.00     0.104 C 
HETATM   25  C   UNL     1       6.826  25.354  51.841  1.00  0.00     0.034 C 
HETATM   26  C   UNL     1       4.857  25.978  50.388  1.00  0.00     0.034 C 
ENDBRANCH  20  24
ENDBRANCH   1  19
TORSDOF 5
ENDMDL
MODEL 9
REMARK VINA RESULT:      -8.3      2.225      2.828
REMARK  5 active torsions:
REMARK  status: ('A' for Active; 'I' for Inactive)
REMARK    1  A    between atoms: C_2  and  N_3 
REMARK    2  A    between atoms: C_7  and  N_8 
REMARK       I    between atoms: N_8  and  C_9 
REMARK       I    between atoms: C_9  and  N_10 
REMARK    3  A    between atoms: N_10  and  C_11 
REMARK    4  A    between atoms: C_11  and  C_12 
REMARK    5  A    between atoms: C_17  and  C_18 
ROOT
HETATM    1  N   UNL     1       4.050  26.533  53.113  1.00  0.00    -0.293 N 
HETATM    2  C   UNL     1       5.028  25.746  52.471  1.00  0.00     0.322 C 
HETATM    3  N   UNL     1       6.287  26.274  52.438  1.00  0.00    -0.339 N 
HETATM    4  O   UNL     1       4.687  24.633  52.117  1.00  0.00    -0.247 OA
HETATM    5  H   UNL     1       3.265  25.997  53.468  1.00  0.00     0.172 HD
HETATM    6  H   UNL     1       6.476  27.012  53.098  1.00  0.00     0.164 HD
ENDROOT
BRANCH   3   7
HETATM    7  C   UNL     1       7.356  25.355  52.111  1.00  0.00     0.163 C 
BRANCH   7   8
HETATM    8  C   UNL     1       7.686  24.305  53.142  1.00  0.00    -0.037 A 
HETATM    9  C   UNL     1       8.042  24.745  54.429  1.00  0.00     0.051 A 
HETATM   10  C   UNL     1       8.461  23.842  55.401  1.00  0.00     0.117 A 
HETATM   11  F   UNL     1       8.809  24.295  56.612  1.00  0.00    -0.206 F 
HETATM   12  C   UNL     1       8.541  22.485  55.129  1.00  0.00     0.058 A 
HETATM   13  C   UNL     1       8.196  22.013  53.856  1.00  0.00     0.051 A 
HETATM   14  C   UNL     1       7.783  22.931  52.865  1.00  0.00     0.025 A 
BRANCH  13  15
HETATM   15  C   UNL     1       8.303  20.541  53.530  1.00  0.00     0.417 C 
HETATM   16  F   UNL     1       9.401  20.220  52.795  1.00  0.00    -0.166 F 
HETATM   17  F   UNL     1       8.360  19.772  54.652  1.00  0.00    -0.166 F 
HETATM   18  F   UNL     1       7.228  20.095  52.825  1.00  0.00    -0.166 F 
ENDBRANCH  13  15
ENDBRANCH   7   8
ENDBRANCH   3   7
BRANCH   1  19
HETATM   19  C   UNL     1       4.024  27.900  53.299  1.00  0.00     0.129 C 
HETATM   20  N   UNL     1       3.812  28.944  52.423  1.00  0.00    -0.250 N 
HETATM   21  N   UNL     1       3.927  30.147  53.027  1.00  0.00    -0.183 NA
HETATM   22  C   UNL     1       4.071  29.856  54.320  1.00  0.00     0.142 C 
HETATM   23  C   UNL     1       4.111  28.471  54.549  1.00  0.00     0.071 C 
BRANCH  20  24
HETATM   24  C   UNL     1       3.274  28.898  51.065  1.00  0.00     0.104 C 
HETATM   25  C   UNL     1       4.387  28.809  50.020  1.00  0.00     0.034 C 
HETATM   26  C   UNL     1       2.358  30.094  50.797  1.00  0.00     0.034 C 
ENDBRANCH  20  24
ENDBRANCH   1  19
TORSDOF 5
ENDMDL
MODEL 10
REMARK VINA RESULT:      -8.2      3.540      4.701
REMARK  5 active torsions:
REMARK  status: ('A' for Active; 'I' for Inactive)
REMARK    1  A    between atoms: C_2  and  N_3 
REMARK    2  A    between atoms: C_7  and  N_8 
REMARK       I    between atoms: N_8  and  C_9 
REMARK       I    between atoms: C_9  and  N_10 
REMARK    3  A    between atoms: N_10  and  C_11 
REMARK    4  A    between atoms: C_11  and  C_12 
REMARK    5  A    between atoms: C_17  and  C_18 
ROOT
HETATM    1  N   UNL     1       7.800  28.640  57.982  1.00  0.00    -0.293 N 
HETATM    2  C   UNL     1       6.897  28.204  56.991  1.00  0.00     0.322 C 
HETATM    3  N   UNL     1       7.352  28.262  55.705  1.00  0.00    -0.339 N 
HETATM    4  O   UNL     1       5.855  27.712  57.382  1.00  0.00    -0.247 OA
HETATM    5  H   UNL     1       7.623  28.244  58.898  1.00  0.00     0.172 HD
HETATM    6  H   UNL     1       8.351  28.331  55.591  1.00  0.00     0.164 HD
ENDROOT
BRANCH   3   7
HETATM    7  C   UNL     1       6.598  27.506  54.727  1.00  0.00     0.163 C 
BRANCH   7   8
HETATM    8  C   UNL     1       7.173  26.176  54.310  1.00  0.00    -0.037 A 
HETATM    9  C   UNL     1       7.323  25.933  52.933  1.00  0.00     0.051 A 
HETATM   10  C   UNL     1       7.746  24.692  52.469  1.00  0.00     0.117 A 
HETATM   11  F   UNL     1       7.863  24.488  51.151  1.00  0.00    -0.206 F 
HETATM   12  C   UNL     1       8.032  23.660  53.349  1.00  0.00     0.058 A 
HETATM   13  C   UNL     1       7.891  23.866  54.728  1.00  0.00     0.051 A 
HETATM   14  C   UNL     1       7.449  25.123  55.198  1.00  0.00     0.025 A 
BRANCH  13  15
HETATM   15  C   UNL     1       8.170  22.746  55.702  1.00  0.00     0.417 C 
HETATM   16  F   UNL     1       8.202  23.143  57.001  1.00  0.00    -0.166 F 
HETATM   17  F   UNL     1       7.233  21.760  55.630  1.00  0.00    -0.166 F 
HETATM   18  F   UNL     1       9.366  22.143  55.458  1.00  0.00    -0.166 F 
ENDBRANCH  13  15
ENDBRANCH   7   8
ENDBRANCH   3   7
BRANCH   1  19
HETATM   19  C   UNL     1       8.854  29.524  57.863  1.00  0.00     0.129 C 
HETATM   20  N   UNL     1       9.133  30.714  58.500  1.00  0.00    -0.250 N 
HETATM   21  N   UNL     1      10.265  31.287  58.035  1.00  0.00    -0.183 NA
HETATM   22  C   UNL     1      10.776  30.382  57.201  1.00  0.00     0.142 C 
HETATM   23  C   UNL     1       9.952  29.252  57.076  1.00  0.00     0.071 C 
BRANCH  20  24
HETATM   24  C   UNL     1       8.521  31.266  59.706  1.00  0.00     0.104 C 
HETATM   25  C   UNL     1       7.252  32.056  59.383  1.00  0.00     0.034 C 
HETATM   26  C   UNL     1       9.521  32.122  60.488  1.00  0.00     0.034 C 
ENDBRANCH  20  24
ENDBRANCH   1  19
TORSDOF 5
ENDMDL
