MODEL 1
REMARK VINA RESULT:      -9.6      0.000      0.000
REMARK  7 active torsions:
REMARK  status: ('A' for Active; 'I' for Inactive)
REMARK    1  A    between atoms: O_2  and  C_3 
REMARK    2  A    between atoms: C_7  and  C_8 
REMARK    3  A    between atoms: C_8  and  N_9 
REMARK       I    between atoms: N_9  and  C_10 
REMARK    4  A    between atoms: C_10  and  C_12 
REMARK    5  A    between atoms: C_17  and  C_26 
REMARK    6  A    between atoms: C_21  and  C_22 
REMARK    7  A    between atoms: C_22  and  N_23 
ROOT
HETATM    1  C   UNL     1       6.143  27.297  55.367  1.00  0.00     0.110 A 
HETATM    2  N   UNL     1       6.421  26.075  55.938  1.00  0.00    -0.351 N 
HETATM    3  H   UNL     1       6.276  25.877  56.919  1.00  0.00     0.166 HD
HETATM    4  C   UNL     1       6.928  25.197  55.016  1.00  0.00     0.044 A 
HETATM    5  C   UNL     1       7.363  23.873  55.175  1.00  0.00     0.042 A 
HETATM    6  C   UNL     1       7.833  23.184  54.045  1.00  0.00    -0.021 A 
HETATM    7  C   UNL     1       7.852  23.830  52.804  1.00  0.00     0.013 A 
HETATM    8  C   UNL     1       7.409  25.155  52.663  1.00  0.00     0.015 A 
HETATM    9  C   UNL     1       6.942  25.858  53.792  1.00  0.00     0.001 A 
HETATM   10  C   UNL     1       6.430  27.185  54.006  1.00  0.00     0.015 A 
ENDROOT
BRANCH   1  11
HETATM   11  C   UNL     1       5.617  28.376  56.177  1.00  0.00     0.269 C 
HETATM   12  N   UNL     1       6.547  29.063  56.910  1.00  0.00    -0.351 N 
HETATM   13  H   UNL     1       7.492  28.683  56.943  1.00  0.00     0.163 HD
HETATM   14  O   UNL     1       4.414  28.621  56.224  1.00  0.00    -0.266 OA
BRANCH  12  15
HETATM   15  C   UNL     1       6.195  30.111  57.830  1.00  0.00     0.161 C 
BRANCH  15  16
HETATM   16  C   UNL     1       7.406  30.782  58.423  1.00  0.00    -0.038 A 
HETATM   17  C   UNL     1       7.285  31.575  59.571  1.00  0.00     0.009 A 
HETATM   18  C   UNL     1       8.403  32.201  60.120  1.00  0.00     0.003 A 
HETATM   19  C   UNL     1       9.659  32.036  59.534  1.00  0.00     0.037 A 
HETATM   20  C   UNL     1       9.803  31.237  58.399  1.00  0.00     0.068 A 
HETATM   21  C   UNL     1       8.676  30.610  57.855  1.00  0.00     0.045 A 
BRANCH  20  22
HETATM   22  O   UNL     1      10.974  30.991  57.735  1.00  0.00    -0.356 OA
HETATM   23  C   UNL     1      11.046  29.781  56.992  1.00  0.00     0.210 C 
ENDBRANCH  20  22
ENDBRANCH  15  16
ENDBRANCH  12  15
ENDBRANCH   1  11
BRANCH  10  24
HETATM   24  C   UNL     1       6.204  28.210  52.930  1.00  0.00     0.313 C 
BRANCH  24  25
HETATM   25  N   UNL     1       4.994  27.890  52.145  1.00  0.00     0.084 N 
HETATM   26  C   UNL     1       3.819  28.601  52.669  1.00  0.00     0.309 C 
HETATM   27  C   UNL     1       5.209  28.283  50.746  1.00  0.00     0.309 C 
ENDBRANCH  24  25
ENDBRANCH  10  24
BRANCH   6  28
HETATM   28  C   UNL     1       8.305  21.813  54.154  1.00  0.00     0.010 A 
HETATM   29  C   UNL     1       8.510  20.825  53.163  1.00  0.00     0.152 A 
HETATM   30  N   UNL     1       8.943  19.665  53.667  1.00  0.00    -0.187 NA
HETATM   31  N   UNL     1       9.015  19.906  54.985  1.00  0.00    -0.289 N 
HETATM   32  H   UNL     1       9.323  19.156  55.595  1.00  0.00     0.188 HD
HETATM   33  C   UNL     1       8.644  21.174  55.328  1.00  0.00     0.123 A 
ENDBRANCH   6  28
TORSDOF 7
ENDMDL
MODEL 2
REMARK VINA RESULT:      -9.4      3.277      7.944
REMARK  7 active torsions:
REMARK  status: ('A' for Active; 'I' for Inactive)
REMARK    1  A    between atoms: O_2  and  C_3 
REMARK    2  A    between atoms: C_7  and  C_8 
REMARK    3  A    between atoms: C_8  and  N_9 
REMARK       I    between atoms: N_9  and  C_10 
REMARK    4  A    between atoms: C_10  and  C_12 
REMARK    5  A    between atoms: C_17  and  C_26 
REMARK    6  A    between atoms: C_21  and  C_22 
REMARK    7  A    between atoms: C_22  and  N_23 
ROOT
HETATM    1  C   UNL     1       5.565  26.820  52.971  1.00  0.00     0.110 A 
HETATM    2  N   UNL     1       6.203  25.708  52.467  1.00  0.00    -0.351 N 
HETATM    3  H   UNL     1       6.367  25.565  51.480  1.00  0.00     0.166 HD
HETATM    4  C   UNL     1       6.555  24.838  53.466  1.00  0.00     0.044 A 
HETATM    5  C   UNL     1       7.191  23.590  53.393  1.00  0.00     0.042 A 
HETATM    6  C   UNL     1       7.449  22.902  54.590  1.00  0.00    -0.021 A 
HETATM    7  C   UNL     1       7.071  23.475  55.809  1.00  0.00     0.013 A 
HETATM    8  C   UNL     1       6.439  24.727  55.862  1.00  0.00     0.015 A 
HETATM    9  C   UNL     1       6.168  25.424  54.668  1.00  0.00     0.001 A 
HETATM   10  C   UNL     1       5.554  26.688  54.360  1.00  0.00     0.015 A 
ENDROOT
BRANCH   1  11
HETATM   11  C   UNL     1       5.090  27.855  52.076  1.00  0.00     0.269 C 
HETATM   12  N   UNL     1       4.011  27.512  51.306  1.00  0.00    -0.351 N 
HETATM   13  H   UNL     1       3.721  26.535  51.314  1.00  0.00     0.163 HD
HETATM   14  O   UNL     1       5.651  28.945  51.995  1.00  0.00    -0.266 OA
BRANCH  12  15
HETATM   15  C   UNL     1       3.459  28.387  50.306  1.00  0.00     0.161 C 
BRANCH  15  16
HETATM   16  C   UNL     1       2.982  27.636  49.091  1.00  0.00    -0.038 A 
HETATM   17  C   UNL     1       3.837  26.746  48.428  1.00  0.00     0.009 A 
HETATM   18  C   UNL     1       3.401  26.053  47.301  1.00  0.00     0.003 A 
HETATM   19  C   UNL     1       2.101  26.234  46.824  1.00  0.00     0.037 A 
HETATM   20  C   UNL     1       1.229  27.104  47.479  1.00  0.00     0.068 A 
HETATM   21  C   UNL     1       1.673  27.795  48.613  1.00  0.00     0.045 A 
BRANCH  20  22
HETATM   22  O   UNL     1      -0.065  27.365  47.118  1.00  0.00    -0.356 OA
HETATM   23  C   UNL     1      -0.309  27.600  45.738  1.00  0.00     0.210 C 
ENDBRANCH  20  22
ENDBRANCH  15  16
ENDBRANCH  12  15
ENDBRANCH   1  11
BRANCH  10  24
HETATM   24  C   UNL     1       5.061  27.680  55.375  1.00  0.00     0.313 C 
BRANCH  24  25
HETATM   25  N   UNL     1       6.175  28.503  55.890  1.00  0.00     0.084 N 
HETATM   26  C   UNL     1       5.856  29.936  55.810  1.00  0.00     0.309 C 
HETATM   27  C   UNL     1       6.432  28.145  57.291  1.00  0.00     0.309 C 
ENDBRANCH  24  25
ENDBRANCH  10  24
BRANCH   6  28
HETATM   28  C   UNL     1       8.097  21.600  54.573  1.00  0.00     0.010 A 
HETATM   29  C   UNL     1       8.430  20.747  53.495  1.00  0.00     0.152 A 
HETATM   30  N   UNL     1       9.011  19.611  53.891  1.00  0.00    -0.187 NA
HETATM   31  N   UNL     1       9.050  19.731  55.227  1.00  0.00    -0.289 N 
HETATM   32  H   UNL     1       9.453  18.972  55.766  1.00  0.00     0.188 HD
HETATM   33  C   UNL     1       8.515  20.901  55.686  1.00  0.00     0.123 A 
ENDBRANCH   6  28
TORSDOF 7
ENDMDL
MODEL 3
REMARK VINA RESULT:      -9.0      2.525      6.868
REMARK  7 active torsions:
REMARK  status: ('A' for Active; 'I' for Inactive)
REMARK    1  A    between atoms: O_2  and  C_3 
REMARK    2  A    between atoms: C_7  and  C_8 
REMARK    3  A    between atoms: C_8  and  N_9 
REMARK       I    between atoms: N_9  and  C_10 
REMARK    4  A    between atoms: C_10  and  C_12 
REMARK    5  A    between atoms: C_17  and  C_26 
REMARK    6  A    between atoms: C_21  and  C_22 
REMARK    7  A    between atoms: C_22  and  N_23 
ROOT
HETATM    1  C   UNL     1       5.240  26.934  54.108  1.00  0.00     0.110 A 
HETATM    2  N   UNL     1       5.691  25.851  53.386  1.00  0.00    -0.351 N 
HETATM    3  H   UNL     1       5.560  25.759  52.388  1.00  0.00     0.166 HD
HETATM    4  C   UNL     1       6.308  24.934  54.195  1.00  0.00     0.044 A 
HETATM    5  C   UNL     1       6.880  23.693  53.880  1.00  0.00     0.042 A 
HETATM    6  C   UNL     1       7.467  22.946  54.914  1.00  0.00    -0.021 A 
HETATM    7  C   UNL     1       7.467  23.455  56.217  1.00  0.00     0.013 A 
HETATM    8  C   UNL     1       6.892  24.701  56.513  1.00  0.00     0.015 A 
HETATM    9  C   UNL     1       6.294  25.457  55.485  1.00  0.00     0.001 A 
HETATM   10  C   UNL     1       5.632  26.732  55.432  1.00  0.00     0.015 A 
ENDROOT
BRANCH   1  11
HETATM   11  C   UNL     1       4.538  28.012  53.442  1.00  0.00     0.269 C 
HETATM   12  N   UNL     1       3.970  27.685  52.240  1.00  0.00    -0.351 N 
HETATM   13  H   UNL     1       4.200  26.773  51.845  1.00  0.00     0.163 HD
HETATM   14  O   UNL     1       4.498  29.146  53.914  1.00  0.00    -0.266 OA
BRANCH  12  15
HETATM   15  C   UNL     1       3.305  28.649  51.405  1.00  0.00     0.161 C 
BRANCH  15  16
HETATM   16  C   UNL     1       3.838  28.648  49.996  1.00  0.00    -0.038 A 
HETATM   17  C   UNL     1       4.365  29.820  49.438  1.00  0.00     0.009 A 
HETATM   18  C   UNL     1       4.855  29.824  48.134  1.00  0.00     0.003 A 
HETATM   19  C   UNL     1       4.831  28.656  47.370  1.00  0.00     0.037 A 
HETATM   20  C   UNL     1       4.325  27.474  47.913  1.00  0.00     0.068 A 
HETATM   21  C   UNL     1       3.837  27.477  49.225  1.00  0.00     0.045 A 
BRANCH  20  22
HETATM   22  O   UNL     1       4.250  26.266  47.275  1.00  0.00    -0.356 OA
HETATM   23  C   UNL     1       3.221  25.381  47.700  1.00  0.00     0.210 C 
ENDBRANCH  20  22
ENDBRANCH  15  16
ENDBRANCH  12  15
ENDBRANCH   1  11
BRANCH  10  24
HETATM   24  C   UNL     1       5.467  27.671  56.594  1.00  0.00     0.313 C 
BRANCH  24  25
HETATM   25  N   UNL     1       6.603  28.613  56.675  1.00  0.00     0.084 N 
HETATM   26  C   UNL     1       6.135  29.987  56.910  1.00  0.00     0.309 C 
HETATM   27  C   UNL     1       7.486  28.209  57.777  1.00  0.00     0.309 C 
ENDBRANCH  24  25
ENDBRANCH  10  24
BRANCH   6  28
HETATM   28  C   UNL     1       8.067  21.648  54.645  1.00  0.00     0.010 A 
HETATM   29  C   UNL     1       8.150  20.898  53.449  1.00  0.00     0.152 A 
HETATM   30  N   UNL     1       8.773  19.728  53.612  1.00  0.00    -0.187 NA
HETATM   31  N   UNL     1       9.091  19.723  54.916  1.00  0.00    -0.289 N 
HETATM   32  H   UNL     1       9.579  18.915  55.288  1.00  0.00     0.188 HD
HETATM   33  C   UNL     1       8.690  20.847  55.579  1.00  0.00     0.123 A 
ENDBRANCH   6  28
TORSDOF 7
ENDMDL
MODEL 4
REMARK VINA RESULT:      -8.7      2.237      6.047
REMARK  7 active torsions:
REMARK  status: ('A' for Active; 'I' for Inactive)
REMARK    1  A    between atoms: O_2  and  C_3 
REMARK    2  A    between atoms: C_7  and  C_8 
REMARK    3  A    between atoms: C_8  and  N_9 
REMARK       I    between atoms: N_9  and  C_10 
REMARK    4  A    between atoms: C_10  and  C_12 
REMARK    5  A    between atoms: C_17  and  C_26 
REMARK    6  A    between atoms: C_21  and  C_22 
REMARK    7  A    between atoms: C_22  and  N_23 
ROOT
HETATM    1  C   UNL     1       5.471  26.939  54.782  1.00  0.00     0.110 A 
HETATM    2  N   UNL     1       5.716  25.791  54.062  1.00  0.00    -0.351 N 
HETATM    3  H   UNL     1       5.349  25.632  53.134  1.00  0.00     0.166 HD
HETATM    4  C   UNL     1       6.489  24.911  54.773  1.00  0.00     0.044 A 
HETATM    5  C   UNL     1       6.944  23.629  54.430  1.00  0.00     0.042 A 
HETATM    6  C   UNL     1       7.745  22.936  55.352  1.00  0.00    -0.021 A 
HETATM    7  C   UNL     1       8.065  23.538  56.574  1.00  0.00     0.013 A 
HETATM    8  C   UNL     1       7.603  24.822  56.899  1.00  0.00     0.015 A 
HETATM    9  C   UNL     1       6.793  25.525  55.984  1.00  0.00     0.001 A 
HETATM   10  C   UNL     1       6.163  26.818  55.988  1.00  0.00     0.015 A 
ENDROOT
BRANCH   1  11
HETATM   11  C   UNL     1       4.654  27.993  54.218  1.00  0.00     0.269 C 
HETATM   12  N   UNL     1       3.839  27.611  53.187  1.00  0.00    -0.351 N 
HETATM   13  H   UNL     1       3.970  26.674  52.808  1.00  0.00     0.163 HD
HETATM   14  O   UNL     1       4.726  29.152  54.619  1.00  0.00    -0.266 OA
BRANCH  12  15
HETATM   15  C   UNL     1       3.019  28.540  52.456  1.00  0.00     0.161 C 
BRANCH  15  16
HETATM   16  C   UNL     1       3.632  28.928  51.136  1.00  0.00    -0.038 A 
HETATM   17  C   UNL     1       3.101  28.436  49.937  1.00  0.00     0.009 A 
HETATM   18  C   UNL     1       3.670  28.789  48.715  1.00  0.00     0.003 A 
HETATM   19  C   UNL     1       4.772  29.645  48.673  1.00  0.00     0.037 A 
HETATM   20  C   UNL     1       5.306  30.158  49.856  1.00  0.00     0.068 A 
HETATM   21  C   UNL     1       4.728  29.801  51.080  1.00  0.00     0.045 A 
BRANCH  20  22
HETATM   22  O   UNL     1       6.376  31.005  49.951  1.00  0.00    -0.356 OA
HETATM   23  C   UNL     1       6.272  32.247  49.266  1.00  0.00     0.210 C 
ENDBRANCH  20  22
ENDBRANCH  15  16
ENDBRANCH  12  15
ENDBRANCH   1  11
BRANCH  10  24
HETATM   24  C   UNL     1       6.298  27.843  57.079  1.00  0.00     0.313 C 
BRANCH  24  25
HETATM   25  N   UNL     1       7.680  28.362  57.145  1.00  0.00     0.084 N 
HETATM   26  C   UNL     1       8.019  29.121  55.933  1.00  0.00     0.309 C 
HETATM   27  C   UNL     1       7.811  29.240  58.315  1.00  0.00     0.309 C 
ENDBRANCH  24  25
ENDBRANCH  10  24
BRANCH   6  28
HETATM   28  C   UNL     1       8.237  21.601  55.053  1.00  0.00     0.010 A 
HETATM   29  C   UNL     1       8.280  20.883  53.835  1.00  0.00     0.152 A 
HETATM   30  N   UNL     1       8.797  19.659  53.971  1.00  0.00    -0.187 NA
HETATM   31  N   UNL     1       9.087  19.587  55.279  1.00  0.00    -0.289 N 
HETATM   32  H   UNL     1       9.497  18.730  55.635  1.00  0.00     0.188 HD
HETATM   33  C   UNL     1       8.771  20.721  55.971  1.00  0.00     0.123 A 
ENDBRANCH   6  28
TORSDOF 7
ENDMDL
MODEL 5
REMARK VINA RESULT:      -8.6      2.764      8.150
REMARK  7 active torsions:
REMARK  status: ('A' for Active; 'I' for Inactive)
REMARK    1  A    between atoms: O_2  and  C_3 
REMARK    2  A    between atoms: C_7  and  C_8 
REMARK    3  A    between atoms: C_8  and  N_9 
REMARK       I    between atoms: N_9  and  C_10 
REMARK    4  A    between atoms: C_10  and  C_12 
REMARK    5  A    between atoms: C_17  and  C_26 
REMARK    6  A    between atoms: C_21  and  C_22 
REMARK    7  A    between atoms: C_22  and  N_23 
ROOT
HETATM    1  C   UNL     1       6.055  26.807  54.496  1.00  0.00     0.110 A 
HETATM    2  N   UNL     1       6.830  26.989  55.620  1.00  0.00    -0.351 N 
HETATM    3  H   UNL     1       7.455  26.281  55.981  1.00  0.00     0.166 HD
HETATM    4  C   UNL     1       6.623  28.225  56.175  1.00  0.00     0.044 A 
HETATM    5  C   UNL     1       7.180  28.802  57.325  1.00  0.00     0.042 A 
HETATM    6  C   UNL     1       6.799  30.110  57.667  1.00  0.00    -0.021 A 
HETATM    7  C   UNL     1       5.884  30.794  56.859  1.00  0.00     0.013 A 
HETATM    8  C   UNL     1       5.339  30.201  55.709  1.00  0.00     0.015 A 
HETATM    9  C   UNL     1       5.710  28.887  55.360  1.00  0.00     0.001 A 
HETATM   10  C   UNL     1       5.358  27.997  54.285  1.00  0.00     0.015 A 
ENDROOT
BRANCH   1  11
HETATM   11  C   UNL     1       6.109  25.555  53.770  1.00  0.00     0.269 C 
HETATM   12  N   UNL     1       7.359  25.162  53.375  1.00  0.00    -0.351 N 
HETATM   13  H   UNL     1       8.120  25.830  53.492  1.00  0.00     0.163 HD
HETATM   14  O   UNL     1       5.091  24.922  53.497  1.00  0.00    -0.266 OA
BRANCH  12  15
HETATM   15  C   UNL     1       7.591  23.988  52.576  1.00  0.00     0.161 C 
BRANCH  15  16
HETATM   16  C   UNL     1       7.841  22.764  53.417  1.00  0.00    -0.038 A 
HETATM   17  C   UNL     1       7.896  21.497  52.823  1.00  0.00     0.009 A 
HETATM   18  C   UNL     1       8.123  20.362  53.599  1.00  0.00     0.003 A 
HETATM   19  C   UNL     1       8.305  20.478  54.978  1.00  0.00     0.037 A 
HETATM   20  C   UNL     1       8.269  21.733  55.586  1.00  0.00     0.068 A 
HETATM   21  C   UNL     1       8.044  22.869  54.801  1.00  0.00     0.045 A 
BRANCH  20  22
HETATM   22  O   UNL     1       8.437  21.983  56.921  1.00  0.00    -0.356 OA
HETATM   23  C   UNL     1       8.469  23.348  57.318  1.00  0.00     0.210 C 
ENDBRANCH  20  22
ENDBRANCH  15  16
ENDBRANCH  12  15
ENDBRANCH   1  11
BRANCH  10  24
HETATM   24  C   UNL     1       4.455  28.344  53.135  1.00  0.00     0.313 C 
BRANCH  24  25
HETATM   25  N   UNL     1       5.239  28.801  51.969  1.00  0.00     0.084 N 
HETATM   26  C   UNL     1       5.219  27.801  50.892  1.00  0.00     0.309 C 
HETATM   27  C   UNL     1       4.670  30.060  51.469  1.00  0.00     0.309 C 
ENDBRANCH  24  25
ENDBRANCH  10  24
BRANCH   6  28
HETATM   28  C   UNL     1       7.338  30.754  58.854  1.00  0.00     0.010 A 
HETATM   29  C   UNL     1       8.414  30.389  59.696  1.00  0.00     0.152 A 
HETATM   30  N   UNL     1       8.592  31.240  60.710  1.00  0.00    -0.187 NA
HETATM   31  N   UNL     1       7.628  32.155  60.523  1.00  0.00    -0.289 N 
HETATM   32  H   UNL     1       7.556  32.920  61.185  1.00  0.00     0.188 HD
HETATM   33  C   UNL     1       6.850  31.910  59.428  1.00  0.00     0.123 A 
ENDBRANCH   6  28
TORSDOF 7
ENDMDL
MODEL 6
REMARK VINA RESULT:      -8.4      3.967      7.971
REMARK  7 active torsions:
REMARK  status: ('A' for Active; 'I' for Inactive)
REMARK    1  A    between atoms: O_2  and  C_3 
REMARK    2  A    between atoms: C_7  and  C_8 
REMARK    3  A    between atoms: C_8  and  N_9 
REMARK       I    between atoms: N_9  and  C_10 
REMARK    4  A    between atoms: C_10  and  C_12 
REMARK    5  A    between atoms: C_17  and  C_26 
REMARK    6  A    between atoms: C_21  and  C_22 
REMARK    7  A    between atoms: C_22  and  N_23 
ROOT
HETATM    1  C   UNL     1       5.974  26.735  51.571  1.00  0.00     0.110 A 
HETATM    2  N   UNL     1       6.499  25.473  51.402  1.00  0.00    -0.351 N 
HETATM    3  H   UNL     1       6.649  25.054  50.493  1.00  0.00     0.166 HD
HETATM    4  C   UNL     1       6.763  24.875  52.606  1.00  0.00     0.044 A 
HETATM    5  C   UNL     1       7.272  23.599  52.887  1.00  0.00     0.042 A 
HETATM    6  C   UNL     1       7.460  23.237  54.231  1.00  0.00    -0.021 A 
HETATM    7  C   UNL     1       7.140  24.150  55.242  1.00  0.00     0.013 A 
HETATM    8  C   UNL     1       6.635  25.425  54.940  1.00  0.00     0.015 A 
HETATM    9  C   UNL     1       6.435  25.797  53.596  1.00  0.00     0.001 A 
HETATM   10  C   UNL     1       5.950  26.983  52.944  1.00  0.00     0.015 A 
ENDROOT
BRANCH   1  11
HETATM   11  C   UNL     1       5.605  27.532  50.420  1.00  0.00     0.269 C 
HETATM   12  N   UNL     1       5.379  26.825  49.269  1.00  0.00    -0.351 N 
HETATM   13  H   UNL     1       5.621  25.835  49.271  1.00  0.00     0.163 HD
HETATM   14  O   UNL     1       5.544  28.758  50.475  1.00  0.00    -0.266 OA
BRANCH  12  15
HETATM   15  C   UNL     1       5.082  27.458  48.012  1.00  0.00     0.161 C 
BRANCH  15  16
HETATM   16  C   UNL     1       3.601  27.551  47.754  1.00  0.00    -0.038 A 
HETATM   17  C   UNL     1       2.901  26.449  47.247  1.00  0.00     0.009 A 
HETATM   18  C   UNL     1       1.531  26.533  47.003  1.00  0.00     0.003 A 
HETATM   19  C   UNL     1       0.840  27.717  47.270  1.00  0.00     0.037 A 
HETATM   20  C   UNL     1       1.518  28.820  47.790  1.00  0.00     0.068 A 
HETATM   21  C   UNL     1       2.893  28.728  48.035  1.00  0.00     0.045 A 
BRANCH  20  22
HETATM   22  O   UNL     1       0.960  30.031  48.099  1.00  0.00    -0.356 OA
HETATM   23  C   UNL     1      -0.095  30.483  47.259  1.00  0.00     0.210 C 
ENDBRANCH  20  22
ENDBRANCH  15  16
ENDBRANCH  12  15
ENDBRANCH   1  11
BRANCH  10  24
HETATM   24  C   UNL     1       5.557  28.255  53.642  1.00  0.00     0.313 C 
BRANCH  24  25
HETATM   25  N   UNL     1       4.162  28.182  54.125  1.00  0.00     0.084 N 
HETATM   26  C   UNL     1       4.034  28.771  55.465  1.00  0.00     0.309 C 
HETATM   27  C   UNL     1       3.290  28.910  53.193  1.00  0.00     0.309 C 
ENDBRANCH  24  25
ENDBRANCH  10  24
BRANCH   6  28
HETATM   28  C   UNL     1       7.975  21.923  54.581  1.00  0.00     0.010 A 
HETATM   29  C   UNL     1       8.331  21.373  55.835  1.00  0.00     0.152 A 
HETATM   30  N   UNL     1       8.787  20.121  55.743  1.00  0.00    -0.187 NA
HETATM   31  N   UNL     1       8.727  19.863  54.428  1.00  0.00    -0.289 N 
HETATM   32  H   UNL     1       9.033  18.952  54.102  1.00  0.00     0.188 HD
HETATM   33  C   UNL     1       8.250  20.907  53.689  1.00  0.00     0.123 A 
ENDBRANCH   6  28
TORSDOF 7
ENDMDL
MODEL 7
REMARK VINA RESULT:      -8.3      2.262      4.055
REMARK  7 active torsions:
REMARK  status: ('A' for Active; 'I' for Inactive)
REMARK    1  A    between atoms: O_2  and  C_3 
REMARK    2  A    between atoms: C_7  and  C_8 
REMARK    3  A    between atoms: C_8  and  N_9 
REMARK       I    between atoms: N_9  and  C_10 
REMARK    4  A    between atoms: C_10  and  C_12 
REMARK    5  A    between atoms: C_17  and  C_26 
REMARK    6  A    between atoms: C_21  and  C_22 
REMARK    7  A    between atoms: C_22  and  N_23 
ROOT
HETATM    1  C   UNL     1       5.738  27.476  55.636  1.00  0.00     0.110 A 
HETATM    2  N   UNL     1       5.681  26.452  54.716  1.00  0.00    -0.351 N 
HETATM    3  H   UNL     1       5.064  26.462  53.915  1.00  0.00     0.166 HD
HETATM    4  C   UNL     1       6.542  25.438  55.044  1.00  0.00     0.044 A 
HETATM    5  C   UNL     1       6.778  24.213  54.403  1.00  0.00     0.042 A 
HETATM    6  C   UNL     1       7.739  23.347  54.952  1.00  0.00    -0.021 A 
HETATM    7  C   UNL     1       8.427  23.727  56.109  1.00  0.00     0.013 A 
HETATM    8  C   UNL     1       8.179  24.959  56.734  1.00  0.00     0.015 A 
HETATM    9  C   UNL     1       7.213  25.833  56.197  1.00  0.00     0.001 A 
HETATM   10  C   UNL     1       6.718  27.132  56.567  1.00  0.00     0.015 A 
ENDROOT
BRANCH   1  11
HETATM   11  C   UNL     1       4.888  28.639  55.485  1.00  0.00     0.269 C 
HETATM   12  N   UNL     1       4.072  28.909  56.550  1.00  0.00    -0.351 N 
HETATM   13  H   UNL     1       4.019  28.209  57.289  1.00  0.00     0.163 HD
HETATM   14  O   UNL     1       4.881  29.304  54.451  1.00  0.00    -0.266 OA
BRANCH  12  15
HETATM   15  C   UNL     1       3.107  29.975  56.542  1.00  0.00     0.161 C 
BRANCH  15  16
HETATM   16  C   UNL     1       3.652  31.244  57.144  1.00  0.00    -0.038 A 
HETATM   17  C   UNL     1       3.435  32.476  56.514  1.00  0.00     0.009 A 
HETATM   18  C   UNL     1       3.942  33.651  57.066  1.00  0.00     0.003 A 
HETATM   19  C   UNL     1       4.666  33.612  58.259  1.00  0.00     0.037 A 
HETATM   20  C   UNL     1       4.879  32.396  58.910  1.00  0.00     0.068 A 
HETATM   21  C   UNL     1       4.365  31.220  58.351  1.00  0.00     0.045 A 
BRANCH  20  22
HETATM   22  O   UNL     1       5.564  32.223  60.081  1.00  0.00    -0.356 OA
HETATM   23  C   UNL     1       5.449  33.258  61.049  1.00  0.00     0.210 C 
ENDBRANCH  20  22
ENDBRANCH  15  16
ENDBRANCH  12  15
ENDBRANCH   1  11
BRANCH  10  24
HETATM   24  C   UNL     1       7.229  27.959  57.713  1.00  0.00     0.313 C 
BRANCH  24  25
HETATM   25  N   UNL     1       8.001  29.119  57.222  1.00  0.00     0.084 N 
HETATM   26  C   UNL     1       7.949  30.233  58.179  1.00  0.00     0.309 C 
HETATM   27  C   UNL     1       9.401  28.719  57.024  1.00  0.00     0.309 C 
ENDBRANCH  24  25
ENDBRANCH  10  24
BRANCH   6  28
HETATM   28  C   UNL     1       8.018  22.060  54.334  1.00  0.00     0.010 A 
HETATM   29  C   UNL     1       8.531  20.863  54.885  1.00  0.00     0.152 A 
HETATM   30  N   UNL     1       8.662  19.889  53.980  1.00  0.00    -0.187 NA
HETATM   31  N   UNL     1       8.234  20.460  52.843  1.00  0.00    -0.289 N 
HETATM   32  H   UNL     1       8.242  19.906  51.994  1.00  0.00     0.188 HD
HETATM   33  C   UNL     1       7.838  21.757  53.001  1.00  0.00     0.123 A 
ENDBRANCH   6  28
TORSDOF 7
ENDMDL
MODEL 8
REMARK VINA RESULT:      -8.2      2.808      4.287
REMARK  7 active torsions:
REMARK  status: ('A' for Active; 'I' for Inactive)
REMARK    1  A    between atoms: O_2  and  C_3 
REMARK    2  A    between atoms: C_7  and  C_8 
REMARK    3  A    between atoms: C_8  and  N_9 
REMARK       I    between atoms: N_9  and  C_10 
REMARK    4  A    between atoms: C_10  and  C_12 
REMARK    5  A    between atoms: C_17  and  C_26 
REMARK    6  A    between atoms: C_21  and  C_22 
REMARK    7  A    between atoms: C_22  and  N_23 
ROOT
HETATM    1  C   UNL     1       5.781  27.250  54.814  1.00  0.00     0.110 A 
HETATM    2  N   UNL     1       6.097  26.099  55.502  1.00  0.00    -0.351 N 
HETATM    3  H   UNL     1       5.923  25.981  56.492  1.00  0.00     0.166 HD
HETATM    4  C   UNL     1       6.683  25.171  54.682  1.00  0.00     0.044 A 
HETATM    5  C   UNL     1       7.176  23.891  54.975  1.00  0.00     0.042 A 
HETATM    6  C   UNL     1       7.724  23.132  53.929  1.00  0.00    -0.021 A 
HETATM    7  C   UNL     1       7.761  23.665  52.636  1.00  0.00     0.013 A 
HETATM    8  C   UNL     1       7.259  24.947  52.361  1.00  0.00     0.015 A 
HETATM    9  C   UNL     1       6.713  25.722  53.405  1.00  0.00     0.001 A 
HETATM   10  C   UNL     1       6.128  27.033  53.480  1.00  0.00     0.015 A 
ENDROOT
BRANCH   1  11
HETATM   11  C   UNL     1       5.171  28.367  55.504  1.00  0.00     0.269 C 
HETATM   12  N   UNL     1       5.756  29.584  55.278  1.00  0.00    -0.351 N 
HETATM   13  H   UNL     1       6.640  29.592  54.771  1.00  0.00     0.163 HD
HETATM   14  O   UNL     1       4.221  28.213  56.269  1.00  0.00    -0.266 OA
BRANCH  12  15
HETATM   15  C   UNL     1       5.333  30.788  55.942  1.00  0.00     0.161 C 
BRANCH  15  16
HETATM   16  C   UNL     1       4.185  31.458  55.232  1.00  0.00    -0.038 A 
HETATM   17  C   UNL     1       3.130  32.016  55.964  1.00  0.00     0.009 A 
HETATM   18  C   UNL     1       2.065  32.634  55.310  1.00  0.00     0.003 A 
HETATM   19  C   UNL     1       2.043  32.708  53.916  1.00  0.00     0.037 A 
HETATM   20  C   UNL     1       3.093  32.171  53.170  1.00  0.00     0.068 A 
HETATM   21  C   UNL     1       4.161  31.555  53.833  1.00  0.00     0.045 A 
BRANCH  20  22
HETATM   22  O   UNL     1       3.196  32.183  51.806  1.00  0.00    -0.356 OA
HETATM   23  C   UNL     1       1.985  32.325  51.074  1.00  0.00     0.210 C 
ENDBRANCH  20  22
ENDBRANCH  15  16
ENDBRANCH  12  15
ENDBRANCH   1  11
BRANCH  10  24
HETATM   24  C   UNL     1       5.894  27.946  52.309  1.00  0.00     0.313 C 
BRANCH  24  25
HETATM   25  N   UNL     1       4.667  27.563  51.580  1.00  0.00     0.084 N 
HETATM   26  C   UNL     1       3.692  28.662  51.571  1.00  0.00     0.309 C 
HETATM   27  C   UNL     1       5.017  27.217  50.196  1.00  0.00     0.309 C 
ENDBRANCH  24  25
ENDBRANCH  10  24
BRANCH   6  28
HETATM   28  C   UNL     1       8.259  21.802  54.178  1.00  0.00     0.010 A 
HETATM   29  C   UNL     1       8.380  20.680  53.325  1.00  0.00     0.152 A 
HETATM   30  N   UNL     1       8.916  19.619  53.935  1.00  0.00    -0.187 NA
HETATM   31  N   UNL     1       9.140  20.058  55.184  1.00  0.00    -0.289 N 
HETATM   32  H   UNL     1       9.548  19.415  55.853  1.00  0.00     0.188 HD
HETATM   33  C   UNL     1       8.764  21.355  55.381  1.00  0.00     0.123 A 
ENDBRANCH   6  28
TORSDOF 7
ENDMDL
MODEL 9
REMARK VINA RESULT:      -8.0      2.268      5.436
REMARK  7 active torsions:
REMARK  status: ('A' for Active; 'I' for Inactive)
REMARK    1  A    between atoms: O_2  and  C_3 
REMARK    2  A    between atoms: C_7  and  C_8 
REMARK    3  A    between atoms: C_8  and  N_9 
REMARK       I    between atoms: N_9  and  C_10 
REMARK    4  A    between atoms: C_10  and  C_12 
REMARK    5  A    between atoms: C_17  and  C_26 
REMARK    6  A    between atoms: C_21  and  C_22 
REMARK    7  A    between atoms: C_22  and  N_23 
ROOT
HETATM    1  C   UNL     1       7.250  26.955  55.574  1.00  0.00     0.110 A 
HETATM    2  N   UNL     1       7.105  27.731  54.445  1.00  0.00    -0.351 N 
HETATM    3  H   UNL     1       7.455  28.676  54.375  1.00  0.00     0.166 HD
HETATM    4  C   UNL     1       6.418  27.063  53.465  1.00  0.00     0.044 A 
HETATM    5  C   UNL     1       6.032  27.487  52.185  1.00  0.00     0.042 A 
HETATM    6  C   UNL     1       5.337  26.585  51.364  1.00  0.00    -0.021 A 
HETATM    7  C   UNL     1       5.052  25.300  51.840  1.00  0.00     0.013 A 
HETATM    8  C   UNL     1       5.448  24.893  53.123  1.00  0.00     0.015 A 
HETATM    9  C   UNL     1       6.141  25.792  53.958  1.00  0.00     0.001 A 
HETATM   10  C   UNL     1       6.681  25.713  55.289  1.00  0.00     0.015 A 
ENDROOT
BRANCH   1  11
HETATM   11  C   UNL     1       7.931  27.483  56.738  1.00  0.00     0.269 C 
HETATM   12  N   UNL     1       8.537  28.697  56.559  1.00  0.00    -0.351 N 
HETATM   13  H   UNL     1       8.587  29.062  55.608  1.00  0.00     0.163 HD
HETATM   14  O   UNL     1       7.987  26.856  57.793  1.00  0.00    -0.266 OA
BRANCH  12  15
HETATM   15  C   UNL     1       9.325  29.333  57.581  1.00  0.00     0.161 C 
BRANCH  15  16
HETATM   16  C   UNL     1       8.531  30.341  58.371  1.00  0.00    -0.038 A 
HETATM   17  C   UNL     1       9.099  30.974  59.483  1.00  0.00     0.009 A 
HETATM   18  C   UNL     1       8.366  31.904  60.218  1.00  0.00     0.003 A 
HETATM   19  C   UNL     1       7.058  32.220  59.847  1.00  0.00     0.037 A 
HETATM   20  C   UNL     1       6.480  31.611  58.732  1.00  0.00     0.068 A 
HETATM   21  C   UNL     1       7.223  30.680  57.997  1.00  0.00     0.045 A 
BRANCH  20  22
HETATM   22  O   UNL     1       5.215  31.835  58.262  1.00  0.00    -0.356 OA
HETATM   23  C   UNL     1       4.464  30.692  57.873  1.00  0.00     0.210 C 
ENDBRANCH  20  22
ENDBRANCH  15  16
ENDBRANCH  12  15
ENDBRANCH   1  11
BRANCH  10  24
HETATM   24  C   UNL     1       6.669  24.486  56.157  1.00  0.00     0.313 C 
BRANCH  24  25
HETATM   25  N   UNL     1       7.899  23.691  55.960  1.00  0.00     0.084 N 
HETATM   26  C   UNL     1       8.570  23.427  57.242  1.00  0.00     0.309 C 
HETATM   27  C   UNL     1       7.550  22.411  55.328  1.00  0.00     0.309 C 
ENDBRANCH  24  25
ENDBRANCH  10  24
BRANCH   6  28
HETATM   28  C   UNL     1       4.904  26.974  50.031  1.00  0.00     0.010 A 
HETATM   29  C   UNL     1       5.078  28.184  49.320  1.00  0.00     0.152 A 
HETATM   30  N   UNL     1       4.513  28.161  48.109  1.00  0.00    -0.187 NA
HETATM   31  N   UNL     1       3.973  26.934  48.041  1.00  0.00    -0.289 N 
HETATM   32  H   UNL     1       3.474  26.675  47.197  1.00  0.00     0.188 HD
HETATM   33  C   UNL     1       4.178  26.185  49.164  1.00  0.00     0.123 A 
ENDBRANCH   6  28
TORSDOF 7
ENDMDL
MODEL 10
REMARK VINA RESULT:      -7.9      4.989      9.615
REMARK  7 active torsions:
REMARK  status: ('A' for Active; 'I' for Inactive)
REMARK    1  A    between atoms: O_2  and  C_3 
REMARK    2  A    between atoms: C_7  and  C_8 
REMARK    3  A    between atoms: C_8  and  N_9 
REMARK       I    between atoms: N_9  and  C_10 
REMARK    4  A    between atoms: C_10  and  C_12 
REMARK    5  A    between atoms: C_17  and  C_26 
REMARK    6  A    between atoms: C_21  and  C_22 
REMARK    7  A    between atoms: C_22  and  N_23 
ROOT
HETATM    1  C   UNL     1       4.556  26.753  49.795  1.00  0.00     0.110 A 
HETATM    2  N   UNL     1       4.751  25.687  50.645  1.00  0.00    -0.351 N 
HETATM    3  H   UNL     1       4.458  24.745  50.425  1.00  0.00     0.166 HD
HETATM    4  C   UNL     1       5.364  26.079  51.806  1.00  0.00     0.044 A 
HETATM    5  C   UNL     1       5.720  25.329  52.936  1.00  0.00     0.042 A 
HETATM    6  C   UNL     1       6.359  25.987  54.000  1.00  0.00    -0.021 A 
HETATM    7  C   UNL     1       6.622  27.358  53.903  1.00  0.00     0.013 A 
HETATM    8  C   UNL     1       6.261  28.091  52.762  1.00  0.00     0.015 A 
HETATM    9  C   UNL     1       5.614  27.444  51.691  1.00  0.00     0.001 A 
HETATM   10  C   UNL     1       5.117  27.872  50.411  1.00  0.00     0.015 A 
ENDROOT
BRANCH   1  11
HETATM   11  C   UNL     1       3.903  26.557  48.518  1.00  0.00     0.269 C 
HETATM   12  N   UNL     1       2.536  26.630  48.543  1.00  0.00    -0.351 N 
HETATM   13  H   UNL     1       2.085  26.672  49.456  1.00  0.00     0.163 HD
HETATM   14  O   UNL     1       4.540  26.301  47.498  1.00  0.00    -0.266 OA
BRANCH  12  15
HETATM   15  C   UNL     1       1.720  26.381  47.384  1.00  0.00     0.161 C 
BRANCH  15  16
HETATM   16  C   UNL     1       0.929  27.594  46.971  1.00  0.00    -0.038 A 
HETATM   17  C   UNL     1       1.155  28.831  47.589  1.00  0.00     0.009 A 
HETATM   18  C   UNL     1       0.421  29.954  47.213  1.00  0.00     0.003 A 
HETATM   19  C   UNL     1      -0.543  29.860  46.208  1.00  0.00     0.037 A 
HETATM   20  C   UNL     1      -0.772  28.640  45.569  1.00  0.00     0.068 A 
HETATM   21  C   UNL     1      -0.030  27.516  45.950  1.00  0.00     0.045 A 
BRANCH  20  22
HETATM   22  O   UNL     1      -1.680  28.416  44.570  1.00  0.00    -0.356 OA
HETATM   23  C   UNL     1      -1.367  28.948  43.289  1.00  0.00     0.210 C 
ENDBRANCH  20  22
ENDBRANCH  15  16
ENDBRANCH  12  15
ENDBRANCH   1  11
BRANCH  10  24
HETATM   24  C   UNL     1       5.252  29.261  49.851  1.00  0.00     0.313 C 
BRANCH  24  25
HETATM   25  N   UNL     1       3.938  29.933  49.790  1.00  0.00     0.084 N 
HETATM   26  C   UNL     1       3.587  30.530  51.086  1.00  0.00     0.309 C 
HETATM   27  C   UNL     1       3.983  30.989  48.770  1.00  0.00     0.309 C 
ENDBRANCH  24  25
ENDBRANCH  10  24
BRANCH   6  28
HETATM   28  C   UNL     1       6.742  25.260  55.200  1.00  0.00     0.010 A 
HETATM   29  C   UNL     1       7.351  23.994  55.359  1.00  0.00     0.152 A 
HETATM   30  N   UNL     1       7.529  23.660  56.640  1.00  0.00    -0.187 NA
HETATM   31  N   UNL     1       7.032  24.713  57.308  1.00  0.00    -0.289 N 
HETATM   32  H   UNL     1       7.052  24.692  58.322  1.00  0.00     0.188 HD
HETATM   33  C   UNL     1       6.548  25.696  56.494  1.00  0.00     0.123 A 
ENDBRANCH   6  28
TORSDOF 7
ENDMDL
