MODEL 1
REMARK VINA RESULT:      -9.8      0.000      0.000
REMARK  6 active torsions:
REMARK  status: ('A' for Active; 'I' for Inactive)
REMARK    1  A    between atoms: O_2  and  C_3 
REMARK    2  A    between atoms: C_5  and  C_6 
REMARK    3  A    between atoms: C_12  and  C_13 
REMARK       I    between atoms: C_13  and  N_14 
REMARK    4  A    between atoms: N_14  and  C_15 
REMARK    5  A    between atoms: C_15  and  C_16 
REMARK    6  A    between atoms: C_23  and  C_24 
ROOT
HETATM    1  C   UNL     1       7.321  27.877  57.458  1.00  0.00     0.118 C 
HETATM    2  N   UNL     1       7.321  27.018  56.261  1.00  0.00    -0.365 N 
HETATM    3  C   UNL     1       6.740  27.461  55.109  1.00  0.00     0.138 A 
HETATM    4  N   UNL     1       5.932  28.577  55.111  1.00  0.00    -0.240 N 
HETATM    5  N   UNL     1       5.471  28.911  53.899  1.00  0.00    -0.181 NA
HETATM    6  C   UNL     1       5.952  27.948  53.110  1.00  0.00     0.160 A 
HETATM    7  C   UNL     1       6.767  27.016  53.800  1.00  0.00     0.096 A 
HETATM    8  C   UNL     1       5.623  29.363  56.292  1.00  0.00     0.221 C 
HETATM    9  C   UNL     1       5.940  28.545  57.560  1.00  0.00     0.066 C 
HETATM   10  H   UNL     1       7.290  26.018  56.471  1.00  0.00     0.161 HD
ENDROOT
BRANCH   7  11
HETATM   11  C   UNL     1       7.487  25.913  53.190  1.00  0.00     0.257 C 
HETATM   12  N   UNL     1       7.037  24.659  53.530  1.00  0.00    -0.352 N 
HETATM   13  H   UNL     1       6.361  24.604  54.280  1.00  0.00     0.163 HD
HETATM   14  O   UNL     1       8.457  26.098  52.462  1.00  0.00    -0.267 OA
BRANCH  12  15
HETATM   15  C   UNL     1       7.794  23.481  53.189  1.00  0.00     0.161 C 
BRANCH  15  16
HETATM   16  C   UNL     1       7.981  22.584  54.383  1.00  0.00    -0.041 A 
HETATM   17  C   UNL     1       7.914  21.191  54.233  1.00  0.00     0.009 A 
HETATM   18  C   UNL     1       8.104  20.349  55.330  1.00  0.00     0.001 A 
HETATM   19  C   UNL     1       8.351  20.891  56.589  1.00  0.00     0.000 A 
HETATM   20  C   UNL     1       8.405  22.274  56.754  1.00  0.00     0.001 A 
HETATM   21  C   UNL     1       8.220  23.118  55.657  1.00  0.00     0.009 A 
ENDBRANCH  15  16
ENDBRANCH  12  15
ENDBRANCH   7  11
BRANCH   1  22
HETATM   22  C   UNL     1       8.504  28.847  57.457  1.00  0.00    -0.033 A 
HETATM   23  C   UNL     1       8.469  30.049  58.195  1.00  0.00     0.046 A 
HETATM   24  C   UNL     1       9.545  30.941  58.194  1.00  0.00     0.068 A 
HETATM   25  C   UNL     1      10.671  30.649  57.426  1.00  0.00     0.037 A 
HETATM   26  C   UNL     1      10.720  29.485  56.663  1.00  0.00     0.003 A 
HETATM   27  C   UNL     1       9.641  28.597  56.670  1.00  0.00     0.009 A 
BRANCH  24  28
HETATM   28  O   UNL     1       9.611  32.120  58.884  1.00  0.00    -0.356 OA
HETATM   29  C   UNL     1       9.494  32.046  60.299  1.00  0.00     0.210 C 
ENDBRANCH  24  28
ENDBRANCH   1  22
BRANCH   8  30
HETATM   30  C   UNL     1       4.173  29.800  56.330  1.00  0.00     0.409 C 
HETATM   31  F   UNL     1       3.321  28.791  56.040  1.00  0.00    -0.169 F 
HETATM   32  F   UNL     1       3.861  30.212  57.592  1.00  0.00    -0.169 F 
HETATM   33  F   UNL     1       3.896  30.842  55.521  1.00  0.00    -0.169 F 
ENDBRANCH   8  30
TORSDOF 6
ENDMDL
MODEL 2
REMARK VINA RESULT:      -9.5      2.265      7.608
REMARK  6 active torsions:
REMARK  status: ('A' for Active; 'I' for Inactive)
REMARK    1  A    between atoms: O_2  and  C_3 
REMARK    2  A    between atoms: C_5  and  C_6 
REMARK    3  A    between atoms: C_12  and  C_13 
REMARK       I    between atoms: C_13  and  N_14 
REMARK    4  A    between atoms: N_14  and  C_15 
REMARK    5  A    between atoms: C_15  and  C_16 
REMARK    6  A    between atoms: C_23  and  C_24 
ROOT
HETATM    1  C   UNL     1       7.600  27.535  53.499  1.00  0.00     0.118 C 
HETATM    2  N   UNL     1       7.806  28.139  54.828  1.00  0.00    -0.365 N 
HETATM    3  C   UNL     1       6.736  28.358  55.644  1.00  0.00     0.138 A 
HETATM    4  N   UNL     1       5.449  28.270  55.160  1.00  0.00    -0.240 N 
HETATM    5  N   UNL     1       4.507  28.470  56.091  1.00  0.00    -0.181 NA
HETATM    6  C   UNL     1       5.214  28.750  57.189  1.00  0.00     0.160 A 
HETATM    7  C   UNL     1       6.614  28.683  56.983  1.00  0.00     0.096 A 
HETATM    8  C   UNL     1       5.111  27.952  53.784  1.00  0.00     0.221 C 
HETATM    9  C   UNL     1       6.342  28.169  52.882  1.00  0.00     0.066 C 
HETATM   10  H   UNL     1       8.593  28.789  54.868  1.00  0.00     0.161 HD
ENDROOT
BRANCH   7  11
HETATM   11  C   UNL     1       7.625  28.859  58.009  1.00  0.00     0.257 C 
HETATM   12  N   UNL     1       7.464  29.967  58.808  1.00  0.00    -0.352 N 
HETATM   13  H   UNL     1       6.764  30.638  58.523  1.00  0.00     0.163 HD
HETATM   14  O   UNL     1       8.578  28.093  58.117  1.00  0.00    -0.267 OA
BRANCH  12  15
HETATM   15  C   UNL     1       8.508  30.392  59.707  1.00  0.00     0.161 C 
BRANCH  15  16
HETATM   16  C   UNL     1       7.985  31.347  60.745  1.00  0.00    -0.041 A 
HETATM   17  C   UNL     1       6.889  32.172  60.454  1.00  0.00     0.009 A 
HETATM   18  C   UNL     1       6.384  33.048  61.416  1.00  0.00     0.001 A 
HETATM   19  C   UNL     1       6.975  33.116  62.675  1.00  0.00     0.000 A 
HETATM   20  C   UNL     1       8.074  32.311  62.972  1.00  0.00     0.001 A 
HETATM   21  C   UNL     1       8.578  31.431  62.013  1.00  0.00     0.009 A 
ENDBRANCH  15  16
ENDBRANCH  12  15
ENDBRANCH   7  11
BRANCH   1  22
HETATM   22  C   UNL     1       7.581  26.007  53.570  1.00  0.00    -0.033 A 
HETATM   23  C   UNL     1       7.538  25.328  54.806  1.00  0.00     0.046 A 
HETATM   24  C   UNL     1       7.526  23.933  54.876  1.00  0.00     0.068 A 
HETATM   25  C   UNL     1       7.581  23.192  53.697  1.00  0.00     0.037 A 
HETATM   26  C   UNL     1       7.654  23.835  52.464  1.00  0.00     0.003 A 
HETATM   27  C   UNL     1       7.666  25.230  52.401  1.00  0.00     0.009 A 
BRANCH  24  28
HETATM   28  O   UNL     1       7.474  23.187  56.021  1.00  0.00    -0.356 OA
HETATM   29  C   UNL     1       7.960  21.853  55.944  1.00  0.00     0.210 C 
ENDBRANCH  24  28
ENDBRANCH   1  22
BRANCH   8  30
HETATM   30  C   UNL     1       3.960  28.788  53.266  1.00  0.00     0.409 C 
HETATM   31  F   UNL     1       3.801  29.937  53.959  1.00  0.00    -0.169 F 
HETATM   32  F   UNL     1       4.214  29.152  51.977  1.00  0.00    -0.169 F 
HETATM   33  F   UNL     1       2.780  28.136  53.240  1.00  0.00    -0.169 F 
ENDBRANCH   8  30
TORSDOF 6
ENDMDL
MODEL 3
REMARK VINA RESULT:      -9.3      1.600      2.244
REMARK  6 active torsions:
REMARK  status: ('A' for Active; 'I' for Inactive)
REMARK    1  A    between atoms: O_2  and  C_3 
REMARK    2  A    between atoms: C_5  and  C_6 
REMARK    3  A    between atoms: C_12  and  C_13 
REMARK       I    between atoms: C_13  and  N_14 
REMARK    4  A    between atoms: N_14  and  C_15 
REMARK    5  A    between atoms: C_15  and  C_16 
REMARK    6  A    between atoms: C_23  and  C_24 
ROOT
HETATM    1  C   UNL     1       4.895  27.956  56.363  1.00  0.00     0.118 C 
HETATM    2  N   UNL     1       5.010  27.017  55.233  1.00  0.00    -0.365 N 
HETATM    3  C   UNL     1       5.165  27.497  53.966  1.00  0.00     0.138 A 
HETATM    4  N   UNL     1       4.958  28.830  53.688  1.00  0.00    -0.240 N 
HETATM    5  N   UNL     1       5.189  29.157  52.409  1.00  0.00    -0.181 NA
HETATM    6  C   UNL     1       5.498  27.987  51.844  1.00  0.00     0.160 A 
HETATM    7  C   UNL     1       5.516  26.910  52.764  1.00  0.00     0.096 A 
HETATM    8  C   UNL     1       4.564  29.822  54.672  1.00  0.00     0.221 C 
HETATM    9  C   UNL     1       3.993  29.119  55.920  1.00  0.00     0.066 C 
HETATM   10  H   UNL     1       4.491  26.147  55.366  1.00  0.00     0.161 HD
ENDROOT
BRANCH   7  11
HETATM   11  C   UNL     1       5.894  25.543  52.454  1.00  0.00     0.257 C 
HETATM   12  N   UNL     1       7.192  25.210  52.760  1.00  0.00    -0.352 N 
HETATM   13  H   UNL     1       7.809  25.967  53.022  1.00  0.00     0.163 HD
HETATM   14  O   UNL     1       5.115  24.763  51.915  1.00  0.00    -0.267 OA
BRANCH  12  15
HETATM   15  C   UNL     1       7.769  23.972  52.299  1.00  0.00     0.161 C 
BRANCH  15  16
HETATM   16  C   UNL     1       7.806  22.940  53.394  1.00  0.00    -0.041 A 
HETATM   17  C   UNL     1       7.725  23.336  54.736  1.00  0.00     0.009 A 
HETATM   18  C   UNL     1       7.740  22.387  55.760  1.00  0.00     0.001 A 
HETATM   19  C   UNL     1       7.848  21.033  55.451  1.00  0.00     0.000 A 
HETATM   20  C   UNL     1       7.945  20.627  54.121  1.00  0.00     0.001 A 
HETATM   21  C   UNL     1       7.925  21.575  53.096  1.00  0.00     0.009 A 
ENDBRANCH  15  16
ENDBRANCH  12  15
ENDBRANCH   7  11
BRANCH   1  22
HETATM   22  C   UNL     1       6.269  28.375  56.892  1.00  0.00    -0.033 A 
HETATM   23  C   UNL     1       6.452  29.595  57.577  1.00  0.00     0.046 A 
HETATM   24  C   UNL     1       7.705  29.984  58.057  1.00  0.00     0.068 A 
HETATM   25  C   UNL     1       8.806  29.160  57.833  1.00  0.00     0.037 A 
HETATM   26  C   UNL     1       8.660  27.965  57.133  1.00  0.00     0.003 A 
HETATM   27  C   UNL     1       7.405  27.581  56.656  1.00  0.00     0.009 A 
BRANCH  24  28
HETATM   28  O   UNL     1       7.980  31.137  58.740  1.00  0.00    -0.356 OA
HETATM   29  C   UNL     1       9.351  31.455  58.941  1.00  0.00     0.210 C 
ENDBRANCH  24  28
ENDBRANCH   1  22
BRANCH   8  30
HETATM   30  C   UNL     1       3.536  30.794  54.132  1.00  0.00     0.409 C 
HETATM   31  F   UNL     1       2.747  30.239  53.185  1.00  0.00    -0.169 F 
HETATM   32  F   UNL     1       2.705  31.176  55.144  1.00  0.00    -0.169 F 
HETATM   33  F   UNL     1       4.065  31.931  53.638  1.00  0.00    -0.169 F 
ENDBRANCH   8  30
TORSDOF 6
ENDMDL
MODEL 4
REMARK VINA RESULT:      -9.2      3.546      8.267
REMARK  6 active torsions:
REMARK  status: ('A' for Active; 'I' for Inactive)
REMARK    1  A    between atoms: O_2  and  C_3 
REMARK    2  A    between atoms: C_5  and  C_6 
REMARK    3  A    between atoms: C_12  and  C_13 
REMARK       I    between atoms: C_13  and  N_14 
REMARK    4  A    between atoms: N_14  and  C_15 
REMARK    5  A    between atoms: C_15  and  C_16 
REMARK    6  A    between atoms: C_23  and  C_24 
ROOT
HETATM    1  C   UNL     1       5.289  25.816  55.980  1.00  0.00     0.118 C 
HETATM    2  N   UNL     1       5.404  27.061  56.759  1.00  0.00    -0.365 N 
HETATM    3  C   UNL     1       6.638  27.540  57.091  1.00  0.00     0.138 A 
HETATM    4  N   UNL     1       7.761  26.758  56.941  1.00  0.00    -0.240 N 
HETATM    5  N   UNL     1       8.900  27.381  57.270  1.00  0.00    -0.181 NA
HETATM    6  C   UNL     1       8.485  28.576  57.696  1.00  0.00     0.160 A 
HETATM    7  C   UNL     1       7.083  28.748  57.598  1.00  0.00     0.096 A 
HETATM    8  C   UNL     1       7.751  25.396  56.439  1.00  0.00     0.221 C 
HETATM    9  C   UNL     1       6.324  24.819  56.526  1.00  0.00     0.066 C 
HETATM   10  H   UNL     1       4.629  27.216  57.407  1.00  0.00     0.161 HD
ENDROOT
BRANCH   7  11
HETATM   11  C   UNL     1       6.358  29.966  57.910  1.00  0.00     0.257 C 
HETATM   12  N   UNL     1       7.011  30.837  58.750  1.00  0.00    -0.352 N 
HETATM   13  H   UNL     1       7.851  30.497  59.198  1.00  0.00     0.163 HD
HETATM   14  O   UNL     1       5.225  30.172  57.486  1.00  0.00    -0.267 OA
BRANCH  12  15
HETATM   15  C   UNL     1       6.325  31.967  59.327  1.00  0.00     0.161 C 
BRANCH  15  16
HETATM   16  C   UNL     1       6.822  32.260  60.717  1.00  0.00    -0.041 A 
HETATM   17  C   UNL     1       8.050  31.742  61.149  1.00  0.00     0.009 A 
HETATM   18  C   UNL     1       8.529  32.023  62.430  1.00  0.00     0.001 A 
HETATM   19  C   UNL     1       7.780  32.817  63.295  1.00  0.00     0.000 A 
HETATM   20  C   UNL     1       6.549  33.326  62.882  1.00  0.00     0.001 A 
HETATM   21  C   UNL     1       6.071  33.050  61.600  1.00  0.00     0.009 A 
ENDBRANCH  15  16
ENDBRANCH  12  15
ENDBRANCH   7  11
BRANCH   1  22
HETATM   22  C   UNL     1       5.384  26.080  54.476  1.00  0.00    -0.033 A 
HETATM   23  C   UNL     1       5.482  27.392  53.964  1.00  0.00     0.046 A 
HETATM   24  C   UNL     1       5.564  27.639  52.591  1.00  0.00     0.068 A 
HETATM   25  C   UNL     1       5.522  26.565  51.703  1.00  0.00     0.037 A 
HETATM   26  C   UNL     1       5.394  25.263  52.178  1.00  0.00     0.003 A 
HETATM   27  C   UNL     1       5.314  25.023  53.552  1.00  0.00     0.009 A 
BRANCH  24  28
HETATM   28  O   UNL     1       5.674  28.868  52.002  1.00  0.00    -0.356 OA
HETATM   29  C   UNL     1       5.381  28.945  50.613  1.00  0.00     0.210 C 
ENDBRANCH  24  28
ENDBRANCH   1  22
BRANCH   8  30
HETATM   30  C   UNL     1       8.701  24.494  57.199  1.00  0.00     0.409 C 
HETATM   31  F   UNL     1       8.699  24.742  58.528  1.00  0.00    -0.169 F 
HETATM   32  F   UNL     1       8.302  23.198  57.053  1.00  0.00    -0.169 F 
HETATM   33  F   UNL     1       9.972  24.541  56.755  1.00  0.00    -0.169 F 
ENDBRANCH   8  30
TORSDOF 6
ENDMDL
MODEL 5
REMARK VINA RESULT:      -9.0      3.515      8.732
REMARK  6 active torsions:
REMARK  status: ('A' for Active; 'I' for Inactive)
REMARK    1  A    between atoms: O_2  and  C_3 
REMARK    2  A    between atoms: C_5  and  C_6 
REMARK    3  A    between atoms: C_12  and  C_13 
REMARK       I    between atoms: C_13  and  N_14 
REMARK    4  A    between atoms: N_14  and  C_15 
REMARK    5  A    between atoms: C_15  and  C_16 
REMARK    6  A    between atoms: C_23  and  C_24 
ROOT
HETATM    1  C   UNL     1       4.627  27.691  56.435  1.00  0.00     0.118 C 
HETATM    2  N   UNL     1       5.013  28.826  57.292  1.00  0.00    -0.365 N 
HETATM    3  C   UNL     1       6.328  29.031  57.592  1.00  0.00     0.138 A 
HETATM    4  N   UNL     1       7.270  28.061  57.331  1.00  0.00    -0.240 N 
HETATM    5  N   UNL     1       8.520  28.425  57.643  1.00  0.00    -0.181 NA
HETATM    6  C   UNL     1       8.364  29.642  58.171  1.00  0.00     0.160 A 
HETATM    7  C   UNL     1       7.019  30.087  58.157  1.00  0.00     0.096 A 
HETATM    8  C   UNL     1       6.974  26.769  56.737  1.00  0.00     0.221 C 
HETATM    9  C   UNL     1       5.466  26.474  56.858  1.00  0.00     0.066 C 
HETATM   10  H   UNL     1       4.308  29.077  57.987  1.00  0.00     0.161 HD
ENDROOT
BRANCH   7  11
HETATM   11  C   UNL     1       6.560  31.395  58.589  1.00  0.00     0.257 C 
HETATM   12  N   UNL     1       6.591  31.608  59.947  1.00  0.00    -0.352 N 
HETATM   13  H   UNL     1       6.774  30.803  60.532  1.00  0.00     0.163 HD
HETATM   14  O   UNL     1       6.134  32.226  57.794  1.00  0.00    -0.267 OA
BRANCH  12  15
HETATM   15  C   UNL     1       5.953  32.760  60.532  1.00  0.00     0.161 C 
BRANCH  15  16
HETATM   16  C   UNL     1       6.488  33.046  61.910  1.00  0.00    -0.041 A 
HETATM   17  C   UNL     1       5.902  34.044  62.700  1.00  0.00     0.009 A 
HETATM   18  C   UNL     1       6.378  34.305  63.985  1.00  0.00     0.001 A 
HETATM   19  C   UNL     1       7.454  33.577  64.490  1.00  0.00     0.000 A 
HETATM   20  C   UNL     1       8.055  32.591  63.708  1.00  0.00     0.001 A 
HETATM   21  C   UNL     1       7.577  32.326  62.424  1.00  0.00     0.009 A 
ENDBRANCH  15  16
ENDBRANCH  12  15
ENDBRANCH   7  11
BRANCH   1  22
HETATM   22  C   UNL     1       4.716  28.048  54.950  1.00  0.00    -0.033 A 
HETATM   23  C   UNL     1       5.130  27.100  53.990  1.00  0.00     0.046 A 
HETATM   24  C   UNL     1       5.218  27.422  52.633  1.00  0.00     0.068 A 
HETATM   25  C   UNL     1       4.915  28.718  52.220  1.00  0.00     0.037 A 
HETATM   26  C   UNL     1       4.534  29.682  53.149  1.00  0.00     0.003 A 
HETATM   27  C   UNL     1       4.447  29.353  54.504  1.00  0.00     0.009 A 
BRANCH  24  28
HETATM   28  O   UNL     1       5.595  26.572  51.630  1.00  0.00    -0.356 OA
HETATM   29  C   UNL     1       5.230  25.205  51.772  1.00  0.00     0.210 C 
ENDBRANCH  24  28
ENDBRANCH   1  22
BRANCH   8  30
HETATM   30  C   UNL     1       7.756  25.645  57.384  1.00  0.00     0.409 C 
HETATM   31  F   UNL     1       7.732  25.707  58.734  1.00  0.00    -0.169 F 
HETATM   32  F   UNL     1       7.188  24.452  57.047  1.00  0.00    -0.169 F 
HETATM   33  F   UNL     1       9.040  25.570  56.980  1.00  0.00    -0.169 F 
ENDBRANCH   8  30
TORSDOF 6
ENDMDL
MODEL 6
REMARK VINA RESULT:      -9.0      3.673      7.113
REMARK  6 active torsions:
REMARK  status: ('A' for Active; 'I' for Inactive)
REMARK    1  A    between atoms: O_2  and  C_3 
REMARK    2  A    between atoms: C_5  and  C_6 
REMARK    3  A    between atoms: C_12  and  C_13 
REMARK       I    between atoms: C_13  and  N_14 
REMARK    4  A    between atoms: N_14  and  C_15 
REMARK    5  A    between atoms: C_15  and  C_16 
REMARK    6  A    between atoms: C_23  and  C_24 
ROOT
HETATM    1  C   UNL     1       5.366  25.236  55.447  1.00  0.00     0.118 C 
HETATM    2  N   UNL     1       5.003  25.458  54.037  1.00  0.00    -0.365 N 
HETATM    3  C   UNL     1       5.439  26.579  53.394  1.00  0.00     0.138 A 
HETATM    4  N   UNL     1       5.988  27.628  54.099  1.00  0.00    -0.240 N 
HETATM    5  N   UNL     1       6.405  28.638  53.326  1.00  0.00    -0.181 NA
HETATM    6  C   UNL     1       6.061  28.247  52.096  1.00  0.00     0.160 A 
HETATM    7  C   UNL     1       5.465  26.963  52.065  1.00  0.00     0.096 A 
HETATM    8  C   UNL     1       6.149  27.650  55.542  1.00  0.00     0.221 C 
HETATM    9  C   UNL     1       5.244  26.580  56.184  1.00  0.00     0.066 C 
HETATM   10  H   UNL     1       4.094  25.068  53.779  1.00  0.00     0.161 HD
ENDROOT
BRANCH   7  11
HETATM   11  C   UNL     1       5.064  26.248  50.867  1.00  0.00     0.257 C 
HETATM   12  N   UNL     1       5.227  26.939  49.690  1.00  0.00    -0.352 N 
HETATM   13  H   UNL     1       5.457  27.921  49.764  1.00  0.00     0.163 HD
HETATM   14  O   UNL     1       4.572  25.125  50.918  1.00  0.00    -0.267 OA
BRANCH  12  15
HETATM   15  C   UNL     1       4.661  26.450  48.458  1.00  0.00     0.161 C 
BRANCH  15  16
HETATM   16  C   UNL     1       3.421  27.216  48.080  1.00  0.00    -0.041 A 
HETATM   17  C   UNL     1       3.508  28.573  47.740  1.00  0.00     0.009 A 
HETATM   18  C   UNL     1       2.368  29.288  47.371  1.00  0.00     0.001 A 
HETATM   19  C   UNL     1       1.127  28.656  47.349  1.00  0.00     0.000 A 
HETATM   20  C   UNL     1       1.024  27.311  47.700  1.00  0.00     0.001 A 
HETATM   21  C   UNL     1       2.165  26.593  48.065  1.00  0.00     0.009 A 
ENDBRANCH  15  16
ENDBRANCH  12  15
ENDBRANCH   7  11
BRANCH   1  22
HETATM   22  C   UNL     1       6.730  24.553  55.579  1.00  0.00    -0.033 A 
HETATM   23  C   UNL     1       7.199  23.653  54.599  1.00  0.00     0.046 A 
HETATM   24  C   UNL     1       8.441  23.023  54.717  1.00  0.00     0.068 A 
HETATM   25  C   UNL     1       9.225  23.271  55.843  1.00  0.00     0.037 A 
HETATM   26  C   UNL     1       8.774  24.131  56.840  1.00  0.00     0.003 A 
HETATM   27  C   UNL     1       7.532  24.757  56.715  1.00  0.00     0.009 A 
BRANCH  24  28
HETATM   28  O   UNL     1       8.986  22.149  53.818  1.00  0.00    -0.356 OA
HETATM   29  C   UNL     1       8.082  21.325  53.092  1.00  0.00     0.210 C 
ENDBRANCH  24  28
ENDBRANCH   1  22
BRANCH   8  30
HETATM   30  C   UNL     1       5.822  29.003  56.138  1.00  0.00     0.409 C 
HETATM   31  F   UNL     1       4.693  29.537  55.620  1.00  0.00    -0.169 F 
HETATM   32  F   UNL     1       5.598  28.862  57.475  1.00  0.00    -0.169 F 
HETATM   33  F   UNL     1       6.816  29.906  56.023  1.00  0.00    -0.169 F 
ENDBRANCH   8  30
TORSDOF 6
ENDMDL
MODEL 7
REMARK VINA RESULT:      -9.0      3.770      7.948
REMARK  6 active torsions:
REMARK  status: ('A' for Active; 'I' for Inactive)
REMARK    1  A    between atoms: O_2  and  C_3 
REMARK    2  A    between atoms: C_5  and  C_6 
REMARK    3  A    between atoms: C_12  and  C_13 
REMARK       I    between atoms: C_13  and  N_14 
REMARK    4  A    between atoms: N_14  and  C_15 
REMARK    5  A    between atoms: C_15  and  C_16 
REMARK    6  A    between atoms: C_23  and  C_24 
ROOT
HETATM    1  C   UNL     1       5.301  29.803  57.603  1.00  0.00     0.118 C 
HETATM    2  N   UNL     1       6.544  30.176  58.301  1.00  0.00    -0.365 N 
HETATM    3  C   UNL     1       7.749  29.967  57.699  1.00  0.00     0.138 A 
HETATM    4  N   UNL     1       7.846  29.182  56.571  1.00  0.00    -0.240 N 
HETATM    5  N   UNL     1       9.087  29.105  56.072  1.00  0.00    -0.181 NA
HETATM    6  C   UNL     1       9.812  29.815  56.940  1.00  0.00     0.160 A 
HETATM    7  C   UNL     1       9.035  30.394  57.973  1.00  0.00     0.096 A 
HETATM    8  C   UNL     1       6.722  28.519  55.934  1.00  0.00     0.221 C 
HETATM    9  C   UNL     1       5.535  28.447  56.916  1.00  0.00     0.066 C 
HETATM   10  H   UNL     1       6.485  30.096  59.319  1.00  0.00     0.161 HD
ENDROOT
BRANCH   7  11
HETATM   11  C   UNL     1       9.537  31.279  59.009  1.00  0.00     0.257 C 
HETATM   12  N   UNL     1       9.252  30.895  60.298  1.00  0.00    -0.352 N 
HETATM   13  H   UNL     1       8.597  30.133  60.413  1.00  0.00     0.163 HD
HETATM   14  O   UNL     1      10.131  32.318  58.739  1.00  0.00    -0.267 OA
BRANCH  12  15
HETATM   15  C   UNL     1       9.481  31.788  61.406  1.00  0.00     0.161 C 
BRANCH  15  16
HETATM   16  C   UNL     1       8.194  32.145  62.100  1.00  0.00    -0.041 A 
HETATM   17  C   UNL     1       8.213  32.616  63.420  1.00  0.00     0.009 A 
HETATM   18  C   UNL     1       7.028  32.967  64.067  1.00  0.00     0.001 A 
HETATM   19  C   UNL     1       5.809  32.842  63.403  1.00  0.00     0.000 A 
HETATM   20  C   UNL     1       5.775  32.362  62.095  1.00  0.00     0.001 A 
HETATM   21  C   UNL     1       6.961  32.014  61.445  1.00  0.00     0.009 A 
ENDBRANCH  15  16
ENDBRANCH  12  15
ENDBRANCH   7  11
BRANCH   1  22
HETATM   22  C   UNL     1       4.818  30.918  56.674  1.00  0.00    -0.033 A 
HETATM   23  C   UNL     1       5.267  32.248  56.825  1.00  0.00     0.046 A 
HETATM   24  C   UNL     1       4.825  33.270  55.982  1.00  0.00     0.068 A 
HETATM   25  C   UNL     1       3.898  32.977  54.983  1.00  0.00     0.037 A 
HETATM   26  C   UNL     1       3.415  31.680  54.831  1.00  0.00     0.003 A 
HETATM   27  C   UNL     1       3.862  30.662  55.676  1.00  0.00     0.009 A 
BRANCH  24  28
HETATM   28  O   UNL     1       5.210  34.581  56.041  1.00  0.00    -0.356 OA
HETATM   29  C   UNL     1       4.554  35.403  56.999  1.00  0.00     0.210 C 
ENDBRANCH  24  28
ENDBRANCH   1  22
BRANCH   8  30
HETATM   30  C   UNL     1       7.067  27.121  55.466  1.00  0.00     0.409 C 
HETATM   31  F   UNL     1       7.810  26.442  56.368  1.00  0.00    -0.169 F 
HETATM   32  F   UNL     1       5.918  26.405  55.303  1.00  0.00    -0.169 F 
HETATM   33  F   UNL     1       7.698  27.084  54.275  1.00  0.00    -0.169 F 
ENDBRANCH   8  30
TORSDOF 6
ENDMDL
MODEL 8
REMARK VINA RESULT:      -8.9      1.776      2.377
REMARK  6 active torsions:
REMARK  status: ('A' for Active; 'I' for Inactive)
REMARK    1  A    between atoms: O_2  and  C_3 
REMARK    2  A    between atoms: C_5  and  C_6 
REMARK    3  A    between atoms: C_12  and  C_13 
REMARK       I    between atoms: C_13  and  N_14 
REMARK    4  A    between atoms: N_14  and  C_15 
REMARK    5  A    between atoms: C_15  and  C_16 
REMARK    6  A    between atoms: C_23  and  C_24 
ROOT
HETATM    1  C   UNL     1       5.482  28.685  57.371  1.00  0.00     0.118 C 
HETATM    2  N   UNL     1       5.191  28.026  56.086  1.00  0.00    -0.365 N 
HETATM    3  C   UNL     1       4.884  28.781  54.992  1.00  0.00     0.138 A 
HETATM    4  N   UNL     1       4.587  30.120  55.121  1.00  0.00    -0.240 N 
HETATM    5  N   UNL     1       4.347  30.734  53.955  1.00  0.00    -0.181 NA
HETATM    6  C   UNL     1       4.439  29.746  53.062  1.00  0.00     0.160 A 
HETATM    7  C   UNL     1       4.787  28.501  53.641  1.00  0.00     0.096 A 
HETATM    8  C   UNL     1       4.565  30.837  56.383  1.00  0.00     0.221 C 
HETATM    9  C   UNL     1       4.477  29.835  57.551  1.00  0.00     0.066 C 
HETATM   10  H   UNL     1       4.756  27.107  56.183  1.00  0.00     0.161 HD
ENDROOT
BRANCH   7  11
HETATM   11  C   UNL     1       5.035  27.271  52.911  1.00  0.00     0.257 C 
HETATM   12  N   UNL     1       4.589  26.124  53.524  1.00  0.00    -0.352 N 
HETATM   13  H   UNL     1       4.275  26.210  54.482  1.00  0.00     0.163 HD
HETATM   14  O   UNL     1       5.641  27.264  51.844  1.00  0.00    -0.267 OA
BRANCH  12  15
HETATM   15  C   UNL     1       4.969  24.824  53.032  1.00  0.00     0.161 C 
BRANCH  15  16
HETATM   16  C   UNL     1       6.219  24.325  53.705  1.00  0.00    -0.041 A 
HETATM   17  C   UNL     1       6.483  24.664  55.039  1.00  0.00     0.009 A 
HETATM   18  C   UNL     1       7.630  24.193  55.679  1.00  0.00     0.001 A 
HETATM   19  C   UNL     1       8.531  23.385  54.987  1.00  0.00     0.000 A 
HETATM   20  C   UNL     1       8.287  23.053  53.656  1.00  0.00     0.001 A 
HETATM   21  C   UNL     1       7.138  23.520  53.016  1.00  0.00     0.009 A 
ENDBRANCH  15  16
ENDBRANCH  12  15
ENDBRANCH   7  11
BRANCH   1  22
HETATM   22  C   UNL     1       6.952  29.096  57.476  1.00  0.00    -0.033 A 
HETATM   23  C   UNL     1       7.333  30.321  58.063  1.00  0.00     0.046 A 
HETATM   24  C   UNL     1       8.674  30.703  58.156  1.00  0.00     0.068 A 
HETATM   25  C   UNL     1       9.658  29.866  57.635  1.00  0.00     0.037 A 
HETATM   26  C   UNL     1       9.309  28.665  57.023  1.00  0.00     0.003 A 
HETATM   27  C   UNL     1       7.967  28.289  56.933  1.00  0.00     0.009 A 
BRANCH  24  28
HETATM   28  O   UNL     1       9.141  31.860  58.716  1.00  0.00    -0.356 OA
HETATM   29  C   UNL     1       9.241  31.895  60.134  1.00  0.00     0.210 C 
ENDBRANCH  24  28
ENDBRANCH   1  22
BRANCH   8  30
HETATM   30  C   UNL     1       3.409  31.811  56.473  1.00  0.00     0.409 C 
HETATM   31  F   UNL     1       2.241  31.268  56.061  1.00  0.00    -0.169 F 
HETATM   32  F   UNL     1       3.223  32.169  57.775  1.00  0.00    -0.169 F 
HETATM   33  F   UNL     1       3.609  32.961  55.799  1.00  0.00    -0.169 F 
ENDBRANCH   8  30
TORSDOF 6
ENDMDL
MODEL 9
REMARK VINA RESULT:      -8.9      4.532      7.304
REMARK  6 active torsions:
REMARK  status: ('A' for Active; 'I' for Inactive)
REMARK    1  A    between atoms: O_2  and  C_3 
REMARK    2  A    between atoms: C_5  and  C_6 
REMARK    3  A    between atoms: C_12  and  C_13 
REMARK       I    between atoms: C_13  and  N_14 
REMARK    4  A    between atoms: N_14  and  C_15 
REMARK    5  A    between atoms: C_15  and  C_16 
REMARK    6  A    between atoms: C_23  and  C_24 
ROOT
HETATM    1  C   UNL     1       5.330  28.303  49.614  1.00  0.00     0.118 C 
HETATM    2  N   UNL     1       6.150  27.356  50.389  1.00  0.00    -0.365 N 
HETATM    3  C   UNL     1       5.735  26.954  51.625  1.00  0.00     0.138 A 
HETATM    4  N   UNL     1       4.707  27.605  52.270  1.00  0.00    -0.240 N 
HETATM    5  N   UNL     1       4.387  27.069  53.454  1.00  0.00    -0.181 NA
HETATM    6  C   UNL     1       5.274  26.081  53.594  1.00  0.00     0.160 A 
HETATM    7  C   UNL     1       6.138  25.944  52.480  1.00  0.00     0.096 A 
HETATM    8  C   UNL     1       3.990  28.745  51.726  1.00  0.00     0.221 C 
HETATM    9  C   UNL     1       4.808  29.378  50.583  1.00  0.00     0.066 C 
HETATM   10  H   UNL     1       7.153  27.440  50.214  1.00  0.00     0.161 HD
ENDROOT
BRANCH   7  11
HETATM   11  C   UNL     1       7.145  24.911  52.316  1.00  0.00     0.257 C 
HETATM   12  N   UNL     1       6.812  23.680  52.830  1.00  0.00    -0.352 N 
HETATM   13  H   UNL     1       5.983  23.635  53.407  1.00  0.00     0.163 HD
HETATM   14  O   UNL     1       8.231  25.144  51.794  1.00  0.00    -0.267 OA
BRANCH  12  15
HETATM   15  C   UNL     1       7.797  22.634  52.946  1.00  0.00     0.161 C 
BRANCH  15  16
HETATM   16  C   UNL     1       7.959  22.188  54.375  1.00  0.00    -0.041 A 
HETATM   17  C   UNL     1       7.887  20.826  54.699  1.00  0.00     0.009 A 
HETATM   18  C   UNL     1       8.054  20.399  56.017  1.00  0.00     0.001 A 
HETATM   19  C   UNL     1       8.284  21.331  57.026  1.00  0.00     0.000 A 
HETATM   20  C   UNL     1       8.343  22.689  56.720  1.00  0.00     0.001 A 
HETATM   21  C   UNL     1       8.181  23.118  55.400  1.00  0.00     0.009 A 
ENDBRANCH  15  16
ENDBRANCH  12  15
ENDBRANCH   7  11
BRANCH   1  22
HETATM   22  C   UNL     1       4.246  27.584  48.809  1.00  0.00    -0.033 A 
HETATM   23  C   UNL     1       3.285  28.302  48.065  1.00  0.00     0.046 A 
HETATM   24  C   UNL     1       2.290  27.651  47.332  1.00  0.00     0.068 A 
HETATM   25  C   UNL     1       2.228  26.259  47.355  1.00  0.00     0.037 A 
HETATM   26  C   UNL     1       3.144  25.526  48.105  1.00  0.00     0.003 A 
HETATM   27  C   UNL     1       4.137  26.183  48.835  1.00  0.00     0.009 A 
BRANCH  24  28
HETATM   28  O   UNL     1       1.326  28.256  46.573  1.00  0.00    -0.356 OA
HETATM   29  C   UNL     1       0.221  27.454  46.175  1.00  0.00     0.210 C 
ENDBRANCH  24  28
ENDBRANCH   1  22
BRANCH   8  30
HETATM   30  C   UNL     1       3.703  29.799  52.776  1.00  0.00     0.409 C 
HETATM   31  F   UNL     1       2.881  29.348  53.750  1.00  0.00    -0.169 F 
HETATM   32  F   UNL     1       4.869  30.147  53.392  1.00  0.00    -0.169 F 
HETATM   33  F   UNL     1       3.192  30.942  52.278  1.00  0.00    -0.169 F 
ENDBRANCH   8  30
TORSDOF 6
ENDMDL
MODEL 10
REMARK VINA RESULT:      -8.7      2.414      3.373
REMARK  6 active torsions:
REMARK  status: ('A' for Active; 'I' for Inactive)
REMARK    1  A    between atoms: O_2  and  C_3 
REMARK    2  A    between atoms: C_5  and  C_6 
REMARK    3  A    between atoms: C_12  and  C_13 
REMARK       I    between atoms: C_13  and  N_14 
REMARK    4  A    between atoms: N_14  and  C_15 
REMARK    5  A    between atoms: C_15  and  C_16 
REMARK    6  A    between atoms: C_23  and  C_24 
ROOT
HETATM    1  C   UNL     1       3.854  29.078  56.295  1.00  0.00     0.118 C 
HETATM    2  N   UNL     1       4.476  27.743  56.246  1.00  0.00    -0.365 N 
HETATM    3  C   UNL     1       5.360  27.444  55.252  1.00  0.00     0.138 A 
HETATM    4  N   UNL     1       5.488  28.263  54.152  1.00  0.00    -0.240 N 
HETATM    5  N   UNL     1       6.425  27.860  53.285  1.00  0.00    -0.181 NA
HETATM    6  C   UNL     1       6.868  26.719  53.819  1.00  0.00     0.160 A 
HETATM    7  C   UNL     1       6.255  26.407  55.057  1.00  0.00     0.096 A 
HETATM    8  C   UNL     1       4.723  29.480  53.943  1.00  0.00     0.221 C 
HETATM    9  C   UNL     1       3.482  29.479  54.857  1.00  0.00     0.066 C 
HETATM   10  H   UNL     1       3.880  26.998  56.612  1.00  0.00     0.161 HD
ENDROOT
BRANCH   7  11
HETATM   11  C   UNL     1       6.591  25.277  55.903  1.00  0.00     0.257 C 
HETATM   12  N   UNL     1       7.832  24.727  55.682  1.00  0.00    -0.352 N 
HETATM   13  H   UNL     1       8.333  25.044  54.863  1.00  0.00     0.163 HD
HETATM   14  O   UNL     1       5.797  24.824  56.722  1.00  0.00    -0.267 OA
BRANCH  12  15
HETATM   15  C   UNL     1       8.203  23.469  56.280  1.00  0.00     0.161 C 
BRANCH  15  16
HETATM   16  C   UNL     1       8.276  22.372  55.252  1.00  0.00    -0.041 A 
HETATM   17  C   UNL     1       8.685  21.084  55.625  1.00  0.00     0.009 A 
HETATM   18  C   UNL     1       8.738  20.055  54.685  1.00  0.00     0.001 A 
HETATM   19  C   UNL     1       8.394  20.306  53.358  1.00  0.00     0.000 A 
HETATM   20  C   UNL     1       8.001  21.586  52.971  1.00  0.00     0.001 A 
HETATM   21  C   UNL     1       7.942  22.616  53.912  1.00  0.00     0.009 A 
ENDBRANCH  15  16
ENDBRANCH  12  15
ENDBRANCH   7  11
BRANCH   1  22
HETATM   22  C   UNL     1       4.736  30.086  57.034  1.00  0.00    -0.033 A 
HETATM   23  C   UNL     1       6.041  29.752  57.454  1.00  0.00     0.046 A 
HETATM   24  C   UNL     1       6.849  30.667  58.135  1.00  0.00     0.068 A 
HETATM   25  C   UNL     1       6.346  31.933  58.427  1.00  0.00     0.037 A 
HETATM   26  C   UNL     1       5.050  32.280  58.052  1.00  0.00     0.003 A 
HETATM   27  C   UNL     1       4.248  31.361  57.372  1.00  0.00     0.009 A 
BRANCH  24  28
HETATM   28  O   UNL     1       8.125  30.442  58.570  1.00  0.00    -0.356 OA
HETATM   29  C   UNL     1       8.363  30.571  59.966  1.00  0.00     0.210 C 
ENDBRANCH  24  28
ENDBRANCH   1  22
BRANCH   8  30
HETATM   30  C   UNL     1       4.281  29.641  52.503  1.00  0.00     0.409 C 
HETATM   31  F   UNL     1       3.980  28.460  51.918  1.00  0.00    -0.169 F 
HETATM   32  F   UNL     1       3.140  30.386  52.465  1.00  0.00    -0.169 F 
HETATM   33  F   UNL     1       5.173  30.290  51.727  1.00  0.00    -0.169 F 
ENDBRANCH   8  30
TORSDOF 6
ENDMDL
