MODEL 1
REMARK VINA RESULT:      -9.2      0.000      0.000
REMARK  5 active torsions:
REMARK  status: ('A' for Active; 'I' for Inactive)
REMARK    1  A    between atoms: O_2  and  C_3 
REMARK    2  A    between atoms: C_4  and  N_5 
REMARK    3  A    between atoms: N_5  and  C_6 
REMARK    4  A    between atoms: C_6  and  C_7 
REMARK       I    between atoms: C_7  and  N_8 
REMARK    5  A    between atoms: N_8  and  C_9 
ROOT
HETATM    1  C   UNL     1       6.071  27.149  56.762  1.00  0.00     0.235 C 
HETATM    2  N   UNL     1       7.276  26.581  56.383  1.00  0.00    -0.326 N 
HETATM    3  O   UNL     1       4.955  26.658  56.615  1.00  0.00    -0.272 OA
HETATM    4  H   UNL     1       8.111  27.011  56.761  1.00  0.00     0.169 HD
ENDROOT
BRANCH   1   5
HETATM    5  C   UNL     1       6.238  28.525  57.422  1.00  0.00     0.195 C 
BRANCH   5   6
HETATM    6  N   UNL     1       7.343  28.538  58.377  1.00  0.00    -0.282 NA
HETATM    7  H   UNL     1       7.904  27.683  58.310  1.00  0.00     0.128 HD
BRANCH   6   8
HETATM    8  C   UNL     1       8.187  29.641  58.537  1.00  0.00     0.042 A 
HETATM    9  C   UNL     1       9.361  29.727  57.758  1.00  0.00     0.089 A 
HETATM   10  C   UNL     1      10.257  30.790  57.881  1.00  0.00     0.038 A 
HETATM   11  C   UNL     1      10.038  31.762  58.850  1.00  0.00     0.003 A 
HETATM   12  C   UNL     1       8.929  31.662  59.687  1.00  0.00     0.002 A 
HETATM   13  C   UNL     1       8.021  30.603  59.539  1.00  0.00     0.026 A 
BRANCH   9  14
HETATM   14  O   UNL     1       9.637  28.780  56.799  1.00  0.00    -0.354 OA
HETATM   15  C   UNL     1       9.785  29.400  55.518  1.00  0.00     0.210 C 
ENDBRANCH   9  14
ENDBRANCH   6   8
ENDBRANCH   5   6
ENDBRANCH   1   5
BRANCH   2  16
HETATM   16  C   UNL     1       7.471  25.432  55.587  1.00  0.00     0.035 A 
HETATM   17  C   UNL     1       7.584  24.138  56.099  1.00  0.00     0.042 A 
HETATM   18  C   UNL     1       7.724  23.024  55.249  1.00  0.00    -0.024 A 
HETATM   19  C   UNL     1       7.750  23.217  53.851  1.00  0.00    -0.026 A 
HETATM   20  C   UNL     1       7.834  21.721  55.763  1.00  0.00     0.012 A 
HETATM   21  C   UNL     1       7.644  24.518  53.340  1.00  0.00     0.014 A 
HETATM   22  C   UNL     1       7.877  22.103  53.004  1.00  0.00     0.012 A 
HETATM   23  C   UNL     1       7.507  25.612  54.201  1.00  0.00     0.030 A 
HETATM   24  C   UNL     1       7.982  20.815  53.531  1.00  0.00     0.001 A 
HETATM   25  C   UNL     1       7.962  20.624  54.909  1.00  0.00     0.001 A 
ENDBRANCH   2  16
TORSDOF 5
ENDMDL
MODEL 2
REMARK VINA RESULT:      -9.2      1.080      1.908
REMARK  5 active torsions:
REMARK  status: ('A' for Active; 'I' for Inactive)
REMARK    1  A    between atoms: O_2  and  C_3 
REMARK    2  A    between atoms: C_4  and  N_5 
REMARK    3  A    between atoms: N_5  and  C_6 
REMARK    4  A    between atoms: C_6  and  C_7 
REMARK       I    between atoms: C_7  and  N_8 
REMARK    5  A    between atoms: N_8  and  C_9 
ROOT
HETATM    1  C   UNL     1       6.213  26.903  56.455  1.00  0.00     0.235 C 
HETATM    2  N   UNL     1       7.373  26.437  55.858  1.00  0.00    -0.326 N 
HETATM    3  O   UNL     1       5.175  26.268  56.626  1.00  0.00    -0.272 OA
HETATM    4  H   UNL     1       8.199  27.009  55.983  1.00  0.00     0.169 HD
ENDROOT
BRANCH   1   5
HETATM    5  C   UNL     1       6.321  28.363  56.918  1.00  0.00     0.195 C 
BRANCH   5   6
HETATM    6  N   UNL     1       7.267  28.513  58.020  1.00  0.00    -0.282 NA
HETATM    7  H   UNL     1       7.465  27.613  58.467  1.00  0.00     0.128 HD
BRANCH   6   8
HETATM    8  C   UNL     1       8.450  29.249  57.902  1.00  0.00     0.042 A 
HETATM    9  C   UNL     1       8.582  30.458  58.619  1.00  0.00     0.089 A 
HETATM   10  C   UNL     1       9.727  31.251  58.532  1.00  0.00     0.038 A 
HETATM   11  C   UNL     1      10.746  30.890  57.659  1.00  0.00     0.003 A 
HETATM   12  C   UNL     1      10.610  29.743  56.880  1.00  0.00     0.002 A 
HETATM   13  C   UNL     1       9.467  28.939  56.992  1.00  0.00     0.026 A 
BRANCH   9  14
HETATM   14  O   UNL     1       7.594  30.873  59.482  1.00  0.00    -0.354 OA
HETATM   15  C   UNL     1       8.134  31.090  60.789  1.00  0.00     0.210 C 
ENDBRANCH   9  14
ENDBRANCH   6   8
ENDBRANCH   5   6
ENDBRANCH   1   5
BRANCH   2  16
HETATM   16  C   UNL     1       7.550  25.227  55.155  1.00  0.00     0.035 A 
HETATM   17  C   UNL     1       7.645  23.976  55.767  1.00  0.00     0.042 A 
HETATM   18  C   UNL     1       7.769  22.796  55.008  1.00  0.00    -0.024 A 
HETATM   19  C   UNL     1       7.795  22.878  53.599  1.00  0.00    -0.026 A 
HETATM   20  C   UNL     1       7.862  21.537  55.623  1.00  0.00     0.012 A 
HETATM   21  C   UNL     1       7.708  24.137  52.987  1.00  0.00     0.014 A 
HETATM   22  C   UNL     1       7.906  21.700  52.842  1.00  0.00     0.012 A 
HETATM   23  C   UNL     1       7.587  25.297  53.759  1.00  0.00     0.030 A 
HETATM   24  C   UNL     1       7.994  20.455  53.469  1.00  0.00     0.001 A 
HETATM   25  C   UNL     1       7.973  20.374  54.858  1.00  0.00     0.001 A 
ENDBRANCH   2  16
TORSDOF 5
ENDMDL
MODEL 3
REMARK VINA RESULT:      -8.7      1.497      1.921
REMARK  5 active torsions:
REMARK  status: ('A' for Active; 'I' for Inactive)
REMARK    1  A    between atoms: O_2  and  C_3 
REMARK    2  A    between atoms: C_4  and  N_5 
REMARK    3  A    between atoms: N_5  and  C_6 
REMARK    4  A    between atoms: C_6  and  C_7 
REMARK       I    between atoms: C_7  and  N_8 
REMARK    5  A    between atoms: N_8  and  C_9 
ROOT
HETATM    1  C   UNL     1       6.047  27.032  54.276  1.00  0.00     0.235 C 
HETATM    2  N   UNL     1       7.209  26.365  54.629  1.00  0.00    -0.326 N 
HETATM    3  O   UNL     1       5.033  26.528  53.802  1.00  0.00    -0.272 OA
HETATM    4  H   UNL     1       7.867  26.886  55.196  1.00  0.00     0.169 HD
ENDROOT
BRANCH   1   5
HETATM    5  C   UNL     1       6.120  28.543  54.536  1.00  0.00     0.195 C 
BRANCH   5   6
HETATM    6  N   UNL     1       7.385  28.926  55.158  1.00  0.00    -0.282 NA
HETATM    7  H   UNL     1       8.015  29.366  54.480  1.00  0.00     0.128 HD
BRANCH   6   8
HETATM    8  C   UNL     1       7.450  29.613  56.373  1.00  0.00     0.042 A 
HETATM    9  C   UNL     1       8.670  29.640  57.083  1.00  0.00     0.089 A 
HETATM   10  C   UNL     1       8.799  30.290  58.311  1.00  0.00     0.038 A 
HETATM   11  C   UNL     1       7.682  30.868  58.902  1.00  0.00     0.003 A 
HETATM   12  C   UNL     1       6.447  30.789  58.262  1.00  0.00     0.002 A 
HETATM   13  C   UNL     1       6.332  30.156  57.016  1.00  0.00     0.026 A 
BRANCH   9  14
HETATM   14  O   UNL     1       9.802  29.065  56.554  1.00  0.00    -0.354 OA
HETATM   15  C   UNL     1      10.971  29.734  57.037  1.00  0.00     0.210 C 
ENDBRANCH   9  14
ENDBRANCH   6   8
ENDBRANCH   5   6
ENDBRANCH   1   5
BRANCH   2  16
HETATM   16  C   UNL     1       7.550  25.026  54.346  1.00  0.00     0.035 A 
HETATM   17  C   UNL     1       7.614  24.017  55.309  1.00  0.00     0.042 A 
HETATM   18  C   UNL     1       7.909  22.686  54.956  1.00  0.00    -0.024 A 
HETATM   19  C   UNL     1       8.143  22.362  53.602  1.00  0.00    -0.026 A 
HETATM   20  C   UNL     1       7.970  21.669  55.924  1.00  0.00     0.012 A 
HETATM   21  C   UNL     1       8.085  23.379  52.639  1.00  0.00     0.014 A 
HETATM   22  C   UNL     1       8.424  21.031  53.251  1.00  0.00     0.012 A 
HETATM   23  C   UNL     1       7.792  24.696  53.009  1.00  0.00     0.030 A 
HETATM   24  C   UNL     1       8.478  20.032  54.225  1.00  0.00     0.001 A 
HETATM   25  C   UNL     1       8.253  20.351  55.560  1.00  0.00     0.001 A 
ENDBRANCH   2  16
TORSDOF 5
ENDMDL
MODEL 4
REMARK VINA RESULT:      -8.6      5.156      7.912
REMARK  5 active torsions:
REMARK  status: ('A' for Active; 'I' for Inactive)
REMARK    1  A    between atoms: O_2  and  C_3 
REMARK    2  A    between atoms: C_4  and  N_5 
REMARK    3  A    between atoms: N_5  and  C_6 
REMARK    4  A    between atoms: C_6  and  C_7 
REMARK       I    between atoms: C_7  and  N_8 
REMARK    5  A    between atoms: N_8  and  C_9 
ROOT
HETATM    1  C   UNL     1       5.411  25.691  51.854  1.00  0.00     0.235 C 
HETATM    2  N   UNL     1       6.450  25.615  52.768  1.00  0.00    -0.326 N 
HETATM    3  O   UNL     1       4.545  24.842  51.663  1.00  0.00    -0.272 OA
HETATM    4  H   UNL     1       6.948  26.477  52.950  1.00  0.00     0.169 HD
ENDROOT
BRANCH   1   5
HETATM    5  C   UNL     1       5.420  26.995  51.044  1.00  0.00     0.195 C 
BRANCH   5   6
HETATM    6  N   UNL     1       5.523  26.741  49.609  1.00  0.00    -0.282 NA
HETATM    7  H   UNL     1       6.004  25.855  49.421  1.00  0.00     0.128 HD
BRANCH   6   8
HETATM    8  C   UNL     1       4.438  26.880  48.739  1.00  0.00     0.042 A 
HETATM    9  C   UNL     1       4.150  28.152  48.199  1.00  0.00     0.089 A 
HETATM   10  C   UNL     1       3.071  28.366  47.340  1.00  0.00     0.038 A 
HETATM   11  C   UNL     1       2.201  27.320  47.059  1.00  0.00     0.003 A 
HETATM   12  C   UNL     1       2.415  26.071  47.640  1.00  0.00     0.002 A 
HETATM   13  C   UNL     1       3.516  25.860  48.482  1.00  0.00     0.026 A 
BRANCH   9  14
HETATM   14  O   UNL     1       4.967  29.227  48.462  1.00  0.00    -0.354 OA
HETATM   15  C   UNL     1       4.363  30.436  47.990  1.00  0.00     0.210 C 
ENDBRANCH   9  14
ENDBRANCH   6   8
ENDBRANCH   5   6
ENDBRANCH   1   5
BRANCH   2  16
HETATM   16  C   UNL     1       6.848  24.491  53.523  1.00  0.00     0.035 A 
HETATM   17  C   UNL     1       7.356  23.316  52.965  1.00  0.00     0.042 A 
HETATM   18  C   UNL     1       7.786  22.247  53.774  1.00  0.00    -0.024 A 
HETATM   19  C   UNL     1       7.707  22.365  55.179  1.00  0.00    -0.026 A 
HETATM   20  C   UNL     1       8.300  21.066  53.214  1.00  0.00     0.012 A 
HETATM   21  C   UNL     1       7.189  23.543  55.736  1.00  0.00     0.014 A 
HETATM   22  C   UNL     1       8.148  21.303  55.985  1.00  0.00     0.012 A 
HETATM   23  C   UNL     1       6.765  24.593  54.915  1.00  0.00     0.030 A 
HETATM   24  C   UNL     1       8.660  20.137  55.412  1.00  0.00     0.001 A 
HETATM   25  C   UNL     1       8.734  20.018  54.028  1.00  0.00     0.001 A 
ENDBRANCH   2  16
TORSDOF 5
ENDMDL
MODEL 5
REMARK VINA RESULT:      -8.4      4.349      6.349
REMARK  5 active torsions:
REMARK  status: ('A' for Active; 'I' for Inactive)
REMARK    1  A    between atoms: O_2  and  C_3 
REMARK    2  A    between atoms: C_4  and  N_5 
REMARK    3  A    between atoms: N_5  and  C_6 
REMARK    4  A    between atoms: C_6  and  C_7 
REMARK       I    between atoms: C_7  and  N_8 
REMARK    5  A    between atoms: N_8  and  C_9 
ROOT
HETATM    1  C   UNL     1       6.669  27.232  53.603  1.00  0.00     0.235 C 
HETATM    2  N   UNL     1       6.034  26.001  53.608  1.00  0.00    -0.326 N 
HETATM    3  O   UNL     1       7.862  27.438  53.811  1.00  0.00    -0.272 OA
HETATM    4  H   UNL     1       5.101  25.979  53.214  1.00  0.00     0.169 HD
ENDROOT
BRANCH   1   5
HETATM    5  C   UNL     1       5.717  28.397  53.301  1.00  0.00     0.195 C 
BRANCH   5   6
HETATM    6  N   UNL     1       6.098  29.107  52.082  1.00  0.00    -0.282 NA
HETATM    7  H   UNL     1       7.115  29.112  51.956  1.00  0.00     0.128 HD
BRANCH   6   8
HETATM    8  C   UNL     1       5.474  28.881  50.852  1.00  0.00     0.042 A 
HETATM    9  C   UNL     1       5.658  29.812  49.807  1.00  0.00     0.089 A 
HETATM   10  C   UNL     1       5.049  29.659  48.560  1.00  0.00     0.038 A 
HETATM   11  C   UNL     1       4.172  28.602  48.352  1.00  0.00     0.003 A 
HETATM   12  C   UNL     1       3.909  27.710  49.390  1.00  0.00     0.002 A 
HETATM   13  C   UNL     1       4.545  27.859  50.632  1.00  0.00     0.026 A 
BRANCH   9  14
HETATM   14  O   UNL     1       6.500  30.889  49.966  1.00  0.00    -0.354 OA
HETATM   15  C   UNL     1       5.987  32.028  49.270  1.00  0.00     0.210 C 
ENDBRANCH   9  14
ENDBRANCH   6   8
ENDBRANCH   5   6
ENDBRANCH   1   5
BRANCH   2  16
HETATM   16  C   UNL     1       6.561  24.765  54.036  1.00  0.00     0.035 A 
HETATM   17  C   UNL     1       6.992  23.758  53.169  1.00  0.00     0.042 A 
HETATM   18  C   UNL     1       7.559  22.565  53.657  1.00  0.00    -0.024 A 
HETATM   19  C   UNL     1       7.699  22.382  55.050  1.00  0.00    -0.026 A 
HETATM   20  C   UNL     1       7.996  21.553  52.786  1.00  0.00     0.012 A 
HETATM   21  C   UNL     1       7.258  23.391  55.917  1.00  0.00     0.014 A 
HETATM   22  C   UNL     1       8.276  21.196  55.534  1.00  0.00     0.012 A 
HETATM   23  C   UNL     1       6.696  24.568  55.414  1.00  0.00     0.030 A 
HETATM   24  C   UNL     1       8.708  20.202  54.654  1.00  0.00     0.001 A 
HETATM   25  C   UNL     1       8.567  20.380  53.282  1.00  0.00     0.001 A 
ENDBRANCH   2  16
TORSDOF 5
ENDMDL
MODEL 6
REMARK VINA RESULT:      -8.2      1.869      2.607
REMARK  5 active torsions:
REMARK  status: ('A' for Active; 'I' for Inactive)
REMARK    1  A    between atoms: O_2  and  C_3 
REMARK    2  A    between atoms: C_4  and  N_5 
REMARK    3  A    between atoms: N_5  and  C_6 
REMARK    4  A    between atoms: C_6  and  C_7 
REMARK       I    between atoms: C_7  and  N_8 
REMARK    5  A    between atoms: N_8  and  C_9 
ROOT
HETATM    1  C   UNL     1       6.213  27.171  55.381  1.00  0.00     0.235 C 
HETATM    2  N   UNL     1       7.273  26.669  54.643  1.00  0.00    -0.326 N 
HETATM    3  O   UNL     1       5.389  26.513  56.013  1.00  0.00    -0.272 OA
HETATM    4  H   UNL     1       7.975  27.341  54.359  1.00  0.00     0.169 HD
ENDROOT
BRANCH   1   5
HETATM    5  C   UNL     1       6.133  28.703  55.352  1.00  0.00     0.195 C 
BRANCH   5   6
HETATM    6  N   UNL     1       5.539  29.238  56.575  1.00  0.00    -0.282 NA
HETATM    7  H   UNL     1       4.880  28.573  56.992  1.00  0.00     0.128 HD
BRANCH   6   8
HETATM    8  C   UNL     1       6.300  29.839  57.582  1.00  0.00     0.042 A 
HETATM    9  C   UNL     1       5.920  31.110  58.065  1.00  0.00     0.089 A 
HETATM   10  C   UNL     1       6.645  31.775  59.054  1.00  0.00     0.038 A 
HETATM   11  C   UNL     1       7.823  31.214  59.535  1.00  0.00     0.003 A 
HETATM   12  C   UNL     1       8.265  29.997  59.020  1.00  0.00     0.002 A 
HETATM   13  C   UNL     1       7.516  29.324  58.044  1.00  0.00     0.026 A 
BRANCH   9  14
HETATM   14  O   UNL     1       4.774  31.720  57.609  1.00  0.00    -0.354 OA
HETATM   15  C   UNL     1       3.832  31.868  58.675  1.00  0.00     0.210 C 
ENDBRANCH   9  14
ENDBRANCH   6   8
ENDBRANCH   5   6
ENDBRANCH   1   5
BRANCH   2  16
HETATM   16  C   UNL     1       7.519  25.324  54.300  1.00  0.00     0.035 A 
HETATM   17  C   UNL     1       7.553  24.276  55.224  1.00  0.00     0.042 A 
HETATM   18  C   UNL     1       7.752  22.944  54.813  1.00  0.00    -0.024 A 
HETATM   19  C   UNL     1       7.919  22.659  53.440  1.00  0.00    -0.026 A 
HETATM   20  C   UNL     1       7.783  21.890  55.740  1.00  0.00     0.012 A 
HETATM   21  C   UNL     1       7.893  23.713  52.517  1.00  0.00     0.014 A 
HETATM   22  C   UNL     1       8.106  21.328  53.031  1.00  0.00     0.012 A 
HETATM   23  C   UNL     1       7.695  25.030  52.944  1.00  0.00     0.030 A 
HETATM   24  C   UNL     1       8.130  20.291  53.966  1.00  0.00     0.001 A 
HETATM   25  C   UNL     1       7.970  20.572  55.319  1.00  0.00     0.001 A 
ENDBRANCH   2  16
TORSDOF 5
ENDMDL
MODEL 7
REMARK VINA RESULT:      -8.1      2.356      3.407
REMARK  5 active torsions:
REMARK  status: ('A' for Active; 'I' for Inactive)
REMARK    1  A    between atoms: O_2  and  C_3 
REMARK    2  A    between atoms: C_4  and  N_5 
REMARK    3  A    between atoms: N_5  and  C_6 
REMARK    4  A    between atoms: C_6  and  C_7 
REMARK       I    between atoms: C_7  and  N_8 
REMARK    5  A    between atoms: N_8  and  C_9 
ROOT
HETATM    1  C   UNL     1       6.952  26.492  52.950  1.00  0.00     0.235 C 
HETATM    2  N   UNL     1       6.266  25.510  53.647  1.00  0.00    -0.326 N 
HETATM    3  O   UNL     1       8.086  26.399  52.487  1.00  0.00    -0.272 OA
HETATM    4  H   UNL     1       5.274  25.666  53.776  1.00  0.00     0.169 HD
ENDROOT
BRANCH   1   5
HETATM    5  C   UNL     1       6.146  27.787  52.788  1.00  0.00     0.195 C 
BRANCH   5   6
HETATM    6  N   UNL     1       6.621  28.838  53.685  1.00  0.00    -0.282 NA
HETATM    7  H   UNL     1       6.154  29.729  53.496  1.00  0.00     0.128 HD
BRANCH   6   8
HETATM    8  C   UNL     1       6.740  28.653  55.066  1.00  0.00     0.042 A 
HETATM    9  C   UNL     1       8.012  28.761  55.667  1.00  0.00     0.089 A 
HETATM   10  C   UNL     1       8.205  28.570  57.036  1.00  0.00     0.038 A 
HETATM   11  C   UNL     1       7.133  28.186  57.832  1.00  0.00     0.003 A 
HETATM   12  C   UNL     1       5.880  27.995  57.253  1.00  0.00     0.002 A 
HETATM   13  C   UNL     1       5.691  28.214  55.881  1.00  0.00     0.026 A 
BRANCH   9  14
HETATM   14  O   UNL     1       9.112  29.118  54.921  1.00  0.00    -0.354 OA
HETATM   15  C   UNL     1      10.144  29.628  55.771  1.00  0.00     0.210 C 
ENDBRANCH   9  14
ENDBRANCH   6   8
ENDBRANCH   5   6
ENDBRANCH   1   5
BRANCH   2  16
HETATM   16  C   UNL     1       6.776  24.289  54.137  1.00  0.00     0.035 A 
HETATM   17  C   UNL     1       7.244  23.256  53.322  1.00  0.00     0.042 A 
HETATM   18  C   UNL     1       7.791  22.081  53.872  1.00  0.00    -0.024 A 
HETATM   19  C   UNL     1       7.871  21.943  55.275  1.00  0.00    -0.026 A 
HETATM   20  C   UNL     1       8.265  21.042  53.054  1.00  0.00     0.012 A 
HETATM   21  C   UNL     1       7.393  22.979  56.090  1.00  0.00     0.014 A 
HETATM   22  C   UNL     1       8.428  20.775  55.822  1.00  0.00     0.012 A 
HETATM   23  C   UNL     1       6.851  24.138  55.525  1.00  0.00     0.030 A 
HETATM   24  C   UNL     1       8.898  19.754  54.994  1.00  0.00     0.001 A 
HETATM   25  C   UNL     1       8.815  19.887  53.611  1.00  0.00     0.001 A 
ENDBRANCH   2  16
TORSDOF 5
ENDMDL
MODEL 8
REMARK VINA RESULT:      -8.1      3.962      6.039
REMARK  5 active torsions:
REMARK  status: ('A' for Active; 'I' for Inactive)
REMARK    1  A    between atoms: O_2  and  C_3 
REMARK    2  A    between atoms: C_4  and  N_5 
REMARK    3  A    between atoms: N_5  and  C_6 
REMARK    4  A    between atoms: C_6  and  C_7 
REMARK       I    between atoms: C_7  and  N_8 
REMARK    5  A    between atoms: N_8  and  C_9 
ROOT
HETATM    1  C   UNL     1       6.532  27.277  54.062  1.00  0.00     0.235 C 
HETATM    2  N   UNL     1       5.905  26.051  54.219  1.00  0.00    -0.326 N 
HETATM    3  O   UNL     1       7.741  27.469  53.962  1.00  0.00    -0.272 OA
HETATM    4  H   UNL     1       4.903  26.041  54.075  1.00  0.00     0.169 HD
ENDROOT
BRANCH   1   5
HETATM    5  C   UNL     1       5.547  28.453  54.020  1.00  0.00     0.195 C 
BRANCH   5   6
HETATM    6  N   UNL     1       5.574  29.137  52.730  1.00  0.00    -0.282 NA
HETATM    7  H   UNL     1       6.452  28.960  52.232  1.00  0.00     0.128 HD
BRANCH   6   8
HETATM    8  C   UNL     1       4.506  29.090  51.830  1.00  0.00     0.042 A 
HETATM    9  C   UNL     1       4.567  28.197  50.738  1.00  0.00     0.089 A 
HETATM   10  C   UNL     1       3.545  28.112  49.791  1.00  0.00     0.038 A 
HETATM   11  C   UNL     1       2.463  28.980  49.871  1.00  0.00     0.003 A 
HETATM   12  C   UNL     1       2.413  29.926  50.894  1.00  0.00     0.002 A 
HETATM   13  C   UNL     1       3.433  29.987  51.854  1.00  0.00     0.026 A 
BRANCH   9  14
HETATM   14  O   UNL     1       5.626  27.330  50.599  1.00  0.00    -0.354 OA
HETATM   15  C   UNL     1       5.185  25.978  50.762  1.00  0.00     0.210 C 
ENDBRANCH   9  14
ENDBRANCH   6   8
ENDBRANCH   5   6
ENDBRANCH   1   5
BRANCH   2  16
HETATM   16  C   UNL     1       6.510  24.806  54.490  1.00  0.00     0.035 A 
HETATM   17  C   UNL     1       6.845  23.871  53.507  1.00  0.00     0.042 A 
HETATM   18  C   UNL     1       7.496  22.666  53.834  1.00  0.00    -0.024 A 
HETATM   19  C   UNL     1       7.820  22.397  55.182  1.00  0.00    -0.026 A 
HETATM   20  C   UNL     1       7.836  21.727  52.847  1.00  0.00     0.012 A 
HETATM   21  C   UNL     1       7.476  23.333  56.166  1.00  0.00     0.014 A 
HETATM   22  C   UNL     1       8.481  21.200  55.505  1.00  0.00     0.012 A 
HETATM   23  C   UNL     1       6.828  24.524  55.822  1.00  0.00     0.030 A 
HETATM   24  C   UNL     1       8.815  20.278  54.510  1.00  0.00     0.001 A 
HETATM   25  C   UNL     1       8.491  20.541  53.183  1.00  0.00     0.001 A 
ENDBRANCH   2  16
TORSDOF 5
ENDMDL
MODEL 9
REMARK VINA RESULT:      -8.0      4.725      6.864
REMARK  5 active torsions:
REMARK  status: ('A' for Active; 'I' for Inactive)
REMARK    1  A    between atoms: O_2  and  C_3 
REMARK    2  A    between atoms: C_4  and  N_5 
REMARK    3  A    between atoms: N_5  and  C_6 
REMARK    4  A    between atoms: C_6  and  C_7 
REMARK       I    between atoms: C_7  and  N_8 
REMARK    5  A    between atoms: N_8  and  C_9 
ROOT
HETATM    1  C   UNL     1       4.577  27.765  53.045  1.00  0.00     0.235 C 
HETATM    2  N   UNL     1       4.407  26.397  53.183  1.00  0.00    -0.326 N 
HETATM    3  O   UNL     1       5.614  28.394  53.240  1.00  0.00    -0.272 OA
HETATM    4  H   UNL     1       3.561  26.010  52.785  1.00  0.00     0.169 HD
ENDROOT
BRANCH   1   5
HETATM    5  C   UNL     1       3.297  28.487  52.603  1.00  0.00     0.195 C 
BRANCH   5   6
HETATM    6  N   UNL     1       3.513  29.287  51.400  1.00  0.00    -0.282 NA
HETATM    7  H   UNL     1       4.056  30.131  51.606  1.00  0.00     0.128 HD
BRANCH   6   8
HETATM    8  C   UNL     1       3.948  28.731  50.193  1.00  0.00     0.042 A 
HETATM    9  C   UNL     1       5.187  29.142  49.655  1.00  0.00     0.089 A 
HETATM   10  C   UNL     1       5.673  28.642  48.446  1.00  0.00     0.038 A 
HETATM   11  C   UNL     1       4.889  27.769  47.701  1.00  0.00     0.003 A 
HETATM   12  C   UNL     1       3.628  27.406  48.169  1.00  0.00     0.002 A 
HETATM   13  C   UNL     1       3.159  27.894  49.397  1.00  0.00     0.026 A 
BRANCH   9  14
HETATM   14  O   UNL     1       5.993  30.020  50.342  1.00  0.00    -0.354 OA
HETATM   15  C   UNL     1       5.913  31.325  49.762  1.00  0.00     0.210 C 
ENDBRANCH   9  14
ENDBRANCH   6   8
ENDBRANCH   5   6
ENDBRANCH   1   5
BRANCH   2  16
HETATM   16  C   UNL     1       5.309  25.473  53.753  1.00  0.00     0.035 A 
HETATM   17  C   UNL     1       6.069  24.565  53.012  1.00  0.00     0.042 A 
HETATM   18  C   UNL     1       6.991  23.703  53.635  1.00  0.00    -0.024 A 
HETATM   19  C   UNL     1       7.155  23.757  55.036  1.00  0.00    -0.026 A 
HETATM   20  C   UNL     1       7.758  22.792  52.891  1.00  0.00     0.012 A 
HETATM   21  C   UNL     1       6.385  24.664  55.777  1.00  0.00     0.014 A 
HETATM   22  C   UNL     1       8.085  22.905  55.655  1.00  0.00     0.012 A 
HETATM   23  C   UNL     1       5.472  25.512  55.141  1.00  0.00     0.030 A 
HETATM   24  C   UNL     1       8.842  22.008  54.899  1.00  0.00     0.001 A 
HETATM   25  C   UNL     1       8.678  21.950  53.519  1.00  0.00     0.001 A 
ENDBRANCH   2  16
TORSDOF 5
ENDMDL
MODEL 10
REMARK VINA RESULT:      -8.0      2.356      3.587
REMARK  5 active torsions:
REMARK  status: ('A' for Active; 'I' for Inactive)
REMARK    1  A    between atoms: O_2  and  C_3 
REMARK    2  A    between atoms: C_4  and  N_5 
REMARK    3  A    between atoms: N_5  and  C_6 
REMARK    4  A    between atoms: C_6  and  C_7 
REMARK       I    between atoms: C_7  and  N_8 
REMARK    5  A    between atoms: N_8  and  C_9 
ROOT
HETATM    1  C   UNL     1       6.923  26.551  53.035  1.00  0.00     0.235 C 
HETATM    2  N   UNL     1       6.327  25.407  53.544  1.00  0.00    -0.326 N 
HETATM    3  O   UNL     1       8.067  26.643  52.598  1.00  0.00    -0.272 OA
HETATM    4  H   UNL     1       5.323  25.445  53.664  1.00  0.00     0.169 HD
ENDROOT
BRANCH   1   5
HETATM    5  C   UNL     1       5.994  27.772  53.058  1.00  0.00     0.195 C 
BRANCH   5   6
HETATM    6  N   UNL     1       6.476  28.803  53.974  1.00  0.00    -0.282 NA
HETATM    7  H   UNL     1       5.754  29.507  54.155  1.00  0.00     0.128 HD
BRANCH   6   8
HETATM    8  C   UNL     1       7.147  28.501  55.162  1.00  0.00     0.042 A 
HETATM    9  C   UNL     1       6.465  27.794  56.175  1.00  0.00     0.089 A 
HETATM   10  C   UNL     1       7.068  27.476  57.393  1.00  0.00     0.038 A 
HETATM   11  C   UNL     1       8.353  27.930  57.660  1.00  0.00     0.003 A 
HETATM   12  C   UNL     1       9.023  28.698  56.710  1.00  0.00     0.002 A 
HETATM   13  C   UNL     1       8.419  28.991  55.479  1.00  0.00     0.026 A 
BRANCH   9  14
HETATM   14  O   UNL     1       5.182  27.338  55.972  1.00  0.00    -0.354 OA
HETATM   15  C   UNL     1       4.921  26.201  56.799  1.00  0.00     0.210 C 
ENDBRANCH   9  14
ENDBRANCH   6   8
ENDBRANCH   5   6
ENDBRANCH   1   5
BRANCH   2  16
HETATM   16  C   UNL     1       6.949  24.178  53.847  1.00  0.00     0.035 A 
HETATM   17  C   UNL     1       7.217  23.739  55.146  1.00  0.00     0.042 A 
HETATM   18  C   UNL     1       7.793  22.477  55.388  1.00  0.00    -0.024 A 
HETATM   19  C   UNL     1       8.104  21.636  54.297  1.00  0.00    -0.026 A 
HETATM   20  C   UNL     1       8.060  22.033  56.693  1.00  0.00     0.012 A 
HETATM   21  C   UNL     1       7.841  22.083  52.995  1.00  0.00     0.014 A 
HETATM   22  C   UNL     1       8.667  20.372  54.541  1.00  0.00     0.012 A 
HETATM   23  C   UNL     1       7.270  23.341  52.775  1.00  0.00     0.030 A 
HETATM   24  C   UNL     1       8.923  19.945  55.846  1.00  0.00     0.001 A 
HETATM   25  C   UNL     1       8.621  20.775  56.920  1.00  0.00     0.001 A 
ENDBRANCH   2  16
TORSDOF 5
ENDMDL
