MODEL 1
REMARK VINA RESULT:      -9.8      0.000      0.000
REMARK  6 active torsions:
REMARK  status: ('A' for Active; 'I' for Inactive)
REMARK    1  A    between atoms: C_2  and  C_3 
REMARK    2  A    between atoms: C_3  and  C_4 
REMARK    3  A    between atoms: C_3  and  C_10 
REMARK    4  A    between atoms: C_10  and  C_11 
REMARK       I    between atoms: C_11  and  N_12 
REMARK    5  A    between atoms: N_12  and  C_13 
REMARK    6  A    between atoms: C_20  and  C_21 
REMARK       I    between atoms: C_21  and  N_22 
ROOT
HETATM    1  C   UNL     1       8.295  28.196  57.234  1.00  0.00     0.035 A 
HETATM    2  C   UNL     1       7.765  29.127  58.139  1.00  0.00     0.046 A 
HETATM    3  C   UNL     1       8.514  30.277  58.474  1.00  0.00     0.030 A 
HETATM    4  C   UNL     1       9.766  30.454  57.899  1.00  0.00     0.063 A 
HETATM    5  N   UNL     1      10.240  31.627  58.414  1.00  0.00    -0.277 N 
HETATM    6  H   UNL     1      11.133  32.067  58.219  1.00  0.00     0.189 HD
HETATM    7  N   UNL     1       9.403  32.240  59.267  1.00  0.00    -0.168 NA
HETATM    8  C   UNL     1       8.329  31.419  59.313  1.00  0.00     0.156 A 
HETATM    9  C   UNL     1      10.323  29.551  56.992  1.00  0.00     0.034 A 
HETATM   10  C   UNL     1       9.558  28.423  56.670  1.00  0.00     0.032 A 
ENDROOT
BRANCH   1  11
HETATM   11  N   UNL     1       7.627  27.018  56.836  1.00  0.00    -0.327 N 
HETATM   12  C   UNL     1       7.785  25.738  57.351  1.00  0.00     0.222 C 
HETATM   13  O   UNL     1       8.557  25.405  58.239  1.00  0.00    -0.273 OA
HETATM   14  H   UNL     1       7.000  27.111  56.048  1.00  0.00     0.169 HD
BRANCH  12  15
HETATM   15  C   UNL     1       6.867  24.747  56.646  1.00  0.00     0.113 C 
BRANCH  15  16
HETATM   16  C   UNL     1       7.536  24.010  55.463  1.00  0.00     0.030 C 
BRANCH  16  17
HETATM   17  C   UNL     1       7.499  22.455  55.597  1.00  0.00    -0.014 C 
HETATM   18  C   UNL     1       8.383  21.965  56.752  1.00  0.00     0.010 C 
HETATM   19  C   UNL     1       7.852  21.680  54.324  1.00  0.00     0.010 C 
ENDBRANCH  16  17
BRANCH  16  20
HETATM   20  C   UNL     1       6.993  24.524  54.129  1.00  0.00    -0.053 A 
HETATM   21  C   UNL     1       7.831  24.829  53.045  1.00  0.00     0.007 A 
HETATM   22  C   UNL     1       7.301  25.287  51.837  1.00  0.00     0.001 A 
HETATM   23  C   UNL     1       5.924  25.445  51.694  1.00  0.00     0.000 A 
HETATM   24  C   UNL     1       5.079  25.148  52.759  1.00  0.00     0.001 A 
HETATM   25  C   UNL     1       5.608  24.690  53.967  1.00  0.00     0.007 A 
ENDBRANCH  16  20
ENDBRANCH  15  16
ENDBRANCH  12  15
ENDBRANCH   1  11
BRANCH   8  26
HETATM   26  C   UNL     1       7.161  31.743  60.145  1.00  0.00     0.270 C 
HETATM   27  N   UNL     1       7.170  31.145  61.376  1.00  0.00    -0.365 N 
HETATM   28  H   UNL     1       7.952  30.551  61.620  1.00  0.00     0.159 HD
HETATM   29  H   UNL     1       6.413  31.317  62.018  1.00  0.00     0.159 HD
HETATM   30  O   UNL     1       6.243  32.482  59.806  1.00  0.00    -0.266 OA
ENDBRANCH   8  26
TORSDOF 6
ENDMDL
MODEL 2
REMARK VINA RESULT:      -9.7      1.838      3.616
REMARK  6 active torsions:
REMARK  status: ('A' for Active; 'I' for Inactive)
REMARK    1  A    between atoms: C_2  and  C_3 
REMARK    2  A    between atoms: C_3  and  C_4 
REMARK    3  A    between atoms: C_3  and  C_10 
REMARK    4  A    between atoms: C_10  and  C_11 
REMARK       I    between atoms: C_11  and  N_12 
REMARK    5  A    between atoms: N_12  and  C_13 
REMARK    6  A    between atoms: C_20  and  C_21 
REMARK       I    between atoms: C_21  and  N_22 
ROOT
HETATM    1  C   UNL     1       6.969  28.282  56.415  1.00  0.00     0.035 A 
HETATM    2  C   UNL     1       7.806  29.122  57.163  1.00  0.00     0.046 A 
HETATM    3  C   UNL     1       7.249  30.210  57.872  1.00  0.00     0.030 A 
HETATM    4  C   UNL     1       5.879  30.425  57.803  1.00  0.00     0.063 A 
HETATM    5  N   UNL     1       5.646  31.534  58.566  1.00  0.00    -0.277 N 
HETATM    6  H   UNL     1       4.753  31.984  58.739  1.00  0.00     0.189 HD
HETATM    7  N   UNL     1       6.742  32.057  59.138  1.00  0.00    -0.168 NA
HETATM    8  C   UNL     1       7.743  31.248  58.721  1.00  0.00     0.156 A 
HETATM    9  C   UNL     1       5.015  29.608  57.072  1.00  0.00     0.034 A 
HETATM   10  C   UNL     1       5.589  28.531  56.386  1.00  0.00     0.032 A 
ENDROOT
BRANCH   1  11
HETATM   11  N   UNL     1       7.427  27.172  55.675  1.00  0.00    -0.327 N 
HETATM   12  C   UNL     1       7.265  25.826  55.976  1.00  0.00     0.222 C 
HETATM   13  O   UNL     1       6.705  25.367  56.962  1.00  0.00    -0.273 OA
HETATM   14  H   UNL     1       7.984  27.385  54.858  1.00  0.00     0.169 HD
BRANCH  12  15
HETATM   15  C   UNL     1       7.905  24.945  54.910  1.00  0.00     0.113 C 
BRANCH  15  16
HETATM   16  C   UNL     1       6.935  23.914  54.289  1.00  0.00     0.030 C 
BRANCH  16  17
HETATM   17  C   UNL     1       6.397  24.333  52.884  1.00  0.00    -0.014 C 
HETATM   18  C   UNL     1       7.367  25.280  52.165  1.00  0.00     0.010 C 
HETATM   19  C   UNL     1       4.993  24.944  52.877  1.00  0.00     0.010 C 
ENDBRANCH  16  17
BRANCH  16  20
HETATM   20  C   UNL     1       7.544  22.512  54.318  1.00  0.00    -0.053 A 
HETATM   21  C   UNL     1       7.907  21.826  53.148  1.00  0.00     0.007 A 
HETATM   22  C   UNL     1       8.470  20.550  53.213  1.00  0.00     0.001 A 
HETATM   23  C   UNL     1       8.680  19.940  54.447  1.00  0.00     0.000 A 
HETATM   24  C   UNL     1       8.325  20.605  55.617  1.00  0.00     0.001 A 
HETATM   25  C   UNL     1       7.761  21.881  55.554  1.00  0.00     0.007 A 
ENDBRANCH  16  20
ENDBRANCH  15  16
ENDBRANCH  12  15
ENDBRANCH   1  11
BRANCH   8  26
HETATM   26  C   UNL     1       9.132  31.479  59.143  1.00  0.00     0.270 C 
HETATM   27  N   UNL     1       9.489  30.804  60.279  1.00  0.00    -0.365 N 
HETATM   28  H   UNL     1       8.801  30.211  60.727  1.00  0.00     0.159 HD
HETATM   29  H   UNL     1      10.426  30.895  60.638  1.00  0.00     0.159 HD
HETATM   30  O   UNL     1       9.932  32.199  58.556  1.00  0.00    -0.266 OA
ENDBRANCH   8  26
TORSDOF 6
ENDMDL
MODEL 3
REMARK VINA RESULT:      -9.4      1.312      2.723
REMARK  6 active torsions:
REMARK  status: ('A' for Active; 'I' for Inactive)
REMARK    1  A    between atoms: C_2  and  C_3 
REMARK    2  A    between atoms: C_3  and  C_4 
REMARK    3  A    between atoms: C_3  and  C_10 
REMARK    4  A    between atoms: C_10  and  C_11 
REMARK       I    between atoms: C_11  and  N_12 
REMARK    5  A    between atoms: N_12  and  C_13 
REMARK    6  A    between atoms: C_20  and  C_21 
REMARK       I    between atoms: C_21  and  N_22 
ROOT
HETATM    1  C   UNL     1       8.322  28.285  57.464  1.00  0.00     0.035 A 
HETATM    2  C   UNL     1       7.823  29.195  58.406  1.00  0.00     0.046 A 
HETATM    3  C   UNL     1       8.542  30.381  58.679  1.00  0.00     0.030 A 
HETATM    4  C   UNL     1       9.734  30.612  58.007  1.00  0.00     0.063 A 
HETATM    5  N   UNL     1      10.193  31.808  58.481  1.00  0.00    -0.277 N 
HETATM    6  H   UNL     1      11.046  32.288  58.214  1.00  0.00     0.189 HD
HETATM    7  N   UNL     1       9.399  32.387  59.396  1.00  0.00    -0.168 NA
HETATM    8  C   UNL     1       8.371  31.517  59.528  1.00  0.00     0.156 A 
HETATM    9  C   UNL     1      10.259  29.732  57.059  1.00  0.00     0.034 A 
HETATM   10  C   UNL     1       9.524  28.568  56.800  1.00  0.00     0.032 A 
ENDROOT
BRANCH   1  11
HETATM   11  N   UNL     1       7.680  27.076  57.122  1.00  0.00    -0.327 N 
HETATM   12  C   UNL     1       6.326  26.868  56.898  1.00  0.00     0.222 C 
HETATM   13  O   UNL     1       5.440  27.709  56.980  1.00  0.00    -0.273 OA
HETATM   14  H   UNL     1       8.271  26.256  57.090  1.00  0.00     0.169 HD
BRANCH  12  15
HETATM   15  C   UNL     1       6.046  25.413  56.544  1.00  0.00     0.113 C 
BRANCH  15  16
HETATM   16  C   UNL     1       6.014  25.136  55.023  1.00  0.00     0.030 C 
BRANCH  16  17
HETATM   17  C   UNL     1       6.108  26.430  54.153  1.00  0.00    -0.014 C 
HETATM   18  C   UNL     1       5.022  26.463  53.069  1.00  0.00     0.010 C 
HETATM   19  C   UNL     1       7.474  26.688  53.512  1.00  0.00     0.010 C 
ENDBRANCH  16  17
BRANCH  16  20
HETATM   20  C   UNL     1       7.039  24.067  54.645  1.00  0.00    -0.053 A 
HETATM   21  C   UNL     1       7.001  23.392  53.415  1.00  0.00     0.007 A 
HETATM   22  C   UNL     1       7.960  22.427  53.099  1.00  0.00     0.001 A 
HETATM   23  C   UNL     1       8.972  22.124  54.007  1.00  0.00     0.000 A 
HETATM   24  C   UNL     1       9.024  22.783  55.232  1.00  0.00     0.001 A 
HETATM   25  C   UNL     1       8.065  23.747  55.549  1.00  0.00     0.007 A 
ENDBRANCH  16  20
ENDBRANCH  15  16
ENDBRANCH  12  15
ENDBRANCH   1  11
BRANCH   8  26
HETATM   26  C   UNL     1       7.259  31.792  60.449  1.00  0.00     0.270 C 
HETATM   27  N   UNL     1       7.308  31.073  61.613  1.00  0.00    -0.365 N 
HETATM   28  H   UNL     1       8.081  30.434  61.756  1.00  0.00     0.159 HD
HETATM   29  H   UNL     1       6.592  31.203  62.310  1.00  0.00     0.159 HD
HETATM   30  O   UNL     1       6.352  32.588  60.235  1.00  0.00    -0.266 OA
ENDBRANCH   8  26
TORSDOF 6
ENDMDL
MODEL 4
REMARK VINA RESULT:      -9.2      2.000      3.492
REMARK  6 active torsions:
REMARK  status: ('A' for Active; 'I' for Inactive)
REMARK    1  A    between atoms: C_2  and  C_3 
REMARK    2  A    between atoms: C_3  and  C_4 
REMARK    3  A    between atoms: C_3  and  C_10 
REMARK    4  A    between atoms: C_10  and  C_11 
REMARK       I    between atoms: C_11  and  N_12 
REMARK    5  A    between atoms: N_12  and  C_13 
REMARK    6  A    between atoms: C_20  and  C_21 
REMARK       I    between atoms: C_21  and  N_22 
ROOT
HETATM    1  C   UNL     1       7.804  28.433  56.494  1.00  0.00     0.035 A 
HETATM    2  C   UNL     1       6.581  29.060  56.768  1.00  0.00     0.046 A 
HETATM    3  C   UNL     1       6.535  30.123  57.699  1.00  0.00     0.030 A 
HETATM    4  C   UNL     1       7.710  30.516  58.326  1.00  0.00     0.063 A 
HETATM    5  N   UNL     1       7.353  31.537  59.161  1.00  0.00    -0.277 N 
HETATM    6  H   UNL     1       7.958  32.064  59.781  1.00  0.00     0.189 HD
HETATM    7  N   UNL     1       6.048  31.854  59.126  1.00  0.00    -0.168 NA
HETATM    8  C   UNL     1       5.529  30.990  58.224  1.00  0.00     0.156 A 
HETATM    9  C   UNL     1       8.946  29.918  58.075  1.00  0.00     0.034 A 
HETATM   10  C   UNL     1       8.967  28.873  57.142  1.00  0.00     0.032 A 
ENDROOT
BRANCH   1  11
HETATM   11  N   UNL     1       7.954  27.365  55.583  1.00  0.00    -0.327 N 
HETATM   12  C   UNL     1       7.549  26.048  55.747  1.00  0.00     0.222 C 
HETATM   13  O   UNL     1       7.002  25.575  56.734  1.00  0.00    -0.273 OA
HETATM   14  H   UNL     1       8.464  27.576  54.736  1.00  0.00     0.169 HD
BRANCH  12  15
HETATM   15  C   UNL     1       7.893  25.212  54.520  1.00  0.00     0.113 C 
BRANCH  15  16
HETATM   16  C   UNL     1       6.821  24.156  54.164  1.00  0.00     0.030 C 
BRANCH  16  17
HETATM   17  C   UNL     1       6.082  24.448  52.819  1.00  0.00    -0.014 C 
HETATM   18  C   UNL     1       6.884  25.405  51.928  1.00  0.00     0.010 C 
HETATM   19  C   UNL     1       4.648  24.966  52.960  1.00  0.00     0.010 C 
ENDBRANCH  16  17
BRANCH  16  20
HETATM   20  C   UNL     1       7.402  22.745  54.251  1.00  0.00    -0.053 A 
HETATM   21  C   UNL     1       7.777  22.016  53.112  1.00  0.00     0.007 A 
HETATM   22  C   UNL     1       8.314  20.732  53.229  1.00  0.00     0.001 A 
HETATM   23  C   UNL     1       8.485  20.158  54.486  1.00  0.00     0.000 A 
HETATM   24  C   UNL     1       8.118  20.866  55.626  1.00  0.00     0.001 A 
HETATM   25  C   UNL     1       7.581  22.150  55.511  1.00  0.00     0.007 A 
ENDBRANCH  16  20
ENDBRANCH  15  16
ENDBRANCH  12  15
ENDBRANCH   1  11
BRANCH   8  26
HETATM   26  C   UNL     1       4.099  31.016  57.885  1.00  0.00     0.270 C 
HETATM   27  N   UNL     1       3.298  30.386  58.799  1.00  0.00    -0.365 N 
HETATM   28  H   UNL     1       3.728  29.970  59.615  1.00  0.00     0.159 HD
HETATM   29  H   UNL     1       2.301  30.362  58.655  1.00  0.00     0.159 HD
HETATM   30  O   UNL     1       3.625  31.547  56.887  1.00  0.00    -0.266 OA
ENDBRANCH   8  26
TORSDOF 6
ENDMDL
MODEL 5
REMARK VINA RESULT:      -8.9      5.209      7.937
REMARK  6 active torsions:
REMARK  status: ('A' for Active; 'I' for Inactive)
REMARK    1  A    between atoms: C_2  and  C_3 
REMARK    2  A    between atoms: C_3  and  C_4 
REMARK    3  A    between atoms: C_3  and  C_10 
REMARK    4  A    between atoms: C_10  and  C_11 
REMARK       I    between atoms: C_11  and  N_12 
REMARK    5  A    between atoms: N_12  and  C_13 
REMARK    6  A    between atoms: C_20  and  C_21 
REMARK       I    between atoms: C_21  and  N_22 
ROOT
HETATM    1  C   UNL     1       5.537  25.918  51.847  1.00  0.00     0.035 A 
HETATM    2  C   UNL     1       5.222  26.244  50.520  1.00  0.00     0.046 A 
HETATM    3  C   UNL     1       4.410  27.370  50.252  1.00  0.00     0.030 A 
HETATM    4  C   UNL     1       3.938  28.126  51.318  1.00  0.00     0.063 A 
HETATM    5  N   UNL     1       3.189  29.120  50.756  1.00  0.00    -0.277 N 
HETATM    6  H   UNL     1       2.687  29.857  51.237  1.00  0.00     0.189 HD
HETATM    7  N   UNL     1       3.140  29.089  49.414  1.00  0.00    -0.168 NA
HETATM    8  C   UNL     1       3.892  28.014  49.087  1.00  0.00     0.156 A 
HETATM    9  C   UNL     1       4.235  27.834  52.650  1.00  0.00     0.034 A 
HETATM   10  C   UNL     1       5.048  26.718  52.889  1.00  0.00     0.032 A 
ENDROOT
BRANCH   1  11
HETATM   11  N   UNL     1       6.337  24.817  52.217  1.00  0.00    -0.327 N 
HETATM   12  C   UNL     1       7.652  24.835  52.661  1.00  0.00     0.222 C 
HETATM   13  O   UNL     1       8.360  25.825  52.790  1.00  0.00    -0.273 OA
HETATM   14  H   UNL     1       5.919  23.905  52.092  1.00  0.00     0.169 HD
BRANCH  12  15
HETATM   15  C   UNL     1       8.148  23.427  52.964  1.00  0.00     0.113 C 
BRANCH  15  16
HETATM   16  C   UNL     1       7.508  22.797  54.222  1.00  0.00     0.030 C 
BRANCH  16  17
HETATM   17  C   UNL     1       8.033  21.360  54.535  1.00  0.00    -0.014 C 
HETATM   18  C   UNL     1       7.966  20.451  53.301  1.00  0.00     0.010 C 
HETATM   19  C   UNL     1       7.357  20.660  55.718  1.00  0.00     0.010 C 
ENDBRANCH  16  17
BRANCH  16  20
HETATM   20  C   UNL     1       7.597  23.754  55.411  1.00  0.00    -0.053 A 
HETATM   21  C   UNL     1       6.490  24.486  55.869  1.00  0.00     0.007 A 
HETATM   22  C   UNL     1       6.604  25.345  56.965  1.00  0.00     0.001 A 
HETATM   23  C   UNL     1       7.826  25.484  57.620  1.00  0.00     0.000 A 
HETATM   24  C   UNL     1       8.934  24.766  57.177  1.00  0.00     0.001 A 
HETATM   25  C   UNL     1       8.821  23.908  56.082  1.00  0.00     0.007 A 
ENDBRANCH  16  20
ENDBRANCH  15  16
ENDBRANCH  12  15
ENDBRANCH   1  11
BRANCH   8  26
HETATM   26  C   UNL     1       4.101  27.633  47.682  1.00  0.00     0.270 C 
HETATM   27  N   UNL     1       2.980  27.151  47.063  1.00  0.00    -0.365 N 
HETATM   28  H   UNL     1       2.118  27.100  47.591  1.00  0.00     0.159 HD
HETATM   29  H   UNL     1       3.026  26.874  46.095  1.00  0.00     0.159 HD
HETATM   30  O   UNL     1       5.166  27.727  47.082  1.00  0.00    -0.266 OA
ENDBRANCH   8  26
TORSDOF 6
ENDMDL
MODEL 6
REMARK VINA RESULT:      -8.8      5.151      8.327
REMARK  6 active torsions:
REMARK  status: ('A' for Active; 'I' for Inactive)
REMARK    1  A    between atoms: C_2  and  C_3 
REMARK    2  A    between atoms: C_3  and  C_4 
REMARK    3  A    between atoms: C_3  and  C_10 
REMARK    4  A    between atoms: C_10  and  C_11 
REMARK       I    between atoms: C_11  and  N_12 
REMARK    5  A    between atoms: N_12  and  C_13 
REMARK    6  A    between atoms: C_20  and  C_21 
REMARK       I    between atoms: C_21  and  N_22 
ROOT
HETATM    1  C   UNL     1       5.086  27.169  51.580  1.00  0.00     0.035 A 
HETATM    2  C   UNL     1       4.474  26.994  50.331  1.00  0.00     0.046 A 
HETATM    3  C   UNL     1       4.391  28.085  49.437  1.00  0.00     0.030 A 
HETATM    4  C   UNL     1       4.918  29.311  49.823  1.00  0.00     0.063 A 
HETATM    5  N   UNL     1       4.682  30.154  48.774  1.00  0.00    -0.277 N 
HETATM    6  H   UNL     1       4.929  31.136  48.709  1.00  0.00     0.189 HD
HETATM    7  N   UNL     1       4.059  29.585  47.730  1.00  0.00    -0.168 NA
HETATM    8  C   UNL     1       3.874  28.304  48.123  1.00  0.00     0.156 A 
HETATM    9  C   UNL     1       5.538  29.520  51.055  1.00  0.00     0.034 A 
HETATM   10  C   UNL     1       5.615  28.422  51.921  1.00  0.00     0.032 A 
ENDROOT
BRANCH   1  11
HETATM   11  N   UNL     1       5.218  26.145  52.542  1.00  0.00    -0.327 N 
HETATM   12  C   UNL     1       6.342  25.377  52.815  1.00  0.00     0.222 C 
HETATM   13  O   UNL     1       7.423  25.447  52.246  1.00  0.00    -0.273 OA
HETATM   14  H   UNL     1       4.378  25.908  53.053  1.00  0.00     0.169 HD
BRANCH  12  15
HETATM   15  C   UNL     1       6.067  24.382  53.936  1.00  0.00     0.113 C 
BRANCH  15  16
HETATM   16  C   UNL     1       7.299  24.085  54.822  1.00  0.00     0.030 C 
BRANCH  16  17
HETATM   17  C   UNL     1       7.098  24.478  56.320  1.00  0.00    -0.014 C 
HETATM   18  C   UNL     1       5.750  25.174  56.547  1.00  0.00     0.010 C 
HETATM   19  C   UNL     1       8.218  25.326  56.929  1.00  0.00     0.010 C 
ENDBRANCH  16  17
BRANCH  16  20
HETATM   20  C   UNL     1       7.773  22.645  54.624  1.00  0.00    -0.053 A 
HETATM   21  C   UNL     1       7.973  21.766  55.699  1.00  0.00     0.007 A 
HETATM   22  C   UNL     1       8.398  20.453  55.481  1.00  0.00     0.001 A 
HETATM   23  C   UNL     1       8.627  19.999  54.185  1.00  0.00     0.000 A 
HETATM   24  C   UNL     1       8.435  20.858  53.106  1.00  0.00     0.001 A 
HETATM   25  C   UNL     1       8.011  22.171  53.323  1.00  0.00     0.007 A 
ENDBRANCH  16  20
ENDBRANCH  15  16
ENDBRANCH  12  15
ENDBRANCH   1  11
BRANCH   8  26
HETATM   26  C   UNL     1       3.219  27.327  47.241  1.00  0.00     0.270 C 
HETATM   27  N   UNL     1       1.943  27.668  46.882  1.00  0.00    -0.365 N 
HETATM   28  H   UNL     1       1.558  28.538  47.229  1.00  0.00     0.159 HD
HETATM   29  H   UNL     1       1.419  27.062  46.271  1.00  0.00     0.159 HD
HETATM   30  O   UNL     1       3.736  26.291  46.837  1.00  0.00    -0.266 OA
ENDBRANCH   8  26
TORSDOF 6
ENDMDL
MODEL 7
REMARK VINA RESULT:      -8.8      3.436      4.916
REMARK  6 active torsions:
REMARK  status: ('A' for Active; 'I' for Inactive)
REMARK    1  A    between atoms: C_2  and  C_3 
REMARK    2  A    between atoms: C_3  and  C_4 
REMARK    3  A    between atoms: C_3  and  C_10 
REMARK    4  A    between atoms: C_10  and  C_11 
REMARK       I    between atoms: C_11  and  N_12 
REMARK    5  A    between atoms: N_12  and  C_13 
REMARK    6  A    between atoms: C_20  and  C_21 
REMARK       I    between atoms: C_21  and  N_22 
ROOT
HETATM    1  C   UNL     1       5.201  28.311  54.818  1.00  0.00     0.035 A 
HETATM    2  C   UNL     1       5.020  29.095  55.966  1.00  0.00     0.046 A 
HETATM    3  C   UNL     1       4.124  30.188  55.930  1.00  0.00     0.030 A 
HETATM    4  C   UNL     1       3.446  30.461  54.749  1.00  0.00     0.063 A 
HETATM    5  N   UNL     1       2.678  31.559  55.016  1.00  0.00    -0.277 N 
HETATM    6  H   UNL     1       2.053  32.041  54.379  1.00  0.00     0.189 HD
HETATM    7  N   UNL     1       2.784  32.020  56.273  1.00  0.00    -0.168 NA
HETATM    8  C   UNL     1       3.673  31.181  56.852  1.00  0.00     0.156 A 
HETATM    9  C   UNL     1       3.598  29.700  53.589  1.00  0.00     0.034 A 
HETATM   10  C   UNL     1       4.485  28.618  53.652  1.00  0.00     0.032 A 
ENDROOT
BRANCH   1  11
HETATM   11  N   UNL     1       6.071  27.202  54.752  1.00  0.00    -0.327 N 
HETATM   12  C   UNL     1       5.996  26.021  55.478  1.00  0.00     0.222 C 
HETATM   13  O   UNL     1       5.160  25.745  56.328  1.00  0.00    -0.273 OA
HETATM   14  H   UNL     1       6.872  27.304  54.142  1.00  0.00     0.169 HD
BRANCH  12  15
HETATM   15  C   UNL     1       7.129  25.074  55.102  1.00  0.00     0.113 C 
BRANCH  15  16
HETATM   16  C   UNL     1       6.677  23.877  54.233  1.00  0.00     0.030 C 
BRANCH  16  17
HETATM   17  C   UNL     1       6.647  24.194  52.704  1.00  0.00    -0.014 C 
HETATM   18  C   UNL     1       7.866  25.019  52.272  1.00  0.00     0.010 C 
HETATM   19  C   UNL     1       5.370  24.873  52.202  1.00  0.00     0.010 C 
ENDBRANCH  16  17
BRANCH  16  20
HETATM   20  C   UNL     1       7.476  22.622  54.583  1.00  0.00    -0.053 A 
HETATM   21  C   UNL     1       7.945  22.369  55.882  1.00  0.00     0.007 A 
HETATM   22  C   UNL     1       8.664  21.207  56.169  1.00  0.00     0.001 A 
HETATM   23  C   UNL     1       8.923  20.279  55.163  1.00  0.00     0.000 A 
HETATM   24  C   UNL     1       8.467  20.514  53.870  1.00  0.00     0.001 A 
HETATM   25  C   UNL     1       7.748  21.676  53.581  1.00  0.00     0.007 A 
ENDBRANCH  16  20
ENDBRANCH  15  16
ENDBRANCH  12  15
ENDBRANCH   1  11
BRANCH   8  26
HETATM   26  C   UNL     1       4.062  31.343  58.260  1.00  0.00     0.270 C 
HETATM   27  N   UNL     1       3.371  30.539  59.126  1.00  0.00    -0.365 N 
HETATM   28  H   UNL     1       2.673  29.909  58.750  1.00  0.00     0.159 HD
HETATM   29  H   UNL     1       3.578  30.574  60.111  1.00  0.00     0.159 HD
HETATM   30  O   UNL     1       4.927  32.113  58.664  1.00  0.00    -0.266 OA
ENDBRANCH   8  26
TORSDOF 6
ENDMDL
MODEL 8
REMARK VINA RESULT:      -8.8      1.840      2.406
REMARK  6 active torsions:
REMARK  status: ('A' for Active; 'I' for Inactive)
REMARK    1  A    between atoms: C_2  and  C_3 
REMARK    2  A    between atoms: C_3  and  C_4 
REMARK    3  A    between atoms: C_3  and  C_10 
REMARK    4  A    between atoms: C_10  and  C_11 
REMARK       I    between atoms: C_11  and  N_12 
REMARK    5  A    between atoms: N_12  and  C_13 
REMARK    6  A    between atoms: C_20  and  C_21 
REMARK       I    between atoms: C_21  and  N_22 
ROOT
HETATM    1  C   UNL     1       7.504  27.605  56.379  1.00  0.00     0.035 A 
HETATM    2  C   UNL     1       7.873  28.593  57.303  1.00  0.00     0.046 A 
HETATM    3  C   UNL     1       7.109  29.777  57.400  1.00  0.00     0.030 A 
HETATM    4  C   UNL     1       6.008  29.936  56.568  1.00  0.00     0.063 A 
HETATM    5  N   UNL     1       5.489  31.160  56.881  1.00  0.00    -0.277 N 
HETATM    6  H   UNL     1       4.679  31.608  56.466  1.00  0.00     0.189 HD
HETATM    7  N   UNL     1       6.146  31.812  57.854  1.00  0.00    -0.168 NA
HETATM    8  C   UNL     1       7.150  30.969  58.187  1.00  0.00     0.156 A 
HETATM    9  C   UNL     1       5.608  28.972  55.641  1.00  0.00     0.034 A 
HETATM   10  C   UNL     1       6.377  27.804  55.569  1.00  0.00     0.032 A 
ENDROOT
BRANCH   1  11
HETATM   11  N   UNL     1       8.200  26.390  56.206  1.00  0.00    -0.327 N 
HETATM   12  C   UNL     1       7.816  25.124  56.627  1.00  0.00     0.222 C 
HETATM   13  O   UNL     1       6.799  24.845  57.248  1.00  0.00    -0.273 OA
HETATM   14  H   UNL     1       9.111  26.461  55.771  1.00  0.00     0.169 HD
BRANCH  12  15
HETATM   15  C   UNL     1       8.851  24.077  56.233  1.00  0.00     0.113 C 
BRANCH  15  16
HETATM   16  C   UNL     1       8.397  23.156  55.078  1.00  0.00     0.030 C 
BRANCH  16  17
HETATM   17  C   UNL     1       7.715  21.837  55.564  1.00  0.00    -0.014 C 
HETATM   18  C   UNL     1       8.319  21.341  56.884  1.00  0.00     0.010 C 
HETATM   19  C   UNL     1       7.705  20.693  54.547  1.00  0.00     0.010 C 
ENDBRANCH  16  17
BRANCH  16  20
HETATM   20  C   UNL     1       7.568  23.935  54.057  1.00  0.00    -0.053 A 
HETATM   21  C   UNL     1       6.182  24.110  54.193  1.00  0.00     0.007 A 
HETATM   22  C   UNL     1       5.456  24.837  53.247  1.00  0.00     0.001 A 
HETATM   23  C   UNL     1       6.105  25.401  52.151  1.00  0.00     0.000 A 
HETATM   24  C   UNL     1       7.479  25.236  52.000  1.00  0.00     0.001 A 
HETATM   25  C   UNL     1       8.205  24.510  52.946  1.00  0.00     0.007 A 
ENDBRANCH  16  20
ENDBRANCH  15  16
ENDBRANCH  12  15
ENDBRANCH   1  11
BRANCH   8  26
HETATM   26  C   UNL     1       8.112  31.315  59.244  1.00  0.00     0.270 C 
HETATM   27  N   UNL     1       8.089  30.467  60.318  1.00  0.00    -0.365 N 
HETATM   28  H   UNL     1       7.443  29.687  60.306  1.00  0.00     0.159 HD
HETATM   29  H   UNL     1       8.722  30.620  61.087  1.00  0.00     0.159 HD
HETATM   30  O   UNL     1       8.886  32.265  59.203  1.00  0.00    -0.266 OA
ENDBRANCH   8  26
TORSDOF 6
ENDMDL
MODEL 9
REMARK VINA RESULT:      -8.7      3.309      8.337
REMARK  6 active torsions:
REMARK  status: ('A' for Active; 'I' for Inactive)
REMARK    1  A    between atoms: C_2  and  C_3 
REMARK    2  A    between atoms: C_3  and  C_4 
REMARK    3  A    between atoms: C_3  and  C_10 
REMARK    4  A    between atoms: C_10  and  C_11 
REMARK       I    between atoms: C_11  and  N_12 
REMARK    5  A    between atoms: N_12  and  C_13 
REMARK    6  A    between atoms: C_20  and  C_21 
REMARK       I    between atoms: C_21  and  N_22 
ROOT
HETATM    1  C   UNL     1       7.498  24.932  54.884  1.00  0.00     0.035 A 
HETATM    2  C   UNL     1       7.731  23.642  55.382  1.00  0.00     0.046 A 
HETATM    3  C   UNL     1       7.952  22.576  54.480  1.00  0.00     0.030 A 
HETATM    4  C   UNL     1       7.926  22.835  53.116  1.00  0.00     0.063 A 
HETATM    5  N   UNL     1       8.156  21.632  52.513  1.00  0.00    -0.277 N 
HETATM    6  H   UNL     1       8.202  21.442  51.518  1.00  0.00     0.189 HD
HETATM    7  N   UNL     1       8.343  20.609  53.363  1.00  0.00    -0.168 NA
HETATM    8  C   UNL     1       8.223  21.178  54.585  1.00  0.00     0.156 A 
HETATM    9  C   UNL     1       7.701  24.106  52.585  1.00  0.00     0.034 A 
HETATM   10  C   UNL     1       7.493  25.147  53.499  1.00  0.00     0.032 A 
ENDROOT
BRANCH   1  11
HETATM   11  N   UNL     1       7.267  26.060  55.700  1.00  0.00    -0.327 N 
HETATM   12  C   UNL     1       6.190  26.290  56.544  1.00  0.00     0.222 C 
HETATM   13  O   UNL     1       5.230  25.550  56.712  1.00  0.00    -0.273 OA
HETATM   14  H   UNL     1       7.941  26.810  55.617  1.00  0.00     0.169 HD
BRANCH  12  15
HETATM   15  C   UNL     1       6.326  27.632  57.254  1.00  0.00     0.113 C 
BRANCH  15  16
HETATM   16  C   UNL     1       6.756  28.789  56.324  1.00  0.00     0.030 C 
BRANCH  16  17
HETATM   17  C   UNL     1       5.653  29.879  56.135  1.00  0.00    -0.014 C 
HETATM   18  C   UNL     1       4.699  29.932  57.336  1.00  0.00     0.010 C 
HETATM   19  C   UNL     1       4.838  29.768  54.844  1.00  0.00     0.010 C 
ENDBRANCH  16  17
BRANCH  16  20
HETATM   20  C   UNL     1       8.110  29.355  56.753  1.00  0.00    -0.053 A 
HETATM   21  C   UNL     1       8.319  29.920  58.021  1.00  0.00     0.007 A 
HETATM   22  C   UNL     1       9.572  30.419  58.383  1.00  0.00     0.001 A 
HETATM   23  C   UNL     1      10.635  30.359  57.485  1.00  0.00     0.000 A 
HETATM   24  C   UNL     1      10.444  29.803  56.223  1.00  0.00     0.001 A 
HETATM   25  C   UNL     1       9.192  29.304  55.860  1.00  0.00     0.007 A 
ENDBRANCH  16  20
ENDBRANCH  15  16
ENDBRANCH  12  15
ENDBRANCH   1  11
BRANCH   8  26
HETATM   26  C   UNL     1       8.373  20.381  55.811  1.00  0.00     0.270 C 
HETATM   27  N   UNL     1       9.660  19.995  56.070  1.00  0.00    -0.365 N 
HETATM   28  H   UNL     1      10.390  20.280  55.429  1.00  0.00     0.159 HD
HETATM   29  H   UNL     1       9.861  19.453  56.895  1.00  0.00     0.159 HD
HETATM   30  O   UNL     1       7.455  20.073  56.563  1.00  0.00    -0.266 OA
ENDBRANCH   8  26
TORSDOF 6
ENDMDL
MODEL 10
REMARK VINA RESULT:      -8.4      5.122      8.206
REMARK  6 active torsions:
REMARK  status: ('A' for Active; 'I' for Inactive)
REMARK    1  A    between atoms: C_2  and  C_3 
REMARK    2  A    between atoms: C_3  and  C_4 
REMARK    3  A    between atoms: C_3  and  C_10 
REMARK    4  A    between atoms: C_10  and  C_11 
REMARK       I    between atoms: C_11  and  N_12 
REMARK    5  A    between atoms: N_12  and  C_13 
REMARK    6  A    between atoms: C_20  and  C_21 
REMARK       I    between atoms: C_21  and  N_22 
ROOT
HETATM    1  C   UNL     1       7.147  25.116  53.697  1.00  0.00     0.035 A 
HETATM    2  C   UNL     1       7.442  23.748  53.779  1.00  0.00     0.046 A 
HETATM    3  C   UNL     1       7.792  23.184  55.027  1.00  0.00     0.030 A 
HETATM    4  C   UNL     1       7.839  24.007  56.146  1.00  0.00     0.063 A 
HETATM    5  N   UNL     1       8.209  23.194  57.179  1.00  0.00    -0.277 N 
HETATM    6  H   UNL     1       8.348  23.458  58.149  1.00  0.00     0.189 HD
HETATM    7  N   UNL     1       8.396  21.909  56.838  1.00  0.00    -0.168 NA
HETATM    8  C   UNL     1       8.139  21.886  55.510  1.00  0.00     0.156 A 
HETATM    9  C   UNL     1       7.548  25.371  56.102  1.00  0.00     0.034 A 
HETATM   10  C   UNL     1       7.197  25.905  54.855  1.00  0.00     0.032 A 
ENDROOT
BRANCH   1  11
HETATM   11  N   UNL     1       6.789  25.773  52.500  1.00  0.00    -0.327 N 
HETATM   12  C   UNL     1       5.627  25.610  51.759  1.00  0.00     0.222 C 
HETATM   13  O   UNL     1       4.708  24.842  52.011  1.00  0.00    -0.273 OA
HETATM   14  H   UNL     1       7.486  26.394  52.111  1.00  0.00     0.169 HD
BRANCH  12  15
HETATM   15  C   UNL     1       5.627  26.516  50.533  1.00  0.00     0.113 C 
BRANCH  15  16
HETATM   16  C   UNL     1       4.386  27.432  50.434  1.00  0.00     0.030 C 
BRANCH  16  17
HETATM   17  C   UNL     1       4.725  28.953  50.534  1.00  0.00    -0.014 C 
HETATM   18  C   UNL     1       5.778  29.368  49.498  1.00  0.00     0.010 C 
HETATM   19  C   UNL     1       5.158  29.437  51.921  1.00  0.00     0.010 C 
ENDBRANCH  16  17
BRANCH  16  20
HETATM   20  C   UNL     1       3.543  27.071  49.211  1.00  0.00    -0.053 A 
HETATM   21  C   UNL     1       2.490  27.882  48.760  1.00  0.00     0.007 A 
HETATM   22  C   UNL     1       1.746  27.527  47.632  1.00  0.00     0.001 A 
HETATM   23  C   UNL     1       2.044  26.356  46.939  1.00  0.00     0.000 A 
HETATM   24  C   UNL     1       3.084  25.540  47.374  1.00  0.00     0.001 A 
HETATM   25  C   UNL     1       3.828  25.894  48.501  1.00  0.00     0.007 A 
ENDBRANCH  16  20
ENDBRANCH  15  16
ENDBRANCH  12  15
ENDBRANCH   1  11
BRANCH   8  26
HETATM   26  C   UNL     1       8.225  20.635  54.743  1.00  0.00     0.270 C 
HETATM   27  N   UNL     1       9.011  19.677  55.323  1.00  0.00    -0.365 N 
HETATM   28  H   UNL     1       9.455  19.886  56.209  1.00  0.00     0.159 HD
HETATM   29  H   UNL     1       9.121  18.783  54.873  1.00  0.00     0.159 HD
HETATM   30  O   UNL     1       7.655  20.426  53.677  1.00  0.00    -0.266 OA
ENDBRANCH   8  26
TORSDOF 6
ENDMDL
