MODEL 1
REMARK VINA RESULT:      -9.5      0.000      0.000
REMARK  11 active torsions:
REMARK  status: ('A' for Active; 'I' for Inactive)
REMARK    1  A    between atoms: N_13  and  C_14 
REMARK    2  A    between atoms: C_14  and  C_15 
REMARK    3  A    between atoms: N_20  and  C_21 
REMARK    4  A    between atoms: C_21  and  C_22 
REMARK    5  A    between atoms: C_22  and  O_23 
REMARK    6  A    between atoms: C_22  and  C_24 
REMARK    7  A    between atoms: C_24  and  N_25 
REMARK    8  A    between atoms: N_25  and  C_27 
REMARK    9  A    between atoms: N_25  and  C_34 
REMARK   10  A    between atoms: C_27  and  C_28 
REMARK   11  A    between atoms: C_34  and  C_35 
ROOT
HETATM    1  C   UNL     1       4.982  33.306  59.482  1.00  0.00     0.163 C 
HETATM    2  N   UNL     1       6.072  32.344  59.488  1.00  0.00    -0.285 N 
HETATM    3  C   UNL     1       7.017  32.351  60.518  1.00  0.00     0.332 A 
HETATM    4  O   UNL     1       6.968  33.169  61.438  1.00  0.00    -0.246 OA
HETATM    5  N   UNL     1       8.050  31.391  60.445  1.00  0.00    -0.269 N 
HETATM    6  C   UNL     1       9.050  31.397  61.495  1.00  0.00     0.164 C 
HETATM    7  C   UNL     1       8.269  30.522  59.377  1.00  0.00     0.282 A 
HETATM    8  O   UNL     1       9.262  29.811  59.239  1.00  0.00    -0.265 OA
HETATM    9  C   UNL     1       7.240  30.570  58.399  1.00  0.00     0.166 A 
HETATM   10  C   UNL     1       6.205  31.448  58.455  1.00  0.00     0.186 A 
HETATM   11  N   UNL     1       5.408  31.352  57.360  1.00  0.00    -0.044 NA
HETATM   12  C   UNL     1       5.935  30.398  56.624  1.00  0.00     0.705 A 
HETATM   13  N   UNL     1       5.522  29.980  55.410  1.00  0.00    -0.218 N 
HETATM   14  N   UNL     1       7.063  29.882  57.228  1.00  0.00    -0.170 N 
HETATM   15  H   UNL     1       5.630  29.006  55.141  1.00  0.00     0.178 HD
ENDROOT
BRANCH  14  16
HETATM   16  C   UNL     1       7.990  28.902  56.684  1.00  0.00     0.181 C 
BRANCH  16  17
HETATM   17  C   UNL     1       7.592  27.482  57.101  1.00  0.00     0.163 C 
BRANCH  17  18
HETATM   18  O   UNL     1       7.661  27.328  58.522  1.00  0.00    -0.392 OA
HETATM   19  H   UNL     1       7.925  26.402  58.720  1.00  0.00     0.210 HD
ENDBRANCH  17  18
BRANCH  17  20
HETATM   20  C   UNL     1       8.444  26.395  56.409  1.00  0.00     0.268 C 
BRANCH  20  21
HETATM   21  N   UNL     1       7.665  25.360  55.588  1.00  0.00    -0.061 N 
HETATM   22  H   UNL     1       8.100  25.263  54.668  1.00  0.00     0.280 HD
BRANCH  21  23
HETATM   23  C   UNL     1       7.676  23.977  56.228  1.00  0.00     0.273 C 
BRANCH  23  24
HETATM   24  C   UNL     1       7.806  22.827  55.263  1.00  0.00    -0.033 A 
HETATM   25  C   UNL     1       7.733  21.499  55.715  1.00  0.00     0.009 A 
HETATM   26  C   UNL     1       7.871  20.441  54.815  1.00  0.00     0.001 A 
HETATM   27  C   UNL     1       8.077  20.698  53.461  1.00  0.00     0.000 A 
HETATM   28  C   UNL     1       8.142  22.010  53.001  1.00  0.00     0.001 A 
HETATM   29  C   UNL     1       8.008  23.071  53.896  1.00  0.00     0.009 A 
ENDBRANCH  23  24
ENDBRANCH  21  23
BRANCH  21  30
HETATM   30  C   UNL     1       6.248  25.859  55.320  1.00  0.00     0.273 C 
BRANCH  30  31
HETATM   31  C   UNL     1       5.877  25.833  53.859  1.00  0.00    -0.033 A 
HETATM   32  C   UNL     1       4.923  24.917  53.385  1.00  0.00     0.009 A 
HETATM   33  C   UNL     1       4.590  24.883  52.030  1.00  0.00     0.001 A 
HETATM   34  C   UNL     1       5.202  25.761  51.139  1.00  0.00     0.000 A 
HETATM   35  C   UNL     1       6.142  26.680  51.599  1.00  0.00     0.001 A 
HETATM   36  C   UNL     1       6.478  26.719  52.953  1.00  0.00     0.009 A 
ENDBRANCH  30  31
ENDBRANCH  21  30
ENDBRANCH  20  21
ENDBRANCH  17  20
ENDBRANCH  16  17
ENDBRANCH  14  16
BRANCH  13  37
HETATM   37  C   UNL     1       4.210  30.459  54.960  1.00  0.00     0.203 C 
BRANCH  37  38
HETATM   38  C   UNL     1       3.842  29.983  53.593  1.00  0.00     0.070 A 
HETATM   39  O   UNL     1       4.010  30.867  52.560  1.00  0.00    -0.325 OA
HETATM   40  C   UNL     1       3.639  30.219  51.425  1.00  0.00     0.142 A 
HETATM   41  C   UNL     1       3.235  28.936  51.710  1.00  0.00     0.027 A 
HETATM   42  C   UNL     1       3.365  28.782  53.111  1.00  0.00     0.036 A 
ENDBRANCH  37  38
ENDBRANCH  13  37
TORSDOF 11
ENDMDL
MODEL 2
REMARK VINA RESULT:      -9.2      1.521      5.442
REMARK  11 active torsions:
REMARK  status: ('A' for Active; 'I' for Inactive)
REMARK    1  A    between atoms: N_13  and  C_14 
REMARK    2  A    between atoms: C_14  and  C_15 
REMARK    3  A    between atoms: N_20  and  C_21 
REMARK    4  A    between atoms: C_21  and  C_22 
REMARK    5  A    between atoms: C_22  and  O_23 
REMARK    6  A    between atoms: C_22  and  C_24 
REMARK    7  A    between atoms: C_24  and  N_25 
REMARK    8  A    between atoms: N_25  and  C_27 
REMARK    9  A    between atoms: N_25  and  C_34 
REMARK   10  A    between atoms: C_27  and  C_28 
REMARK   11  A    between atoms: C_34  and  C_35 
ROOT
HETATM    1  C   UNL     1       4.314  33.241  54.736  1.00  0.00     0.163 C 
HETATM    2  N   UNL     1       4.382  31.792  54.637  1.00  0.00    -0.285 N 
HETATM    3  C   UNL     1       3.774  31.126  53.568  1.00  0.00     0.332 A 
HETATM    4  O   UNL     1       3.158  31.734  52.691  1.00  0.00    -0.246 OA
HETATM    5  N   UNL     1       3.876  29.718  53.550  1.00  0.00    -0.269 N 
HETATM    6  C   UNL     1       3.235  29.010  52.458  1.00  0.00     0.164 C 
HETATM    7  C   UNL     1       4.428  28.936  54.565  1.00  0.00     0.282 A 
HETATM    8  O   UNL     1       4.361  27.710  54.625  1.00  0.00    -0.265 OA
HETATM    9  C   UNL     1       5.044  29.705  55.587  1.00  0.00     0.166 A 
HETATM   10  C   UNL     1       5.007  31.063  55.619  1.00  0.00     0.186 A 
HETATM   11  N   UNL     1       5.592  31.554  56.742  1.00  0.00    -0.044 NA
HETATM   12  C   UNL     1       6.013  30.500  57.408  1.00  0.00     0.705 A 
HETATM   13  N   UNL     1       6.610  30.483  58.617  1.00  0.00    -0.218 N 
HETATM   14  N   UNL     1       5.703  29.338  56.731  1.00  0.00    -0.170 N 
HETATM   15  H   UNL     1       7.304  29.773  58.834  1.00  0.00     0.178 HD
ENDROOT
BRANCH  14  16
HETATM   16  C   UNL     1       5.892  27.970  57.186  1.00  0.00     0.181 C 
BRANCH  16  17
HETATM   17  C   UNL     1       7.363  27.554  57.073  1.00  0.00     0.163 C 
BRANCH  17  18
HETATM   18  O   UNL     1       7.858  27.779  55.749  1.00  0.00    -0.392 OA
HETATM   19  H   UNL     1       8.775  27.431  55.699  1.00  0.00     0.210 HD
ENDBRANCH  17  18
BRANCH  17  20
HETATM   20  C   UNL     1       7.602  26.084  57.484  1.00  0.00     0.268 C 
BRANCH  20  21
HETATM   21  N   UNL     1       7.880  25.108  56.335  1.00  0.00    -0.061 N 
HETATM   22  H   UNL     1       8.345  25.607  55.574  1.00  0.00     0.280 HD
BRANCH  21  23
HETATM   23  C   UNL     1       8.807  23.970  56.745  1.00  0.00     0.273 C 
BRANCH  23  24
HETATM   24  C   UNL     1       8.630  22.689  55.972  1.00  0.00    -0.033 A 
HETATM   25  C   UNL     1       8.023  21.571  56.565  1.00  0.00     0.009 A 
HETATM   26  C   UNL     1       7.878  20.384  55.845  1.00  0.00     0.001 A 
HETATM   27  C   UNL     1       8.331  20.305  54.530  1.00  0.00     0.000 A 
HETATM   28  C   UNL     1       8.925  21.410  53.928  1.00  0.00     0.001 A 
HETATM   29  C   UNL     1       9.076  22.598  54.644  1.00  0.00     0.009 A 
ENDBRANCH  23  24
ENDBRANCH  21  23
BRANCH  21  30
HETATM   30  C   UNL     1       6.567  24.597  55.748  1.00  0.00     0.273 C 
BRANCH  30  31
HETATM   31  C   UNL     1       6.421  24.893  54.278  1.00  0.00    -0.033 A 
HETATM   32  C   UNL     1       7.529  25.315  53.525  1.00  0.00     0.009 A 
HETATM   33  C   UNL     1       7.392  25.604  52.166  1.00  0.00     0.001 A 
HETATM   34  C   UNL     1       6.152  25.472  51.547  1.00  0.00     0.000 A 
HETATM   35  C   UNL     1       5.047  25.045  52.281  1.00  0.00     0.001 A 
HETATM   36  C   UNL     1       5.179  24.754  53.640  1.00  0.00     0.009 A 
ENDBRANCH  30  31
ENDBRANCH  21  30
ENDBRANCH  20  21
ENDBRANCH  17  20
ENDBRANCH  16  17
ENDBRANCH  14  16
BRANCH  13  37
HETATM   37  C   UNL     1       7.062  31.775  59.146  1.00  0.00     0.203 C 
BRANCH  37  38
HETATM   38  C   UNL     1       7.726  31.670  60.480  1.00  0.00     0.070 A 
HETATM   39  O   UNL     1       8.514  30.571  60.698  1.00  0.00    -0.325 OA
HETATM   40  C   UNL     1       9.026  30.698  61.950  1.00  0.00     0.142 A 
HETATM   41  C   UNL     1       8.580  31.856  62.540  1.00  0.00     0.027 A 
HETATM   42  C   UNL     1       7.740  32.486  61.592  1.00  0.00     0.036 A 
ENDBRANCH  37  38
ENDBRANCH  13  37
TORSDOF 11
ENDMDL
MODEL 3
REMARK VINA RESULT:      -9.1      0.492      3.189
REMARK  11 active torsions:
REMARK  status: ('A' for Active; 'I' for Inactive)
REMARK    1  A    between atoms: N_13  and  C_14 
REMARK    2  A    between atoms: C_14  and  C_15 
REMARK    3  A    between atoms: N_20  and  C_21 
REMARK    4  A    between atoms: C_21  and  C_22 
REMARK    5  A    between atoms: C_22  and  O_23 
REMARK    6  A    between atoms: C_22  and  C_24 
REMARK    7  A    between atoms: C_24  and  N_25 
REMARK    8  A    between atoms: N_25  and  C_27 
REMARK    9  A    between atoms: N_25  and  C_34 
REMARK   10  A    between atoms: C_27  and  C_28 
REMARK   11  A    between atoms: C_34  and  C_35 
ROOT
HETATM    1  C   UNL     1       4.880  33.258  59.328  1.00  0.00     0.163 C 
HETATM    2  N   UNL     1       5.949  32.274  59.296  1.00  0.00    -0.285 N 
HETATM    3  C   UNL     1       6.903  32.230  60.318  1.00  0.00     0.332 A 
HETATM    4  O   UNL     1       6.877  33.020  61.264  1.00  0.00    -0.246 OA
HETATM    5  N   UNL     1       7.914  31.252  60.207  1.00  0.00    -0.269 N 
HETATM    6  C   UNL     1       8.922  31.204  61.250  1.00  0.00     0.164 C 
HETATM    7  C   UNL     1       8.107  30.412  59.111  1.00  0.00     0.282 A 
HETATM    8  O   UNL     1       9.085  29.685  58.944  1.00  0.00    -0.265 OA
HETATM    9  C   UNL     1       7.073  30.511  58.144  1.00  0.00     0.166 A 
HETATM   10  C   UNL     1       6.057  31.408  58.235  1.00  0.00     0.186 A 
HETATM   11  N   UNL     1       5.250  31.363  57.144  1.00  0.00    -0.044 NA
HETATM   12  C   UNL     1       5.752  30.421  56.375  1.00  0.00     0.705 A 
HETATM   13  N   UNL     1       5.321  30.049  55.151  1.00  0.00    -0.218 N 
HETATM   14  N   UNL     1       6.873  29.863  56.954  1.00  0.00    -0.170 N 
HETATM   15  H   UNL     1       5.407  29.082  54.852  1.00  0.00     0.178 HD
ENDROOT
BRANCH  14  16
HETATM   16  C   UNL     1       7.776  28.882  56.372  1.00  0.00     0.181 C 
BRANCH  16  17
HETATM   17  C   UNL     1       7.373  27.460  56.779  1.00  0.00     0.163 C 
BRANCH  17  18
HETATM   18  O   UNL     1       7.582  27.249  58.179  1.00  0.00    -0.392 OA
HETATM   19  H   UNL     1       6.778  26.826  58.551  1.00  0.00     0.210 HD
ENDBRANCH  17  18
BRANCH  17  20
HETATM   20  C   UNL     1       8.110  26.374  55.964  1.00  0.00     0.268 C 
BRANCH  20  21
HETATM   21  N   UNL     1       7.242  25.214  55.462  1.00  0.00    -0.061 N 
HETATM   22  H   UNL     1       7.123  24.531  56.214  1.00  0.00     0.280 HD
BRANCH  21  23
HETATM   23  C   UNL     1       5.845  25.663  55.052  1.00  0.00     0.273 C 
BRANCH  23  24
HETATM   24  C   UNL     1       5.625  25.795  53.568  1.00  0.00    -0.033 A 
HETATM   25  C   UNL     1       4.837  24.864  52.872  1.00  0.00     0.009 A 
HETATM   26  C   UNL     1       4.652  24.987  51.494  1.00  0.00     0.001 A 
HETATM   27  C   UNL     1       5.246  26.039  50.801  1.00  0.00     0.000 A 
HETATM   28  C   UNL     1       6.022  26.974  51.481  1.00  0.00     0.001 A 
HETATM   29  C   UNL     1       6.212  26.855  52.858  1.00  0.00     0.009 A 
ENDBRANCH  23  24
ENDBRANCH  21  23
BRANCH  21  30
HETATM   30  C   UNL     1       7.959  24.466  54.341  1.00  0.00     0.273 C 
BRANCH  30  31
HETATM   31  C   UNL     1       8.014  22.977  54.563  1.00  0.00    -0.033 A 
HETATM   32  C   UNL     1       7.862  22.093  53.482  1.00  0.00     0.009 A 
HETATM   33  C   UNL     1       7.898  20.712  53.689  1.00  0.00     0.001 A 
HETATM   34  C   UNL     1       8.088  20.204  54.971  1.00  0.00     0.000 A 
HETATM   35  C   UNL     1       8.249  21.071  56.049  1.00  0.00     0.001 A 
HETATM   36  C   UNL     1       8.215  22.452  55.848  1.00  0.00     0.009 A 
ENDBRANCH  30  31
ENDBRANCH  21  30
ENDBRANCH  20  21
ENDBRANCH  17  20
ENDBRANCH  16  17
ENDBRANCH  14  16
BRANCH  13  37
HETATM   37  C   UNL     1       4.016  30.569  54.727  1.00  0.00     0.203 C 
BRANCH  37  38
HETATM   38  C   UNL     1       3.586  30.069  53.387  1.00  0.00     0.070 A 
HETATM   39  O   UNL     1       3.493  30.991  52.379  1.00  0.00    -0.325 OA
HETATM   40  C   UNL     1       3.114  30.315  51.263  1.00  0.00     0.142 A 
HETATM   41  C   UNL     1       2.962  28.977  51.536  1.00  0.00     0.027 A 
HETATM   42  C   UNL     1       3.266  28.815  52.909  1.00  0.00     0.036 A 
ENDBRANCH  37  38
ENDBRANCH  13  37
TORSDOF 11
ENDMDL
MODEL 4
REMARK VINA RESULT:      -9.1      1.573      5.100
REMARK  11 active torsions:
REMARK  status: ('A' for Active; 'I' for Inactive)
REMARK    1  A    between atoms: N_13  and  C_14 
REMARK    2  A    between atoms: C_14  and  C_15 
REMARK    3  A    between atoms: N_20  and  C_21 
REMARK    4  A    between atoms: C_21  and  C_22 
REMARK    5  A    between atoms: C_22  and  O_23 
REMARK    6  A    between atoms: C_22  and  C_24 
REMARK    7  A    between atoms: C_24  and  N_25 
REMARK    8  A    between atoms: N_25  and  C_27 
REMARK    9  A    between atoms: N_25  and  C_34 
REMARK   10  A    between atoms: C_27  and  C_28 
REMARK   11  A    between atoms: C_34  and  C_35 
ROOT
HETATM    1  C   UNL     1       4.688  33.163  58.175  1.00  0.00     0.163 C 
HETATM    2  N   UNL     1       4.911  32.042  57.277  1.00  0.00    -0.285 N 
HETATM    3  C   UNL     1       3.912  31.638  56.386  1.00  0.00     0.332 A 
HETATM    4  O   UNL     1       2.817  32.203  56.340  1.00  0.00    -0.246 OA
HETATM    5  N   UNL     1       4.203  30.535  55.556  1.00  0.00    -0.269 N 
HETATM    6  C   UNL     1       3.170  30.091  54.639  1.00  0.00     0.164 C 
HETATM    7  C   UNL     1       5.352  29.748  55.633  1.00  0.00     0.282 A 
HETATM    8  O   UNL     1       5.524  28.691  55.028  1.00  0.00    -0.265 OA
HETATM    9  C   UNL     1       6.315  30.256  56.543  1.00  0.00     0.166 A 
HETATM   10  C   UNL     1       6.092  31.342  57.329  1.00  0.00     0.186 A 
HETATM   11  N   UNL     1       7.132  31.572  58.172  1.00  0.00    -0.044 NA
HETATM   12  C   UNL     1       8.017  30.638  57.900  1.00  0.00     0.705 A 
HETATM   13  N   UNL     1       9.196  30.424  58.522  1.00  0.00    -0.218 N 
HETATM   14  N   UNL     1       7.560  29.808  56.898  1.00  0.00    -0.170 N 
HETATM   15  H   UNL     1       9.988  30.058  58.001  1.00  0.00     0.178 HD
ENDROOT
BRANCH  14  16
HETATM   16  C   UNL     1       8.187  28.595  56.396  1.00  0.00     0.181 C 
BRANCH  16  17
HETATM   17  C   UNL     1       7.735  27.372  57.203  1.00  0.00     0.163 C 
BRANCH  17  18
HETATM   18  O   UNL     1       7.677  27.674  58.601  1.00  0.00    -0.392 OA
HETATM   19  H   UNL     1       8.271  27.052  59.075  1.00  0.00     0.210 HD
ENDBRANCH  17  18
BRANCH  17  20
HETATM   20  C   UNL     1       8.629  26.135  56.965  1.00  0.00     0.268 C 
BRANCH  20  21
HETATM   21  N   UNL     1       7.996  25.002  56.149  1.00  0.00    -0.061 N 
HETATM   22  H   UNL     1       8.489  24.913  55.257  1.00  0.00     0.280 HD
BRANCH  21  23
HETATM   23  C   UNL     1       8.100  23.651  56.845  1.00  0.00     0.273 C 
BRANCH  23  24
HETATM   24  C   UNL     1       8.335  22.476  55.931  1.00  0.00    -0.033 A 
HETATM   25  C   UNL     1       8.661  22.672  54.579  1.00  0.00     0.009 A 
HETATM   26  C   UNL     1       8.861  21.577  53.737  1.00  0.00     0.001 A 
HETATM   27  C   UNL     1       8.742  20.281  54.236  1.00  0.00     0.000 A 
HETATM   28  C   UNL     1       8.428  20.075  55.577  1.00  0.00     0.001 A 
HETATM   29  C   UNL     1       8.225  21.166  56.422  1.00  0.00     0.009 A 
ENDBRANCH  23  24
ENDBRANCH  21  23
BRANCH  21  30
HETATM   30  C   UNL     1       6.556  25.355  55.787  1.00  0.00     0.273 C 
BRANCH  30  31
HETATM   31  C   UNL     1       6.308  25.377  54.301  1.00  0.00    -0.033 A 
HETATM   32  C   UNL     1       7.300  25.842  53.422  1.00  0.00     0.009 A 
HETATM   33  C   UNL     1       7.065  25.876  52.046  1.00  0.00     0.001 A 
HETATM   34  C   UNL     1       5.844  25.446  51.536  1.00  0.00     0.000 A 
HETATM   35  C   UNL     1       4.855  24.973  52.397  1.00  0.00     0.001 A 
HETATM   36  C   UNL     1       5.085  24.936  53.773  1.00  0.00     0.009 A 
ENDBRANCH  30  31
ENDBRANCH  21  30
ENDBRANCH  20  21
ENDBRANCH  17  20
ENDBRANCH  16  17
ENDBRANCH  14  16
BRANCH  13  37
HETATM   37  C   UNL     1       9.662  31.478  59.430  1.00  0.00     0.203 C 
BRANCH  37  38
HETATM   38  C   UNL     1       9.117  31.350  60.815  1.00  0.00     0.070 A 
HETATM   39  O   UNL     1       9.228  30.125  61.417  1.00  0.00    -0.325 OA
HETATM   40  C   UNL     1       8.695  30.249  62.660  1.00  0.00     0.142 A 
HETATM   41  C   UNL     1       8.244  31.530  62.867  1.00  0.00     0.027 A 
HETATM   42  C   UNL     1       8.515  32.244  61.676  1.00  0.00     0.036 A 
ENDBRANCH  37  38
ENDBRANCH  13  37
TORSDOF 11
ENDMDL
MODEL 5
REMARK VINA RESULT:      -9.0      1.635      5.732
REMARK  11 active torsions:
REMARK  status: ('A' for Active; 'I' for Inactive)
REMARK    1  A    between atoms: N_13  and  C_14 
REMARK    2  A    between atoms: C_14  and  C_15 
REMARK    3  A    between atoms: N_20  and  C_21 
REMARK    4  A    between atoms: C_21  and  C_22 
REMARK    5  A    between atoms: C_22  and  O_23 
REMARK    6  A    between atoms: C_22  and  C_24 
REMARK    7  A    between atoms: C_24  and  N_25 
REMARK    8  A    between atoms: N_25  and  C_27 
REMARK    9  A    between atoms: N_25  and  C_34 
REMARK   10  A    between atoms: C_27  and  C_28 
REMARK   11  A    between atoms: C_34  and  C_35 
ROOT
HETATM    1  C   UNL     1       4.981  33.513  58.997  1.00  0.00     0.163 C 
HETATM    2  N   UNL     1       4.972  32.480  57.975  1.00  0.00    -0.285 N 
HETATM    3  C   UNL     1       3.832  32.267  57.194  1.00  0.00     0.332 A 
HETATM    4  O   UNL     1       2.805  32.930  57.350  1.00  0.00    -0.246 OA
HETATM    5  N   UNL     1       3.900  31.238  56.230  1.00  0.00    -0.269 N 
HETATM    6  C   UNL     1       2.720  30.991  55.424  1.00  0.00     0.164 C 
HETATM    7  C   UNL     1       4.962  30.346  56.075  1.00  0.00     0.282 A 
HETATM    8  O   UNL     1       4.946  29.350  55.355  1.00  0.00    -0.265 OA
HETATM    9  C   UNL     1       6.079  30.664  56.890  1.00  0.00     0.166 A 
HETATM   10  C   UNL     1       6.071  31.674  57.799  1.00  0.00     0.186 A 
HETATM   11  N   UNL     1       7.227  31.717  58.511  1.00  0.00    -0.044 NA
HETATM   12  C   UNL     1       7.969  30.741  58.034  1.00  0.00     0.705 A 
HETATM   13  N   UNL     1       9.188  30.356  58.466  1.00  0.00    -0.218 N 
HETATM   14  N   UNL     1       7.306  30.069  57.028  1.00  0.00    -0.170 N 
HETATM   15  H   UNL     1       9.866  29.979  57.811  1.00  0.00     0.178 HD
ENDROOT
BRANCH  14  16
HETATM   16  C   UNL     1       7.735  28.866  56.333  1.00  0.00     0.181 C 
BRANCH  16  17
HETATM   17  C   UNL     1       7.349  27.611  57.124  1.00  0.00     0.163 C 
BRANCH  17  18
HETATM   18  O   UNL     1       7.585  27.795  58.523  1.00  0.00    -0.392 OA
HETATM   19  H   UNL     1       7.798  26.921  58.917  1.00  0.00     0.210 HD
ENDBRANCH  17  18
BRANCH  17  20
HETATM   20  C   UNL     1       8.078  26.343  56.626  1.00  0.00     0.268 C 
BRANCH  20  21
HETATM   21  N   UNL     1       7.229  25.365  55.805  1.00  0.00    -0.061 N 
HETATM   22  H   UNL     1       7.007  24.548  56.379  1.00  0.00     0.280 HD
BRANCH  21  23
HETATM   23  C   UNL     1       5.901  25.969  55.366  1.00  0.00     0.273 C 
BRANCH  23  24
HETATM   24  C   UNL     1       5.639  25.931  53.883  1.00  0.00    -0.033 A 
HETATM   25  C   UNL     1       4.930  24.866  53.305  1.00  0.00     0.009 A 
HETATM   26  C   UNL     1       4.707  24.833  51.928  1.00  0.00     0.001 A 
HETATM   27  C   UNL     1       5.184  25.862  51.119  1.00  0.00     0.000 A 
HETATM   28  C   UNL     1       5.880  26.928  51.681  1.00  0.00     0.001 A 
HETATM   29  C   UNL     1       6.108  26.965  53.057  1.00  0.00     0.009 A 
ENDBRANCH  23  24
ENDBRANCH  21  23
BRANCH  21  30
HETATM   30  C   UNL     1       8.036  24.829  54.625  1.00  0.00     0.273 C 
BRANCH  30  31
HETATM   31  C   UNL     1       7.982  23.328  54.505  1.00  0.00    -0.033 A 
HETATM   32  C   UNL     1       8.044  22.715  53.242  1.00  0.00     0.009 A 
HETATM   33  C   UNL     1       7.980  21.324  53.129  1.00  0.00     0.001 A 
HETATM   34  C   UNL     1       7.856  20.536  54.270  1.00  0.00     0.000 A 
HETATM   35  C   UNL     1       7.803  21.132  55.528  1.00  0.00     0.001 A 
HETATM   36  C   UNL     1       7.868  22.522  55.647  1.00  0.00     0.009 A 
ENDBRANCH  30  31
ENDBRANCH  21  30
ENDBRANCH  20  21
ENDBRANCH  17  20
ENDBRANCH  16  17
ENDBRANCH  14  16
BRANCH  13  37
HETATM   37  C   UNL     1       9.871  31.259  59.399  1.00  0.00     0.203 C 
BRANCH  37  38
HETATM   38  C   UNL     1       9.280  31.253  60.771  1.00  0.00     0.070 A 
HETATM   39  O   UNL     1       9.196  30.043  61.407  1.00  0.00    -0.325 OA
HETATM   40  C   UNL     1       8.657  30.279  62.631  1.00  0.00     0.142 A 
HETATM   41  C   UNL     1       8.392  31.618  62.792  1.00  0.00     0.027 A 
HETATM   42  C   UNL     1       8.794  32.250  61.591  1.00  0.00     0.036 A 
ENDBRANCH  37  38
ENDBRANCH  13  37
TORSDOF 11
ENDMDL
MODEL 6
REMARK VINA RESULT:      -8.8      2.740      5.177
REMARK  11 active torsions:
REMARK  status: ('A' for Active; 'I' for Inactive)
REMARK    1  A    between atoms: N_13  and  C_14 
REMARK    2  A    between atoms: C_14  and  C_15 
REMARK    3  A    between atoms: N_20  and  C_21 
REMARK    4  A    between atoms: C_21  and  C_22 
REMARK    5  A    between atoms: C_22  and  O_23 
REMARK    6  A    between atoms: C_22  and  C_24 
REMARK    7  A    between atoms: C_24  and  N_25 
REMARK    8  A    between atoms: N_25  and  C_27 
REMARK    9  A    between atoms: N_25  and  C_34 
REMARK   10  A    between atoms: C_27  and  C_28 
REMARK   11  A    between atoms: C_34  and  C_35 
ROOT
HETATM    1  C   UNL     1       4.270  33.027  53.329  1.00  0.00     0.163 C 
HETATM    2  N   UNL     1       4.240  31.755  54.032  1.00  0.00    -0.285 N 
HETATM    3  C   UNL     1       4.595  31.684  55.383  1.00  0.00     0.332 A 
HETATM    4  O   UNL     1       4.952  32.681  56.013  1.00  0.00    -0.246 OA
HETATM    5  N   UNL     1       4.549  30.410  55.990  1.00  0.00    -0.269 N 
HETATM    6  C   UNL     1       4.932  30.315  57.385  1.00  0.00     0.164 C 
HETATM    7  C   UNL     1       4.296  29.209  55.327  1.00  0.00     0.282 A 
HETATM    8  O   UNL     1       4.425  28.091  55.821  1.00  0.00    -0.265 OA
HETATM    9  C   UNL     1       3.917  29.391  53.971  1.00  0.00     0.166 A 
HETATM   10  C   UNL     1       3.905  30.604  53.361  1.00  0.00     0.186 A 
HETATM   11  N   UNL     1       3.592  30.499  52.043  1.00  0.00    -0.044 NA
HETATM   12  C   UNL     1       3.391  29.217  51.832  1.00  0.00     0.705 A 
HETATM   13  N   UNL     1       3.109  28.617  50.656  1.00  0.00    -0.218 N 
HETATM   14  N   UNL     1       3.573  28.495  52.993  1.00  0.00    -0.170 N 
HETATM   15  H   UNL     1       2.519  27.790  50.634  1.00  0.00     0.178 HD
ENDROOT
BRANCH  14  16
HETATM   16  C   UNL     1       3.558  27.049  53.150  1.00  0.00     0.181 C 
BRANCH  16  17
HETATM   17  C   UNL     1       4.844  26.426  52.595  1.00  0.00     0.163 C 
BRANCH  17  18
HETATM   18  O   UNL     1       4.683  26.058  51.221  1.00  0.00    -0.392 OA
HETATM   19  H   UNL     1       4.809  25.087  51.145  1.00  0.00     0.210 HD
ENDBRANCH  17  18
BRANCH  17  20
HETATM   20  C   UNL     1       5.320  25.207  53.416  1.00  0.00     0.268 C 
BRANCH  20  21
HETATM   21  N   UNL     1       6.803  25.204  53.804  1.00  0.00    -0.061 N 
HETATM   22  H   UNL     1       6.893  24.953  54.791  1.00  0.00     0.280 HD
BRANCH  21  23
HETATM   23  C   UNL     1       7.612  24.181  53.016  1.00  0.00     0.273 C 
BRANCH  23  24
HETATM   24  C   UNL     1       7.786  22.845  53.690  1.00  0.00    -0.033 A 
HETATM   25  C   UNL     1       8.065  21.692  52.939  1.00  0.00     0.009 A 
HETATM   26  C   UNL     1       8.208  20.456  53.572  1.00  0.00     0.001 A 
HETATM   27  C   UNL     1       8.079  20.362  54.956  1.00  0.00     0.000 A 
HETATM   28  C   UNL     1       7.812  21.499  55.712  1.00  0.00     0.001 A 
HETATM   29  C   UNL     1       7.665  22.736  55.085  1.00  0.00     0.009 A 
ENDBRANCH  23  24
ENDBRANCH  21  23
BRANCH  21  30
HETATM   30  C   UNL     1       7.383  26.611  53.685  1.00  0.00     0.273 C 
BRANCH  30  31
HETATM   31  C   UNL     1       7.651  27.255  55.021  1.00  0.00    -0.033 A 
HETATM   32  C   UNL     1       8.055  28.598  55.092  1.00  0.00     0.009 A 
HETATM   33  C   UNL     1       8.318  29.192  56.328  1.00  0.00     0.001 A 
HETATM   34  C   UNL     1       8.177  28.455  57.500  1.00  0.00     0.000 A 
HETATM   35  C   UNL     1       7.767  27.124  57.443  1.00  0.00     0.001 A 
HETATM   36  C   UNL     1       7.502  26.526  56.210  1.00  0.00     0.009 A 
ENDBRANCH  30  31
ENDBRANCH  21  30
ENDBRANCH  20  21
ENDBRANCH  17  20
ENDBRANCH  16  17
ENDBRANCH  14  16
BRANCH  13  37
HETATM   37  C   UNL     1       2.746  29.497  49.539  1.00  0.00     0.203 C 
BRANCH  37  38
HETATM   38  C   UNL     1       1.977  28.802  48.463  1.00  0.00     0.070 A 
HETATM   39  O   UNL     1       1.658  27.488  48.676  1.00  0.00    -0.325 OA
HETATM   40  C   UNL     1       0.950  27.076  47.593  1.00  0.00     0.142 A 
HETATM   41  C   UNL     1       0.809  28.101  46.688  1.00  0.00     0.027 A 
HETATM   42  C   UNL     1       1.473  29.218  47.249  1.00  0.00     0.036 A 
ENDBRANCH  37  38
ENDBRANCH  13  37
TORSDOF 11
ENDMDL
MODEL 7
REMARK VINA RESULT:      -8.6      1.677      2.158
REMARK  11 active torsions:
REMARK  status: ('A' for Active; 'I' for Inactive)
REMARK    1  A    between atoms: N_13  and  C_14 
REMARK    2  A    between atoms: C_14  and  C_15 
REMARK    3  A    between atoms: N_20  and  C_21 
REMARK    4  A    between atoms: C_21  and  C_22 
REMARK    5  A    between atoms: C_22  and  O_23 
REMARK    6  A    between atoms: C_22  and  C_24 
REMARK    7  A    between atoms: C_24  and  N_25 
REMARK    8  A    between atoms: N_25  and  C_27 
REMARK    9  A    between atoms: N_25  and  C_34 
REMARK   10  A    between atoms: C_27  and  C_28 
REMARK   11  A    between atoms: C_34  and  C_35 
ROOT
HETATM    1  C   UNL     1       3.576  33.574  56.320  1.00  0.00     0.163 C 
HETATM    2  N   UNL     1       4.522  32.682  56.971  1.00  0.00    -0.285 N 
HETATM    3  C   UNL     1       5.069  33.015  58.214  1.00  0.00     0.332 A 
HETATM    4  O   UNL     1       4.782  34.066  58.788  1.00  0.00    -0.246 OA
HETATM    5  N   UNL     1       5.988  32.100  58.774  1.00  0.00    -0.269 N 
HETATM    6  C   UNL     1       6.579  32.439  60.054  1.00  0.00     0.164 C 
HETATM    7  C   UNL     1       6.479  30.960  58.139  1.00  0.00     0.282 A 
HETATM    8  O   UNL     1       7.402  30.264  58.557  1.00  0.00    -0.265 OA
HETATM    9  C   UNL     1       5.841  30.694  56.899  1.00  0.00     0.166 A 
HETATM   10  C   UNL     1       4.920  31.525  56.346  1.00  0.00     0.186 A 
HETATM   11  N   UNL     1       4.526  31.092  55.120  1.00  0.00    -0.044 NA
HETATM   12  C   UNL     1       5.191  29.975  54.913  1.00  0.00     0.705 A 
HETATM   13  N   UNL     1       5.172  29.208  53.803  1.00  0.00    -0.218 N 
HETATM   14  N   UNL     1       6.009  29.687  55.986  1.00  0.00    -0.170 N 
HETATM   15  H   UNL     1       5.286  28.201  53.877  1.00  0.00     0.178 HD
ENDROOT
BRANCH  14  16
HETATM   16  C   UNL     1       6.983  28.612  56.093  1.00  0.00     0.181 C 
BRANCH  16  17
HETATM   17  C   UNL     1       6.320  27.320  56.582  1.00  0.00     0.163 C 
BRANCH  17  18
HETATM   18  O   UNL     1       5.326  27.598  57.574  1.00  0.00    -0.392 OA
HETATM   19  H   UNL     1       5.750  27.548  58.458  1.00  0.00     0.210 HD
ENDBRANCH  17  18
BRANCH  17  20
HETATM   20  C   UNL     1       7.339  26.294  57.127  1.00  0.00     0.268 C 
BRANCH  20  21
HETATM   21  N   UNL     1       7.719  25.159  56.170  1.00  0.00    -0.061 N 
HETATM   22  H   UNL     1       8.268  25.541  55.396  1.00  0.00     0.280 HD
BRANCH  21  23
HETATM   23  C   UNL     1       8.582  24.095  56.836  1.00  0.00     0.273 C 
BRANCH  23  24
HETATM   24  C   UNL     1       8.550  22.740  56.178  1.00  0.00    -0.033 A 
HETATM   25  C   UNL     1       8.041  21.623  56.858  1.00  0.00     0.009 A 
HETATM   26  C   UNL     1       8.031  20.369  56.245  1.00  0.00     0.001 A 
HETATM   27  C   UNL     1       8.522  20.221  54.950  1.00  0.00     0.000 A 
HETATM   28  C   UNL     1       9.020  21.324  54.262  1.00  0.00     0.001 A 
HETATM   29  C   UNL     1       9.036  22.579  54.871  1.00  0.00     0.009 A 
ENDBRANCH  23  24
ENDBRANCH  21  23
BRANCH  21  30
HETATM   30  C   UNL     1       6.466  24.567  55.530  1.00  0.00     0.273 C 
BRANCH  30  31
HETATM   31  C   UNL     1       6.323  24.919  54.071  1.00  0.00    -0.033 A 
HETATM   32  C   UNL     1       5.049  25.077  53.502  1.00  0.00     0.009 A 
HETATM   33  C   UNL     1       4.915  25.389  52.147  1.00  0.00     0.001 A 
HETATM   34  C   UNL     1       6.047  25.548  51.353  1.00  0.00     0.000 A 
HETATM   35  C   UNL     1       7.317  25.403  51.909  1.00  0.00     0.001 A 
HETATM   36  C   UNL     1       7.456  25.092  53.263  1.00  0.00     0.009 A 
ENDBRANCH  30  31
ENDBRANCH  21  30
ENDBRANCH  20  21
ENDBRANCH  17  20
ENDBRANCH  16  17
ENDBRANCH  14  16
BRANCH  13  37
HETATM   37  C   UNL     1       4.126  29.503  52.817  1.00  0.00     0.203 C 
BRANCH  37  38
HETATM   38  C   UNL     1       4.483  29.077  51.430  1.00  0.00     0.070 A 
HETATM   39  O   UNL     1       3.514  28.435  50.707  1.00  0.00    -0.325 OA
HETATM   40  C   UNL     1       4.047  28.167  49.487  1.00  0.00     0.142 A 
HETATM   41  C   UNL     1       5.341  28.624  49.413  1.00  0.00     0.027 A 
HETATM   42  C   UNL     1       5.625  29.213  50.669  1.00  0.00     0.036 A 
ENDBRANCH  37  38
ENDBRANCH  13  37
TORSDOF 11
ENDMDL
MODEL 8
REMARK VINA RESULT:      -8.5      3.012      8.385
REMARK  11 active torsions:
REMARK  status: ('A' for Active; 'I' for Inactive)
REMARK    1  A    between atoms: N_13  and  C_14 
REMARK    2  A    between atoms: C_14  and  C_15 
REMARK    3  A    between atoms: N_20  and  C_21 
REMARK    4  A    between atoms: C_21  and  C_22 
REMARK    5  A    between atoms: C_22  and  O_23 
REMARK    6  A    between atoms: C_22  and  C_24 
REMARK    7  A    between atoms: C_24  and  N_25 
REMARK    8  A    between atoms: N_25  and  C_27 
REMARK    9  A    between atoms: N_25  and  C_34 
REMARK   10  A    between atoms: C_27  and  C_28 
REMARK   11  A    between atoms: C_34  and  C_35 
ROOT
HETATM    1  C   UNL     1       8.459  21.708  57.564  1.00  0.00     0.163 C 
HETATM    2  N   UNL     1       8.228  22.009  56.160  1.00  0.00    -0.285 N 
HETATM    3  C   UNL     1       8.364  21.011  55.190  1.00  0.00     0.332 A 
HETATM    4  O   UNL     1       8.692  19.860  55.486  1.00  0.00    -0.246 OA
HETATM    5  N   UNL     1       8.132  21.387  53.849  1.00  0.00    -0.269 N 
HETATM    6  C   UNL     1       8.287  20.368  52.829  1.00  0.00     0.164 C 
HETATM    7  C   UNL     1       7.897  22.688  53.405  1.00  0.00     0.282 A 
HETATM    8  O   UNL     1       7.866  23.035  52.226  1.00  0.00    -0.265 OA
HETATM    9  C   UNL     1       7.746  23.619  54.466  1.00  0.00     0.166 A 
HETATM   10  C   UNL     1       7.917  23.290  55.772  1.00  0.00     0.186 A 
HETATM   11  N   UNL     1       7.805  24.375  56.582  1.00  0.00    -0.044 NA
HETATM   12  C   UNL     1       7.545  25.385  55.780  1.00  0.00     0.705 A 
HETATM   13  N   UNL     1       7.405  26.683  56.120  1.00  0.00    -0.218 N 
HETATM   14  N   UNL     1       7.493  24.966  54.466  1.00  0.00    -0.170 N 
HETATM   15  H   UNL     1       6.767  27.280  55.603  1.00  0.00     0.178 HD
ENDROOT
BRANCH  14  16
HETATM   16  C   UNL     1       7.348  25.792  53.277  1.00  0.00     0.181 C 
BRANCH  16  17
HETATM   17  C   UNL     1       5.869  26.023  52.950  1.00  0.00     0.163 C 
BRANCH  17  18
HETATM   18  O   UNL     1       5.067  24.928  53.403  1.00  0.00    -0.392 OA
HETATM   19  H   UNL     1       4.221  25.288  53.749  1.00  0.00     0.210 HD
ENDBRANCH  17  18
BRANCH  17  20
HETATM   20  C   UNL     1       5.622  26.273  51.445  1.00  0.00     0.268 C 
BRANCH  20  21
HETATM   21  N   UNL     1       5.045  27.647  51.084  1.00  0.00    -0.061 N 
HETATM   22  H   UNL     1       4.050  27.667  51.319  1.00  0.00     0.280 HD
BRANCH  21  23
HETATM   23  C   UNL     1       5.703  28.781  51.860  1.00  0.00     0.273 C 
BRANCH  23  24
HETATM   24  C   UNL     1       4.765  29.614  52.695  1.00  0.00    -0.033 A 
HETATM   25  C   UNL     1       4.000  30.637  52.112  1.00  0.00     0.009 A 
HETATM   26  C   UNL     1       3.146  31.413  52.897  1.00  0.00     0.001 A 
HETATM   27  C   UNL     1       3.045  31.172  54.265  1.00  0.00     0.000 A 
HETATM   28  C   UNL     1       3.791  30.155  54.853  1.00  0.00     0.001 A 
HETATM   29  C   UNL     1       4.648  29.378  54.074  1.00  0.00     0.009 A 
ENDBRANCH  23  24
ENDBRANCH  21  23
BRANCH  21  30
HETATM   30  C   UNL     1       5.112  27.867  49.575  1.00  0.00     0.273 C 
BRANCH  30  31
HETATM   31  C   UNL     1       3.852  27.454  48.860  1.00  0.00    -0.033 A 
HETATM   32  C   UNL     1       3.867  26.375  47.961  1.00  0.00     0.009 A 
HETATM   33  C   UNL     1       2.703  26.001  47.286  1.00  0.00     0.001 A 
HETATM   34  C   UNL     1       1.517  26.697  47.504  1.00  0.00     0.000 A 
HETATM   35  C   UNL     1       1.488  27.763  48.400  1.00  0.00     0.001 A 
HETATM   36  C   UNL     1       2.648  28.140  49.078  1.00  0.00     0.009 A 
ENDBRANCH  30  31
ENDBRANCH  21  30
ENDBRANCH  20  21
ENDBRANCH  17  20
ENDBRANCH  16  17
ENDBRANCH  14  16
BRANCH  13  37
HETATM   37  C   UNL     1       7.285  26.978  57.553  1.00  0.00     0.203 C 
BRANCH  37  38
HETATM   38  C   UNL     1       7.257  28.441  57.856  1.00  0.00     0.070 A 
HETATM   39  O   UNL     1       8.287  28.940  58.607  1.00  0.00    -0.325 OA
HETATM   40  C   UNL     1       8.068  30.275  58.735  1.00  0.00     0.142 A 
HETATM   41  C   UNL     1       6.917  30.641  58.081  1.00  0.00     0.027 A 
HETATM   42  C   UNL     1       6.390  29.457  57.511  1.00  0.00     0.036 A 
ENDBRANCH  37  38
ENDBRANCH  13  37
TORSDOF 11
ENDMDL
MODEL 9
REMARK VINA RESULT:      -8.5      2.211      6.343
REMARK  11 active torsions:
REMARK  status: ('A' for Active; 'I' for Inactive)
REMARK    1  A    between atoms: N_13  and  C_14 
REMARK    2  A    between atoms: C_14  and  C_15 
REMARK    3  A    between atoms: N_20  and  C_21 
REMARK    4  A    between atoms: C_21  and  C_22 
REMARK    5  A    between atoms: C_22  and  O_23 
REMARK    6  A    between atoms: C_22  and  C_24 
REMARK    7  A    between atoms: C_24  and  N_25 
REMARK    8  A    between atoms: N_25  and  C_27 
REMARK    9  A    between atoms: N_25  and  C_34 
REMARK   10  A    between atoms: C_27  and  C_28 
REMARK   11  A    between atoms: C_34  and  C_35 
ROOT
HETATM    1  C   UNL     1       4.645  33.465  57.450  1.00  0.00     0.163 C 
HETATM    2  N   UNL     1       4.347  32.683  56.261  1.00  0.00    -0.285 N 
HETATM    3  C   UNL     1       3.452  33.166  55.302  1.00  0.00     0.332 A 
HETATM    4  O   UNL     1       2.883  34.251  55.434  1.00  0.00    -0.246 OA
HETATM    5  N   UNL     1       3.210  32.342  54.181  1.00  0.00    -0.269 N 
HETATM    6  C   UNL     1       2.269  32.820  53.185  1.00  0.00     0.164 C 
HETATM    7  C   UNL     1       3.695  31.046  54.013  1.00  0.00     0.282 A 
HETATM    8  O   UNL     1       3.345  30.273  53.123  1.00  0.00    -0.265 OA
HETATM    9  C   UNL     1       4.616  30.661  55.022  1.00  0.00     0.166 A 
HETATM   10  C   UNL     1       4.911  31.442  56.094  1.00  0.00     0.186 A 
HETATM   11  N   UNL     1       5.750  30.812  56.956  1.00  0.00    -0.044 NA
HETATM   12  C   UNL     1       5.995  29.639  56.414  1.00  0.00     0.705 A 
HETATM   13  N   UNL     1       6.736  28.637  56.933  1.00  0.00    -0.218 N 
HETATM   14  N   UNL     1       5.323  29.503  55.217  1.00  0.00    -0.170 N 
HETATM   15  H   UNL     1       7.262  28.021  56.320  1.00  0.00     0.178 HD
ENDROOT
BRANCH  14  16
HETATM   16  C   UNL     1       5.239  28.319  54.376  1.00  0.00     0.181 C 
BRANCH  16  17
HETATM   17  C   UNL     1       6.393  28.283  53.367  1.00  0.00     0.163 C 
BRANCH  17  18
HETATM   18  O   UNL     1       6.196  29.249  52.330  1.00  0.00    -0.392 OA
HETATM   19  H   UNL     1       6.428  30.135  52.684  1.00  0.00     0.210 HD
ENDBRANCH  17  18
BRANCH  17  20
HETATM   20  C   UNL     1       6.606  26.881  52.752  1.00  0.00     0.268 C 
BRANCH  20  21
HETATM   21  N   UNL     1       5.370  26.242  52.110  1.00  0.00    -0.061 N 
HETATM   22  H   UNL     1       4.554  26.834  52.285  1.00  0.00     0.280 HD
BRANCH  21  23
HETATM   23  C   UNL     1       5.499  26.109  50.597  1.00  0.00     0.273 C 
BRANCH  23  24
HETATM   24  C   UNL     1       4.356  26.687  49.804  1.00  0.00    -0.033 A 
HETATM   25  C   UNL     1       3.779  25.966  48.746  1.00  0.00     0.009 A 
HETATM   26  C   UNL     1       2.731  26.518  48.006  1.00  0.00     0.001 A 
HETATM   27  C   UNL     1       2.248  27.786  48.319  1.00  0.00     0.000 A 
HETATM   28  C   UNL     1       2.806  28.506  49.372  1.00  0.00     0.001 A 
HETATM   29  C   UNL     1       3.855  27.961  50.112  1.00  0.00     0.009 A 
ENDBRANCH  23  24
ENDBRANCH  21  23
BRANCH  21  30
HETATM   30  C   UNL     1       5.057  24.907  52.780  1.00  0.00     0.273 C 
BRANCH  30  31
HETATM   31  C   UNL     1       6.245  24.307  53.487  1.00  0.00    -0.033 A 
HETATM   32  C   UNL     1       6.431  24.514  54.864  1.00  0.00     0.009 A 
HETATM   33  C   UNL     1       7.540  23.970  55.516  1.00  0.00     0.001 A 
HETATM   34  C   UNL     1       8.468  23.216  54.804  1.00  0.00     0.000 A 
HETATM   35  C   UNL     1       8.289  22.995  53.440  1.00  0.00     0.001 A 
HETATM   36  C   UNL     1       7.182  23.536  52.783  1.00  0.00     0.009 A 
ENDBRANCH  30  31
ENDBRANCH  21  30
ENDBRANCH  20  21
ENDBRANCH  17  20
ENDBRANCH  16  17
ENDBRANCH  14  16
BRANCH  13  37
HETATM   37  C   UNL     1       7.556  28.965  58.105  1.00  0.00     0.203 C 
BRANCH  37  38
HETATM   38  C   UNL     1       8.905  29.501  57.753  1.00  0.00     0.070 A 
HETATM   39  O   UNL     1       9.246  30.720  58.275  1.00  0.00    -0.325 OA
HETATM   40  C   UNL     1      10.506  30.992  57.846  1.00  0.00     0.142 A 
HETATM   41  C   UNL     1      10.980  29.971  57.059  1.00  0.00     0.027 A 
HETATM   42  C   UNL     1       9.946  29.005  56.997  1.00  0.00     0.036 A 
ENDBRANCH  37  38
ENDBRANCH  13  37
TORSDOF 11
ENDMDL
MODEL 10
REMARK VINA RESULT:      -8.4      3.045      7.722
REMARK  11 active torsions:
REMARK  status: ('A' for Active; 'I' for Inactive)
REMARK    1  A    between atoms: N_13  and  C_14 
REMARK    2  A    between atoms: C_14  and  C_15 
REMARK    3  A    between atoms: N_20  and  C_21 
REMARK    4  A    between atoms: C_21  and  C_22 
REMARK    5  A    between atoms: C_22  and  O_23 
REMARK    6  A    between atoms: C_22  and  C_24 
REMARK    7  A    between atoms: C_24  and  N_25 
REMARK    8  A    between atoms: N_25  and  C_27 
REMARK    9  A    between atoms: N_25  and  C_34 
REMARK   10  A    between atoms: C_27  and  C_28 
REMARK   11  A    between atoms: C_34  and  C_35 
ROOT
HETATM    1  C   UNL     1       1.467  30.174  49.397  1.00  0.00     0.163 C 
HETATM    2  N   UNL     1       2.498  29.158  49.533  1.00  0.00    -0.285 N 
HETATM    3  C   UNL     1       2.593  28.117  48.605  1.00  0.00     0.332 A 
HETATM    4  O   UNL     1       1.810  28.018  47.658  1.00  0.00    -0.246 OA
HETATM    5  N   UNL     1       3.615  27.165  48.814  1.00  0.00    -0.269 N 
HETATM    6  C   UNL     1       3.717  26.068  47.871  1.00  0.00     0.164 C 
HETATM    7  C   UNL     1       4.454  27.114  49.926  1.00  0.00     0.282 A 
HETATM    8  O   UNL     1       5.223  26.191  50.187  1.00  0.00    -0.265 OA
HETATM    9  C   UNL     1       4.300  28.229  50.792  1.00  0.00     0.166 A 
HETATM   10  C   UNL     1       3.359  29.190  50.603  1.00  0.00     0.186 A 
HETATM   11  N   UNL     1       3.359  30.097  51.614  1.00  0.00    -0.044 NA
HETATM   12  C   UNL     1       4.316  29.712  52.430  1.00  0.00     0.705 A 
HETATM   13  N   UNL     1       4.658  30.272  53.609  1.00  0.00    -0.218 N 
HETATM   14  N   UNL     1       4.929  28.569  51.961  1.00  0.00    -0.170 N 
HETATM   15  H   UNL     1       5.626  30.259  53.919  1.00  0.00     0.178 HD
ENDROOT
BRANCH  14  16
HETATM   16  C   UNL     1       5.945  27.770  52.628  1.00  0.00     0.181 C 
BRANCH  16  17
HETATM   17  C   UNL     1       5.318  26.873  53.701  1.00  0.00     0.163 C 
BRANCH  17  18
HETATM   18  O   UNL     1       3.889  26.928  53.643  1.00  0.00    -0.392 OA
HETATM   19  H   UNL     1       3.543  26.009  53.663  1.00  0.00     0.210 HD
ENDBRANCH  17  18
BRANCH  17  20
HETATM   20  C   UNL     1       5.803  27.218  55.127  1.00  0.00     0.268 C 
BRANCH  20  21
HETATM   21  N   UNL     1       6.736  26.192  55.780  1.00  0.00    -0.061 N 
HETATM   22  H   UNL     1       7.619  26.164  55.265  1.00  0.00     0.280 HD
BRANCH  21  23
HETATM   23  C   UNL     1       7.080  26.547  57.221  1.00  0.00     0.273 C 
BRANCH  23  24
HETATM   24  C   UNL     1       7.848  27.831  57.399  1.00  0.00    -0.033 A 
HETATM   25  C   UNL     1       7.292  28.908  58.107  1.00  0.00     0.009 A 
HETATM   26  C   UNL     1       8.005  30.099  58.253  1.00  0.00     0.001 A 
HETATM   27  C   UNL     1       9.277  30.223  57.699  1.00  0.00     0.000 A 
HETATM   28  C   UNL     1       9.843  29.158  57.003  1.00  0.00     0.001 A 
HETATM   29  C   UNL     1       9.133  27.967  56.852  1.00  0.00     0.009 A 
ENDBRANCH  23  24
ENDBRANCH  21  23
BRANCH  21  30
HETATM   30  C   UNL     1       6.147  24.790  55.657  1.00  0.00     0.273 C 
BRANCH  30  31
HETATM   31  C   UNL     1       7.069  23.818  54.967  1.00  0.00    -0.033 A 
HETATM   32  C   UNL     1       7.164  23.802  53.565  1.00  0.00     0.009 A 
HETATM   33  C   UNL     1       8.007  22.892  52.925  1.00  0.00     0.001 A 
HETATM   34  C   UNL     1       8.763  21.995  53.674  1.00  0.00     0.000 A 
HETATM   35  C   UNL     1       8.685  22.008  55.065  1.00  0.00     0.001 A 
HETATM   36  C   UNL     1       7.845  22.916  55.711  1.00  0.00     0.009 A 
ENDBRANCH  30  31
ENDBRANCH  21  30
ENDBRANCH  20  21
ENDBRANCH  17  20
ENDBRANCH  16  17
ENDBRANCH  14  16
BRANCH  13  37
HETATM   37  C   UNL     1       4.076  31.586  53.907  1.00  0.00     0.203 C 
BRANCH  37  38
HETATM   38  C   UNL     1       4.492  32.131  55.235  1.00  0.00     0.070 A 
HETATM   39  O   UNL     1       4.246  33.457  55.468  1.00  0.00    -0.325 OA
HETATM   40  C   UNL     1       4.680  33.721  56.728  1.00  0.00     0.142 A 
HETATM   41  C   UNL     1       5.200  32.589  57.307  1.00  0.00     0.027 A 
HETATM   42  C   UNL     1       5.080  31.559  56.344  1.00  0.00     0.036 A 
ENDBRANCH  37  38
ENDBRANCH  13  37
TORSDOF 11
ENDMDL
