MODEL 1
REMARK VINA RESULT:      -8.5      0.000      0.000
REMARK  6 active torsions:
REMARK  status: ('A' for Active; 'I' for Inactive)
REMARK    1  A    between atoms: C_6  and  C_7 
REMARK    2  A    between atoms: C_7  and  N_8 
REMARK    3  A    between atoms: C_7  and  C_24 
REMARK       I    between atoms: N_8  and  C_9 
REMARK       I    between atoms: C_9  and  N_10 
REMARK    4  A    between atoms: N_10  and  C_11 
REMARK    5  A    between atoms: C_14  and  C_15 
REMARK    6  A    between atoms: C_24  and  O_25 
ROOT
HETATM    1  N   UNL     1       3.845  27.033  49.796  1.00  0.00    -0.331 N 
HETATM    2  C   UNL     1       4.944  26.883  50.613  1.00  0.00     0.321 C 
HETATM    3  N   UNL     1       4.816  25.756  51.392  1.00  0.00    -0.309 N 
HETATM    4  O   UNL     1       5.877  27.673  50.607  1.00  0.00    -0.247 OA
HETATM    5  H   UNL     1       3.336  26.193  49.569  1.00  0.00     0.165 HD
HETATM    6  H   UNL     1       3.878  25.391  51.474  1.00  0.00     0.170 HD
ENDROOT
BRANCH   1   7
HETATM    7  C   UNL     1       3.772  28.117  48.829  1.00  0.00     0.161 C 
BRANCH   7   8
HETATM    8  C   UNL     1       2.850  29.132  49.441  1.00  0.00     0.056 A 
HETATM    9  N   UNL     1       3.267  30.369  49.874  1.00  0.00    -0.277 N 
HETATM   10  C   UNL     1       4.604  30.914  49.827  1.00  0.00     0.179 C 
HETATM   11  N   UNL     1       2.277  31.105  50.417  1.00  0.00    -0.185 NA
HETATM   12  C   UNL     1       1.198  30.336  50.296  1.00  0.00     0.141 A 
HETATM   13  C   UNL     1       1.492  29.096  49.705  1.00  0.00     0.050 A 
ENDBRANCH   7   8
BRANCH   7  14
HETATM   14  C   UNL     1       3.293  27.647  47.435  1.00  0.00     0.198 C 
BRANCH  14  15
HETATM   15  O   UNL     1       3.809  26.341  47.147  1.00  0.00    -0.394 OA
HETATM   16  C   UNL     1       2.764  25.418  46.871  1.00  0.00     0.201 C 
ENDBRANCH  14  15
ENDBRANCH   7  14
ENDBRANCH   1   7
BRANCH   3  17
HETATM   17  C   UNL     1       5.792  25.168  52.218  1.00  0.00     0.036 A 
HETATM   18  C   UNL     1       7.066  24.814  51.783  1.00  0.00     0.030 A 
HETATM   19  C   UNL     1       7.967  24.195  52.659  1.00  0.00     0.010 A 
HETATM   20  C   UNL     1       7.629  23.922  53.998  1.00  0.00    -0.054 A 
HETATM   21  C   UNL     1       6.338  24.265  54.412  1.00  0.00     0.010 A 
HETATM   22  C   UNL     1       5.434  24.882  53.537  1.00  0.00     0.030 A 
BRANCH  20  23
HETATM   23  C   UNL     1       8.651  23.218  54.890  1.00  0.00     0.018 C 
HETATM   24  C   UNL     1       8.006  22.555  56.128  1.00  0.00     0.009 C 
HETATM   25  C   UNL     1       7.315  21.234  55.796  1.00  0.00     0.001 C 
HETATM   26  C   UNL     1       8.287  20.251  55.157  1.00  0.00     0.000 C 
HETATM   27  C   UNL     1       8.950  20.845  53.920  1.00  0.00     0.001 C 
HETATM   28  C   UNL     1       9.596  22.204  54.205  1.00  0.00     0.009 C 
ENDBRANCH  20  23
ENDBRANCH   3  17
TORSDOF 6
ENDMDL
MODEL 2
REMARK VINA RESULT:      -8.4      6.632      9.180
REMARK  6 active torsions:
REMARK  status: ('A' for Active; 'I' for Inactive)
REMARK    1  A    between atoms: C_6  and  C_7 
REMARK    2  A    between atoms: C_7  and  N_8 
REMARK    3  A    between atoms: C_7  and  C_24 
REMARK       I    between atoms: N_8  and  C_9 
REMARK       I    between atoms: C_9  and  N_10 
REMARK    4  A    between atoms: N_10  and  C_11 
REMARK    5  A    between atoms: C_14  and  C_15 
REMARK    6  A    between atoms: C_24  and  O_25 
ROOT
HETATM    1  N   UNL     1       7.137  26.000  54.892  1.00  0.00    -0.331 N 
HETATM    2  C   UNL     1       7.147  26.683  56.088  1.00  0.00     0.321 C 
HETATM    3  N   UNL     1       7.892  27.835  55.979  1.00  0.00    -0.309 N 
HETATM    4  O   UNL     1       6.557  26.278  57.079  1.00  0.00    -0.247 OA
HETATM    5  H   UNL     1       7.290  26.547  54.059  1.00  0.00     0.165 HD
HETATM    6  H   UNL     1       8.529  27.866  55.196  1.00  0.00     0.170 HD
ENDROOT
BRANCH   1   7
HETATM    7  C   UNL     1       6.362  24.780  54.731  1.00  0.00     0.161 C 
BRANCH   7   8
HETATM    8  C   UNL     1       7.362  23.720  54.366  1.00  0.00     0.056 A 
HETATM    9  N   UNL     1       8.118  23.042  55.293  1.00  0.00    -0.277 N 
HETATM   10  C   UNL     1       8.104  23.201  56.729  1.00  0.00     0.179 C 
HETATM   11  N   UNL     1       8.972  22.158  54.741  1.00  0.00    -0.185 NA
HETATM   12  C   UNL     1       8.730  22.247  53.435  1.00  0.00     0.141 A 
HETATM   13  C   UNL     1       7.747  23.206  53.140  1.00  0.00     0.050 A 
ENDBRANCH   7   8
BRANCH   7  14
HETATM   14  C   UNL     1       5.235  24.917  53.680  1.00  0.00     0.198 C 
BRANCH  14  15
HETATM   15  O   UNL     1       5.397  26.131  52.935  1.00  0.00    -0.394 OA
HETATM   16  C   UNL     1       5.535  25.873  51.544  1.00  0.00     0.201 C 
ENDBRANCH  14  15
ENDBRANCH   7  14
ENDBRANCH   1   7
BRANCH   3  17
HETATM   17  C   UNL     1       7.998  28.880  56.916  1.00  0.00     0.036 A 
HETATM   18  C   UNL     1       6.920  29.641  57.356  1.00  0.00     0.030 A 
HETATM   19  C   UNL     1       7.116  30.692  58.261  1.00  0.00     0.010 A 
HETATM   20  C   UNL     1       8.391  31.007  58.765  1.00  0.00    -0.054 A 
HETATM   21  C   UNL     1       9.468  30.245  58.296  1.00  0.00     0.010 A 
HETATM   22  C   UNL     1       9.274  29.195  57.388  1.00  0.00     0.030 A 
BRANCH  20  23
HETATM   23  C   UNL     1       8.537  32.185  59.727  1.00  0.00     0.018 C 
HETATM   24  C   UNL     1       7.243  32.472  60.520  1.00  0.00     0.009 C 
HETATM   25  C   UNL     1       7.029  31.495  61.674  1.00  0.00     0.001 C 
HETATM   26  C   UNL     1       8.213  31.511  62.633  1.00  0.00     0.000 C 
HETATM   27  C   UNL     1       9.522  31.222  61.910  1.00  0.00     0.001 C 
HETATM   28  C   UNL     1       9.734  32.144  60.705  1.00  0.00     0.009 C 
ENDBRANCH  20  23
ENDBRANCH   3  17
TORSDOF 6
ENDMDL
MODEL 3
REMARK VINA RESULT:      -8.3      6.591      8.328
REMARK  6 active torsions:
REMARK  status: ('A' for Active; 'I' for Inactive)
REMARK    1  A    between atoms: C_6  and  C_7 
REMARK    2  A    between atoms: C_7  and  N_8 
REMARK    3  A    between atoms: C_7  and  C_24 
REMARK       I    between atoms: N_8  and  C_9 
REMARK       I    between atoms: C_9  and  N_10 
REMARK    4  A    between atoms: N_10  and  C_11 
REMARK    5  A    between atoms: C_14  and  C_15 
REMARK    6  A    between atoms: C_24  and  O_25 
ROOT
HETATM    1  N   UNL     1       6.855  29.375  58.095  1.00  0.00    -0.331 N 
HETATM    2  C   UNL     1       7.732  28.473  57.534  1.00  0.00     0.321 C 
HETATM    3  N   UNL     1       7.273  27.186  57.700  1.00  0.00    -0.309 N 
HETATM    4  O   UNL     1       8.762  28.822  56.976  1.00  0.00    -0.247 OA
HETATM    5  H   UNL     1       5.895  29.078  58.175  1.00  0.00     0.165 HD
HETATM    6  H   UNL     1       6.572  27.066  58.417  1.00  0.00     0.170 HD
ENDROOT
BRANCH   1   7
HETATM    7  C   UNL     1       7.084  30.807  57.993  1.00  0.00     0.161 C 
BRANCH   7   8
HETATM    8  C   UNL     1       7.749  31.195  59.283  1.00  0.00     0.056 A 
HETATM    9  N   UNL     1       9.086  31.497  59.384  1.00  0.00    -0.277 N 
HETATM   10  C   UNL     1      10.070  31.507  58.326  1.00  0.00     0.179 C 
HETATM   11  N   UNL     1       9.475  31.788  60.642  1.00  0.00    -0.185 NA
HETATM   12  C   UNL     1       8.353  31.703  61.353  1.00  0.00     0.141 A 
HETATM   13  C   UNL     1       7.251  31.331  60.567  1.00  0.00     0.050 A 
ENDBRANCH   7   8
BRANCH   7  14
HETATM   14  C   UNL     1       5.786  31.607  57.734  1.00  0.00     0.198 C 
BRANCH  14  15
HETATM   15  O   UNL     1       5.994  32.996  58.021  1.00  0.00    -0.394 OA
HETATM   16  C   UNL     1       4.824  33.597  58.561  1.00  0.00     0.201 C 
ENDBRANCH  14  15
ENDBRANCH   7  14
ENDBRANCH   1   7
BRANCH   3  17
HETATM   17  C   UNL     1       7.788  26.010  57.122  1.00  0.00     0.036 A 
HETATM   18  C   UNL     1       8.597  25.103  57.798  1.00  0.00     0.030 A 
HETATM   19  C   UNL     1       9.102  23.976  57.137  1.00  0.00     0.010 A 
HETATM   20  C   UNL     1       8.804  23.712  55.788  1.00  0.00    -0.054 A 
HETATM   21  C   UNL     1       8.005  24.646  55.118  1.00  0.00     0.010 A 
HETATM   22  C   UNL     1       7.501  25.776  55.775  1.00  0.00     0.030 A 
BRANCH  20  23
HETATM   23  C   UNL     1       9.412  22.478  55.121  1.00  0.00     0.018 C 
HETATM   24  C   UNL     1       9.063  21.167  55.861  1.00  0.00     0.009 C 
HETATM   25  C   UNL     1       7.644  20.685  55.567  1.00  0.00     0.001 C 
HETATM   26  C   UNL     1       7.431  20.484  54.071  1.00  0.00     0.000 C 
HETATM   27  C   UNL     1       7.750  21.750  53.287  1.00  0.00     0.001 C 
HETATM   28  C   UNL     1       9.143  22.297  53.610  1.00  0.00     0.009 C 
ENDBRANCH  20  23
ENDBRANCH   3  17
TORSDOF 6
ENDMDL
MODEL 4
REMARK VINA RESULT:      -8.1      1.400      2.376
REMARK  6 active torsions:
REMARK  status: ('A' for Active; 'I' for Inactive)
REMARK    1  A    between atoms: C_6  and  C_7 
REMARK    2  A    between atoms: C_7  and  N_8 
REMARK    3  A    between atoms: C_7  and  C_24 
REMARK       I    between atoms: N_8  and  C_9 
REMARK       I    between atoms: C_9  and  N_10 
REMARK    4  A    between atoms: N_10  and  C_11 
REMARK    5  A    between atoms: C_14  and  C_15 
REMARK    6  A    between atoms: C_24  and  O_25 
ROOT
HETATM    1  N   UNL     1       4.014  26.973  50.320  1.00  0.00    -0.331 N 
HETATM    2  C   UNL     1       4.997  26.778  51.265  1.00  0.00     0.321 C 
HETATM    3  N   UNL     1       4.905  25.515  51.804  1.00  0.00    -0.309 N 
HETATM    4  O   UNL     1       5.814  27.642  51.548  1.00  0.00    -0.247 OA
HETATM    5  H   UNL     1       3.653  26.146  49.870  1.00  0.00     0.165 HD
HETATM    6  H   UNL     1       4.019  25.050  51.668  1.00  0.00     0.170 HD
ENDROOT
BRANCH   1   7
HETATM    7  C   UNL     1       3.941  28.209  49.558  1.00  0.00     0.161 C 
BRANCH   7   8
HETATM    8  C   UNL     1       2.694  28.090  48.729  1.00  0.00     0.056 A 
HETATM    9  N   UNL     1       1.848  29.145  48.481  1.00  0.00    -0.277 N 
HETATM   10  C   UNL     1       1.980  30.509  48.938  1.00  0.00     0.179 C 
HETATM   11  N   UNL     1       0.775  28.805  47.739  1.00  0.00    -0.185 NA
HETATM   12  C   UNL     1       0.959  27.512  47.480  1.00  0.00     0.141 A 
HETATM   13  C   UNL     1       2.128  27.011  48.074  1.00  0.00     0.050 A 
ENDBRANCH   7   8
BRANCH   7  14
HETATM   14  C   UNL     1       5.201  28.462  48.697  1.00  0.00     0.198 C 
BRANCH  14  15
HETATM   15  O   UNL     1       5.373  29.866  48.470  1.00  0.00    -0.394 OA
HETATM   16  C   UNL     1       5.695  30.553  49.672  1.00  0.00     0.201 C 
ENDBRANCH  14  15
ENDBRANCH   7  14
ENDBRANCH   1   7
BRANCH   3  17
HETATM   17  C   UNL     1       5.822  24.878  52.661  1.00  0.00     0.036 A 
HETATM   18  C   UNL     1       5.684  24.825  54.045  1.00  0.00     0.030 A 
HETATM   19  C   UNL     1       6.664  24.207  54.832  1.00  0.00     0.010 A 
HETATM   20  C   UNL     1       7.804  23.610  54.261  1.00  0.00    -0.054 A 
HETATM   21  C   UNL     1       7.937  23.691  52.871  1.00  0.00     0.010 A 
HETATM   22  C   UNL     1       6.960  24.311  52.082  1.00  0.00     0.030 A 
BRANCH  20  23
HETATM   23  C   UNL     1       8.848  22.977  55.182  1.00  0.00     0.018 C 
HETATM   24  C   UNL     1       8.250  22.505  56.526  1.00  0.00     0.009 C 
HETATM   25  C   UNL     1       7.491  21.186  56.402  1.00  0.00     0.001 C 
HETATM   26  C   UNL     1       8.386  20.087  55.843  1.00  0.00     0.000 C 
HETATM   27  C   UNL     1       8.998  20.491  54.508  1.00  0.00     0.001 C 
HETATM   28  C   UNL     1       9.711  21.844  54.583  1.00  0.00     0.009 C 
ENDBRANCH  20  23
ENDBRANCH   3  17
TORSDOF 6
ENDMDL
MODEL 5
REMARK VINA RESULT:      -7.9      7.112      8.774
REMARK  6 active torsions:
REMARK  status: ('A' for Active; 'I' for Inactive)
REMARK    1  A    between atoms: C_6  and  C_7 
REMARK    2  A    between atoms: C_7  and  N_8 
REMARK    3  A    between atoms: C_7  and  C_24 
REMARK       I    between atoms: N_8  and  C_9 
REMARK       I    between atoms: C_9  and  N_10 
REMARK    4  A    between atoms: N_10  and  C_11 
REMARK    5  A    between atoms: C_14  and  C_15 
REMARK    6  A    between atoms: C_24  and  O_25 
ROOT
HETATM    1  N   UNL     1       5.177  30.968  58.621  1.00  0.00    -0.331 N 
HETATM    2  C   UNL     1       5.761  30.095  57.729  1.00  0.00     0.321 C 
HETATM    3  N   UNL     1       4.973  28.979  57.559  1.00  0.00    -0.309 N 
HETATM    4  O   UNL     1       6.833  30.329  57.190  1.00  0.00    -0.247 OA
HETATM    5  H   UNL     1       4.174  30.913  58.712  1.00  0.00     0.165 HD
HETATM    6  H   UNL     1       4.283  28.823  58.280  1.00  0.00     0.170 HD
ENDROOT
BRANCH   1   7
HETATM    7  C   UNL     1       5.785  32.254  58.919  1.00  0.00     0.161 C 
BRANCH   7   8
HETATM    8  C   UNL     1       5.989  32.261  60.406  1.00  0.00     0.056 A 
HETATM    9  N   UNL     1       7.104  31.739  61.019  1.00  0.00    -0.277 N 
HETATM   10  C   UNL     1       8.246  31.116  60.390  1.00  0.00     0.179 C 
HETATM   11  N   UNL     1       7.063  31.825  62.364  1.00  0.00    -0.185 NA
HETATM   12  C   UNL     1       5.913  32.447  62.613  1.00  0.00     0.141 A 
HETATM   13  C   UNL     1       5.199  32.735  61.438  1.00  0.00     0.050 A 
ENDBRANCH   7   8
BRANCH   7  14
HETATM   14  C   UNL     1       4.932  33.450  58.434  1.00  0.00     0.198 C 
BRANCH  14  15
HETATM   15  O   UNL     1       5.431  33.941  57.183  1.00  0.00    -0.394 OA
HETATM   16  C   UNL     1       4.607  33.536  56.098  1.00  0.00     0.201 C 
ENDBRANCH  14  15
ENDBRANCH   7  14
ENDBRANCH   1   7
BRANCH   3  17
HETATM   17  C   UNL     1       5.133  27.952  56.610  1.00  0.00     0.036 A 
HETATM   18  C   UNL     1       4.842  28.093  55.257  1.00  0.00     0.030 A 
HETATM   19  C   UNL     1       4.989  27.008  54.384  1.00  0.00     0.010 A 
HETATM   20  C   UNL     1       5.445  25.754  54.831  1.00  0.00    -0.054 A 
HETATM   21  C   UNL     1       5.713  25.624  56.199  1.00  0.00     0.010 A 
HETATM   22  C   UNL     1       5.563  26.707  57.074  1.00  0.00     0.030 A 
BRANCH  20  23
HETATM   23  C   UNL     1       5.556  24.605  53.829  1.00  0.00     0.018 C 
HETATM   24  C   UNL     1       5.436  25.078  52.363  1.00  0.00     0.009 C 
HETATM   25  C   UNL     1       6.721  25.718  51.843  1.00  0.00     0.001 C 
HETATM   26  C   UNL     1       7.899  24.759  51.961  1.00  0.00     0.000 C 
HETATM   27  C   UNL     1       8.076  24.264  53.391  1.00  0.00     0.001 C 
HETATM   28  C   UNL     1       6.784  23.676  53.965  1.00  0.00     0.009 C 
ENDBRANCH  20  23
ENDBRANCH   3  17
TORSDOF 6
ENDMDL
MODEL 6
REMARK VINA RESULT:      -7.9      1.537      2.042
REMARK  6 active torsions:
REMARK  status: ('A' for Active; 'I' for Inactive)
REMARK    1  A    between atoms: C_6  and  C_7 
REMARK    2  A    between atoms: C_7  and  N_8 
REMARK    3  A    between atoms: C_7  and  C_24 
REMARK       I    between atoms: N_8  and  C_9 
REMARK       I    between atoms: C_9  and  N_10 
REMARK    4  A    between atoms: N_10  and  C_11 
REMARK    5  A    between atoms: C_14  and  C_15 
REMARK    6  A    between atoms: C_24  and  O_25 
ROOT
HETATM    1  N   UNL     1       3.393  28.089  51.568  1.00  0.00    -0.331 N 
HETATM    2  C   UNL     1       4.633  27.540  51.809  1.00  0.00     0.321 C 
HETATM    3  N   UNL     1       4.573  26.656  52.862  1.00  0.00    -0.309 N 
HETATM    4  O   UNL     1       5.618  27.833  51.147  1.00  0.00    -0.247 OA
HETATM    5  H   UNL     1       2.596  27.545  51.859  1.00  0.00     0.165 HD
HETATM    6  H   UNL     1       3.766  26.751  53.461  1.00  0.00     0.170 HD
ENDROOT
BRANCH   1   7
HETATM    7  C   UNL     1       3.181  29.007  50.460  1.00  0.00     0.161 C 
BRANCH   7   8
HETATM    8  C   UNL     1       3.553  30.361  50.991  1.00  0.00     0.056 A 
HETATM    9  N   UNL     1       4.529  31.152  50.430  1.00  0.00    -0.277 N 
HETATM   10  C   UNL     1       5.347  30.857  49.277  1.00  0.00     0.179 C 
HETATM   11  N   UNL     1       4.717  32.313  51.087  1.00  0.00    -0.185 NA
HETATM   12  C   UNL     1       3.818  32.279  52.068  1.00  0.00     0.141 A 
HETATM   13  C   UNL     1       3.071  31.090  52.064  1.00  0.00     0.050 A 
ENDBRANCH   7   8
BRANCH   7  14
HETATM   14  C   UNL     1       1.735  28.964  49.911  1.00  0.00     0.198 C 
BRANCH  14  15
HETATM   15  O   UNL     1       1.598  27.901  48.959  1.00  0.00    -0.394 OA
HETATM   16  C   UNL     1       2.392  28.132  47.803  1.00  0.00     0.201 C 
ENDBRANCH  14  15
ENDBRANCH   7  14
ENDBRANCH   1   7
BRANCH   3  17
HETATM   17  C   UNL     1       5.577  25.770  53.297  1.00  0.00     0.036 A 
HETATM   18  C   UNL     1       6.318  25.948  54.461  1.00  0.00     0.030 A 
HETATM   19  C   UNL     1       7.329  25.040  54.803  1.00  0.00     0.010 A 
HETATM   20  C   UNL     1       7.621  23.921  54.001  1.00  0.00    -0.054 A 
HETATM   21  C   UNL     1       6.881  23.769  52.824  1.00  0.00     0.010 A 
HETATM   22  C   UNL     1       5.871  24.678  52.478  1.00  0.00     0.030 A 
BRANCH  20  23
HETATM   23  C   UNL     1       8.757  22.987  54.419  1.00  0.00     0.018 C 
HETATM   24  C   UNL     1       8.679  22.582  55.908  1.00  0.00     0.009 C 
HETATM   25  C   UNL     1       7.631  21.504  56.172  1.00  0.00     0.001 C 
HETATM   26  C   UNL     1       7.900  20.260  55.333  1.00  0.00     0.000 C 
HETATM   27  C   UNL     1       7.976  20.595  53.849  1.00  0.00     0.001 C 
HETATM   28  C   UNL     1       8.972  21.722  53.559  1.00  0.00     0.009 C 
ENDBRANCH  20  23
ENDBRANCH   3  17
TORSDOF 6
ENDMDL
MODEL 7
REMARK VINA RESULT:      -7.8     10.497     12.292
REMARK  6 active torsions:
REMARK  status: ('A' for Active; 'I' for Inactive)
REMARK    1  A    between atoms: C_6  and  C_7 
REMARK    2  A    between atoms: C_7  and  N_8 
REMARK    3  A    between atoms: C_7  and  C_24 
REMARK       I    between atoms: N_8  and  C_9 
REMARK       I    between atoms: C_9  and  N_10 
REMARK    4  A    between atoms: N_10  and  C_11 
REMARK    5  A    between atoms: C_14  and  C_15 
REMARK    6  A    between atoms: C_24  and  O_25 
ROOT
HETATM    1  N   UNL     1       7.876  29.746  58.427  1.00  0.00    -0.331 N 
HETATM    2  C   UNL     1       7.454  30.879  59.086  1.00  0.00     0.321 C 
HETATM    3  N   UNL     1       7.542  30.706  60.449  1.00  0.00    -0.309 N 
HETATM    4  O   UNL     1       7.064  31.875  58.494  1.00  0.00    -0.247 OA
HETATM    5  H   UNL     1       8.522  29.152  58.922  1.00  0.00     0.165 HD
HETATM    6  H   UNL     1       7.607  29.748  60.760  1.00  0.00     0.170 HD
ENDROOT
BRANCH   1   7
HETATM    7  C   UNL     1       7.940  29.703  56.975  1.00  0.00     0.161 C 
BRANCH   7   8
HETATM    8  C   UNL     1       6.826  28.786  56.557  1.00  0.00     0.056 A 
HETATM    9  N   UNL     1       5.622  29.232  56.066  1.00  0.00    -0.277 N 
HETATM   10  C   UNL     1       5.206  30.601  55.861  1.00  0.00     0.179 C 
HETATM   11  N   UNL     1       4.759  28.237  55.783  1.00  0.00    -0.185 NA
HETATM   12  C   UNL     1       5.440  27.129  56.065  1.00  0.00     0.141 A 
HETATM   13  C   UNL     1       6.726  27.406  56.557  1.00  0.00     0.050 A 
ENDBRANCH   7   8
BRANCH   7  14
HETATM   14  C   UNL     1       9.317  29.239  56.446  1.00  0.00     0.198 C 
BRANCH  14  15
HETATM   15  O   UNL     1      10.245  30.332  56.455  1.00  0.00    -0.394 OA
HETATM   16  C   UNL     1      11.351  30.070  57.308  1.00  0.00     0.201 C 
ENDBRANCH  14  15
ENDBRANCH   7  14
ENDBRANCH   1   7
BRANCH   3  17
HETATM   17  C   UNL     1       7.374  31.680  61.451  1.00  0.00     0.036 A 
HETATM   18  C   UNL     1       8.125  31.728  62.621  1.00  0.00     0.030 A 
HETATM   19  C   UNL     1       7.867  32.707  63.589  1.00  0.00     0.010 A 
HETATM   20  C   UNL     1       6.863  33.677  63.412  1.00  0.00    -0.054 A 
HETATM   21  C   UNL     1       6.104  33.602  62.239  1.00  0.00     0.010 A 
HETATM   22  C   UNL     1       6.358  32.621  61.271  1.00  0.00     0.030 A 
BRANCH  20  23
HETATM   23  C   UNL     1       6.617  34.699  64.522  1.00  0.00     0.018 C 
HETATM   24  C   UNL     1       5.640  35.818  64.096  1.00  0.00     0.009 C 
HETATM   25  C   UNL     1       4.181  35.368  64.122  1.00  0.00     0.001 C 
HETATM   26  C   UNL     1       3.786  34.863  65.505  1.00  0.00     0.000 C 
HETATM   27  C   UNL     1       4.710  33.747  65.976  1.00  0.00     0.001 C 
HETATM   28  C   UNL     1       6.187  34.145  65.899  1.00  0.00     0.009 C 
ENDBRANCH  20  23
ENDBRANCH   3  17
TORSDOF 6
ENDMDL
MODEL 8
REMARK VINA RESULT:      -7.7      2.134      3.430
REMARK  6 active torsions:
REMARK  status: ('A' for Active; 'I' for Inactive)
REMARK    1  A    between atoms: C_6  and  C_7 
REMARK    2  A    between atoms: C_7  and  N_8 
REMARK    3  A    between atoms: C_7  and  C_24 
REMARK       I    between atoms: N_8  and  C_9 
REMARK       I    between atoms: C_9  and  N_10 
REMARK    4  A    between atoms: N_10  and  C_11 
REMARK    5  A    between atoms: C_14  and  C_15 
REMARK    6  A    between atoms: C_24  and  O_25 
ROOT
HETATM    1  N   UNL     1       3.310  27.877  52.465  1.00  0.00    -0.331 N 
HETATM    2  C   UNL     1       4.534  27.491  52.964  1.00  0.00     0.321 C 
HETATM    3  N   UNL     1       4.504  26.170  53.348  1.00  0.00    -0.309 N 
HETATM    4  O   UNL     1       5.484  28.258  53.035  1.00  0.00    -0.247 OA
HETATM    5  H   UNL     1       2.730  27.147  52.081  1.00  0.00     0.165 HD
HETATM    6  H   UNL     1       3.583  25.780  53.485  1.00  0.00     0.170 HD
ENDROOT
BRANCH   1   7
HETATM    7  C   UNL     1       3.105  29.215  51.932  1.00  0.00     0.161 C 
BRANCH   7   8
HETATM    8  C   UNL     1       3.645  29.169  50.531  1.00  0.00     0.056 A 
HETATM    9  N   UNL     1       2.882  28.837  49.436  1.00  0.00    -0.277 N 
HETATM   10  C   UNL     1       1.480  28.487  49.412  1.00  0.00     0.179 C 
HETATM   11  N   UNL     1       3.579  28.831  48.282  1.00  0.00    -0.185 NA
HETATM   12  C   UNL     1       4.805  29.201  48.644  1.00  0.00     0.141 A 
HETATM   13  C   UNL     1       4.910  29.417  50.027  1.00  0.00     0.050 A 
ENDBRANCH   7   8
BRANCH   7  14
HETATM   14  C   UNL     1       3.776  30.314  52.789  1.00  0.00     0.198 C 
BRANCH  14  15
HETATM   15  O   UNL     1       3.079  30.467  54.032  1.00  0.00    -0.394 OA
HETATM   16  C   UNL     1       3.981  30.640  55.117  1.00  0.00     0.201 C 
ENDBRANCH  14  15
ENDBRANCH   7  14
ENDBRANCH   1   7
BRANCH   3  17
HETATM   17  C   UNL     1       5.591  25.364  53.737  1.00  0.00     0.036 A 
HETATM   18  C   UNL     1       6.387  24.650  52.846  1.00  0.00     0.030 A 
HETATM   19  C   UNL     1       7.425  23.838  53.318  1.00  0.00     0.010 A 
HETATM   20  C   UNL     1       7.711  23.725  54.692  1.00  0.00    -0.054 A 
HETATM   21  C   UNL     1       6.888  24.433  55.575  1.00  0.00     0.010 A 
HETATM   22  C   UNL     1       5.847  25.244  55.105  1.00  0.00     0.030 A 
BRANCH  20  23
HETATM   23  C   UNL     1       8.841  22.798  55.139  1.00  0.00     0.018 C 
HETATM   24  C   UNL     1       8.459  21.940  56.367  1.00  0.00     0.009 C 
HETATM   25  C   UNL     1       7.568  20.755  56.003  1.00  0.00     0.001 C 
HETATM   26  C   UNL     1       8.235  19.864  54.964  1.00  0.00     0.000 C 
HETATM   27  C   UNL     1       8.627  20.653  53.720  1.00  0.00     0.001 C 
HETATM   28  C   UNL     1       9.467  21.888  54.058  1.00  0.00     0.009 C 
ENDBRANCH  20  23
ENDBRANCH   3  17
TORSDOF 6
ENDMDL
MODEL 9
REMARK VINA RESULT:      -7.6      3.059      9.334
REMARK  6 active torsions:
REMARK  status: ('A' for Active; 'I' for Inactive)
REMARK    1  A    between atoms: C_6  and  C_7 
REMARK    2  A    between atoms: C_7  and  N_8 
REMARK    3  A    between atoms: C_7  and  C_24 
REMARK       I    between atoms: N_8  and  C_9 
REMARK       I    between atoms: C_9  and  N_10 
REMARK    4  A    between atoms: N_10  and  C_11 
REMARK    5  A    between atoms: C_14  and  C_15 
REMARK    6  A    between atoms: C_24  and  O_25 
ROOT
HETATM    1  N   UNL     1       7.060  24.312  55.019  1.00  0.00    -0.331 N 
HETATM    2  C   UNL     1       7.009  25.046  53.854  1.00  0.00     0.321 C 
HETATM    3  N   UNL     1       5.705  25.315  53.509  1.00  0.00    -0.309 N 
HETATM    4  O   UNL     1       8.017  25.386  53.251  1.00  0.00    -0.247 OA
HETATM    5  H   UNL     1       6.273  24.405  55.643  1.00  0.00     0.165 HD
HETATM    6  H   UNL     1       5.011  24.728  53.949  1.00  0.00     0.170 HD
ENDROOT
BRANCH   1   7
HETATM    7  C   UNL     1       8.332  23.957  55.628  1.00  0.00     0.161 C 
BRANCH   7   8
HETATM    8  C   UNL     1       8.308  22.460  55.750  1.00  0.00     0.056 A 
HETATM    9  N   UNL     1       8.561  21.611  54.699  1.00  0.00    -0.277 N 
HETATM   10  C   UNL     1       8.887  21.967  53.337  1.00  0.00     0.179 C 
HETATM   11  N   UNL     1       8.456  20.308  55.028  1.00  0.00    -0.185 NA
HETATM   12  C   UNL     1       8.163  20.326  56.326  1.00  0.00     0.141 A 
HETATM   13  C   UNL     1       8.050  21.632  56.829  1.00  0.00     0.050 A 
ENDBRANCH   7   8
BRANCH   7  14
HETATM   14  C   UNL     1       8.565  24.658  56.987  1.00  0.00     0.198 C 
BRANCH  14  15
HETATM   15  O   UNL     1       7.469  25.532  57.288  1.00  0.00    -0.394 OA
HETATM   16  C   UNL     1       7.890  26.887  57.364  1.00  0.00     0.201 C 
ENDBRANCH  14  15
ENDBRANCH   7  14
ENDBRANCH   1   7
BRANCH   3  17
HETATM   17  C   UNL     1       5.245  26.177  52.496  1.00  0.00     0.036 A 
HETATM   18  C   UNL     1       4.588  27.380  52.739  1.00  0.00     0.030 A 
HETATM   19  C   UNL     1       4.126  28.162  51.673  1.00  0.00     0.010 A 
HETATM   20  C   UNL     1       4.316  27.776  50.334  1.00  0.00    -0.054 A 
HETATM   21  C   UNL     1       4.960  26.554  50.108  1.00  0.00     0.010 A 
HETATM   22  C   UNL     1       5.421  25.769  51.172  1.00  0.00     0.030 A 
BRANCH  20  23
HETATM   23  C   UNL     1       3.760  28.664  49.220  1.00  0.00     0.018 C 
HETATM   24  C   UNL     1       4.170  28.181  47.811  1.00  0.00     0.009 C 
HETATM   25  C   UNL     1       3.346  26.987  47.335  1.00  0.00     0.001 C 
HETATM   26  C   UNL     1       1.857  27.311  47.336  1.00  0.00     0.000 C 
HETATM   27  C   UNL     1       1.389  27.785  48.706  1.00  0.00     0.001 C 
HETATM   28  C   UNL     1       2.240  28.940  49.242  1.00  0.00     0.009 C 
ENDBRANCH  20  23
ENDBRANCH   3  17
TORSDOF 6
ENDMDL
MODEL 10
REMARK VINA RESULT:      -7.2      3.016      3.604
REMARK  6 active torsions:
REMARK  status: ('A' for Active; 'I' for Inactive)
REMARK    1  A    between atoms: C_6  and  C_7 
REMARK    2  A    between atoms: C_7  and  N_8 
REMARK    3  A    between atoms: C_7  and  C_24 
REMARK       I    between atoms: N_8  and  C_9 
REMARK       I    between atoms: C_9  and  N_10 
REMARK    4  A    between atoms: N_10  and  C_11 
REMARK    5  A    between atoms: C_14  and  C_15 
REMARK    6  A    between atoms: C_24  and  O_25 
ROOT
HETATM    1  N   UNL     1       3.985  28.630  53.709  1.00  0.00    -0.331 N 
HETATM    2  C   UNL     1       5.205  28.050  53.978  1.00  0.00     0.321 C 
HETATM    3  N   UNL     1       5.035  26.805  54.540  1.00  0.00    -0.309 N 
HETATM    4  O   UNL     1       6.264  28.608  53.731  1.00  0.00    -0.247 OA
HETATM    5  H   UNL     1       3.210  28.001  53.568  1.00  0.00     0.165 HD
HETATM    6  H   UNL     1       4.120  26.628  54.929  1.00  0.00     0.170 HD
ENDROOT
BRANCH   1   7
HETATM    7  C   UNL     1       3.898  29.924  53.051  1.00  0.00     0.161 C 
BRANCH   7   8
HETATM    8  C   UNL     1       3.554  30.899  54.140  1.00  0.00     0.056 A 
HETATM    9  N   UNL     1       3.747  32.256  54.028  1.00  0.00    -0.277 N 
HETATM   10  C   UNL     1       4.288  32.980  52.901  1.00  0.00     0.179 C 
HETATM   11  N   UNL     1       3.397  32.938  55.137  1.00  0.00    -0.185 NA
HETATM   12  C   UNL     1       2.937  31.999  55.961  1.00  0.00     0.141 A 
HETATM   13  C   UNL     1       3.017  30.714  55.401  1.00  0.00     0.050 A 
ENDBRANCH   7   8
BRANCH   7  14
HETATM   14  C   UNL     1       2.871  29.942  51.894  1.00  0.00     0.198 C 
BRANCH  14  15
HETATM   15  O   UNL     1       3.542  29.823  50.633  1.00  0.00    -0.394 OA
HETATM   16  C   UNL     1       3.219  28.601  49.985  1.00  0.00     0.201 C 
ENDBRANCH  14  15
ENDBRANCH   7  14
ENDBRANCH   1   7
BRANCH   3  17
HETATM   17  C   UNL     1       6.023  25.834  54.792  1.00  0.00     0.036 A 
HETATM   18  C   UNL     1       6.750  25.190  53.795  1.00  0.00     0.030 A 
HETATM   19  C   UNL     1       7.688  24.205  54.128  1.00  0.00     0.010 A 
HETATM   20  C   UNL     1       7.939  23.842  55.464  1.00  0.00    -0.054 A 
HETATM   21  C   UNL     1       7.185  24.485  56.452  1.00  0.00     0.010 A 
HETATM   22  C   UNL     1       6.244  25.469  56.121  1.00  0.00     0.030 A 
BRANCH  20  23
HETATM   23  C   UNL     1       8.957  22.738  55.753  1.00  0.00     0.018 C 
HETATM   24  C   UNL     1       8.397  21.641  56.686  1.00  0.00     0.009 C 
HETATM   25  C   UNL     1       7.474  20.665  55.960  1.00  0.00     0.001 C 
HETATM   26  C   UNL     1       8.186  20.004  54.787  1.00  0.00     0.000 C 
HETATM   27  C   UNL     1       8.752  21.038  53.823  1.00  0.00     0.001 C 
HETATM   28  C   UNL     1       9.631  22.073  54.532  1.00  0.00     0.009 C 
ENDBRANCH  20  23
ENDBRANCH   3  17
TORSDOF 6
ENDMDL
