MODEL 1
REMARK VINA RESULT:      -8.4      0.000      0.000
REMARK  4 active torsions:
REMARK  status: ('A' for Active; 'I' for Inactive)
REMARK    1  A    between atoms: N_6  and  N_7 
REMARK       I    between atoms: N_7  and  C_8 
REMARK    2  A    between atoms: C_8  and  C_9 
REMARK    3  A    between atoms: C_10  and  O_11 
REMARK    4  A    between atoms: C_14  and  N_15 
ROOT
HETATM    1  N   UNL     1       6.581  24.639  52.488  1.00  0.00    -0.242 N 
HETATM    2  C   UNL     1       5.297  25.160  52.487  1.00  0.00     0.274 C 
HETATM    3  O   UNL     1       4.296  24.615  52.946  1.00  0.00    -0.266 OA
HETATM    4  H   UNL     1       7.356  25.169  52.117  1.00  0.00     0.192 HD
ENDROOT
BRANCH   1   5
HETATM    5  N   UNL     1       6.805  23.362  52.891  1.00  0.00    -0.166 NA
HETATM    6  C   UNL     1       7.334  23.152  54.055  1.00  0.00     0.157 A 
HETATM    7  C   UNL     1       7.785  21.741  54.481  1.00  0.00     0.279 A 
HETATM    8  C   UNL     1       7.636  24.033  55.194  1.00  0.00     0.028 A 
HETATM    9  N   UNL     1       8.345  21.901  55.735  1.00  0.00    -0.316 N 
HETATM   10  O   UNL     1       7.672  20.734  53.816  1.00  0.00    -0.265 OA
HETATM   11  C   UNL     1       8.888  20.827  56.522  1.00  0.00     0.159 C 
HETATM   12  C   UNL     1       8.254  23.232  56.161  1.00  0.00     0.050 A 
HETATM   13  C   UNL     1       8.667  23.758  57.374  1.00  0.00     0.032 A 
HETATM   14  C   UNL     1       8.435  25.115  57.615  1.00  0.00     0.021 A 
HETATM   15  C   UNL     1       7.784  25.906  56.656  1.00  0.00     0.012 A 
HETATM   16  C   UNL     1       7.363  25.369  55.437  1.00  0.00     0.035 A 
HETATM   17 BR   UNL     1       7.458  27.732  57.025  1.00  0.00    -0.051 Br
ENDBRANCH   1   5
BRANCH   2  18
HETATM   18  C   UNL     1       5.172  26.553  51.985  1.00  0.00     0.068 A 
HETATM   19  C   UNL     1       4.831  27.572  52.882  1.00  0.00     0.081 A 
HETATM   20  C   UNL     1       4.826  28.899  52.467  1.00  0.00     0.039 A 
HETATM   21  C   UNL     1       5.127  29.211  51.139  1.00  0.00     0.026 A 
HETATM   22  C   UNL     1       5.368  28.201  50.204  1.00  0.00     0.006 A 
HETATM   23  C   UNL     1       5.431  26.875  50.643  1.00  0.00     0.043 A 
BRANCH  19  24
HETATM   24  O   UNL     1       4.520  27.340  54.195  1.00  0.00    -0.360 OA
HETATM   25  H   UNL     1       4.172  26.422  54.267  1.00  0.00     0.217 HD
ENDBRANCH  19  24
BRANCH  22  26
HETATM   26  N   UNL     1       5.774  28.527  48.903  1.00  0.00    -0.303 NA
HETATM   27  H   UNL     1       5.377  29.396  48.559  1.00  0.00     0.124 HD
HETATM   28  H   UNL     1       5.664  27.774  48.230  1.00  0.00     0.124 HD
ENDBRANCH  22  26
ENDBRANCH   2  18
TORSDOF 4
ENDMDL
MODEL 2
REMARK VINA RESULT:      -8.3      4.124      6.789
REMARK  4 active torsions:
REMARK  status: ('A' for Active; 'I' for Inactive)
REMARK    1  A    between atoms: N_6  and  N_7 
REMARK       I    between atoms: N_7  and  C_8 
REMARK    2  A    between atoms: C_8  and  C_9 
REMARK    3  A    between atoms: C_10  and  O_11 
REMARK    4  A    between atoms: C_14  and  N_15 
ROOT
HETATM    1  N   UNL     1       8.342  26.852  56.438  1.00  0.00    -0.242 N 
HETATM    2  C   UNL     1       7.683  25.635  56.504  1.00  0.00     0.274 C 
HETATM    3  O   UNL     1       6.981  25.243  57.432  1.00  0.00    -0.266 OA
HETATM    4  H   UNL     1       8.874  27.109  55.620  1.00  0.00     0.192 HD
ENDROOT
BRANCH   1   5
HETATM    5  N   UNL     1       8.371  27.678  57.515  1.00  0.00    -0.166 NA
HETATM    6  C   UNL     1       7.625  28.738  57.517  1.00  0.00     0.157 A 
HETATM    7  C   UNL     1       7.762  29.803  58.622  1.00  0.00     0.279 A 
HETATM    8  C   UNL     1       6.561  29.218  56.622  1.00  0.00     0.028 A 
HETATM    9  N   UNL     1       6.868  30.801  58.277  1.00  0.00    -0.316 N 
HETATM   10  O   UNL     1       8.521  29.749  59.565  1.00  0.00    -0.265 OA
HETATM   11  C   UNL     1       6.652  31.996  59.048  1.00  0.00     0.159 C 
HETATM   12  C   UNL     1       6.159  30.463  57.118  1.00  0.00     0.050 A 
HETATM   13  C   UNL     1       5.156  31.194  56.502  1.00  0.00     0.032 A 
HETATM   14  C   UNL     1       4.542  30.644  55.373  1.00  0.00     0.021 A 
HETATM   15  C   UNL     1       4.925  29.380  54.900  1.00  0.00     0.012 A 
HETATM   16  C   UNL     1       5.932  28.644  55.529  1.00  0.00     0.035 A 
HETATM   17 BR   UNL     1       4.054  28.651  53.387  1.00  0.00    -0.051 Br
ENDBRANCH   1   5
BRANCH   2  18
HETATM   18  C   UNL     1       7.757  24.800  55.276  1.00  0.00     0.068 A 
HETATM   19  C   UNL     1       7.922  23.416  55.403  1.00  0.00     0.081 A 
HETATM   20  C   UNL     1       7.873  22.599  54.279  1.00  0.00     0.039 A 
HETATM   21  C   UNL     1       7.695  23.166  53.016  1.00  0.00     0.026 A 
HETATM   22  C   UNL     1       7.633  24.553  52.857  1.00  0.00     0.006 A 
HETATM   23  C   UNL     1       7.621  25.363  53.997  1.00  0.00     0.043 A 
BRANCH  19  24
HETATM   24  O   UNL     1       8.105  22.792  56.607  1.00  0.00    -0.360 OA
HETATM   25  H   UNL     1       8.540  23.431  57.217  1.00  0.00     0.217 HD
ENDBRANCH  19  24
BRANCH  22  26
HETATM   26  N   UNL     1       7.347  25.107  51.603  1.00  0.00    -0.303 NA
HETATM   27  H   UNL     1       7.312  26.123  51.606  1.00  0.00     0.124 HD
HETATM   28  H   UNL     1       6.533  24.708  51.145  1.00  0.00     0.124 HD
ENDBRANCH  22  26
ENDBRANCH   2  18
TORSDOF 4
ENDMDL
MODEL 3
REMARK VINA RESULT:      -8.3      9.034     10.881
REMARK  4 active torsions:
REMARK  status: ('A' for Active; 'I' for Inactive)
REMARK    1  A    between atoms: N_6  and  N_7 
REMARK       I    between atoms: N_7  and  C_8 
REMARK    2  A    between atoms: C_8  and  C_9 
REMARK    3  A    between atoms: C_10  and  O_11 
REMARK    4  A    between atoms: C_14  and  N_15 
ROOT
HETATM    1  N   UNL     1       3.972  31.608  60.386  1.00  0.00    -0.242 N 
HETATM    2  C   UNL     1       4.369  32.118  59.160  1.00  0.00     0.274 C 
HETATM    3  O   UNL     1       4.373  33.303  58.838  1.00  0.00    -0.266 OA
HETATM    4  H   UNL     1       4.031  30.619  60.579  1.00  0.00     0.192 HD
ENDROOT
BRANCH   1   5
HETATM    5  N   UNL     1       3.397  32.415  61.313  1.00  0.00    -0.166 NA
HETATM    6  C   UNL     1       4.100  32.811  62.328  1.00  0.00     0.157 A 
HETATM    7  C   UNL     1       3.447  33.566  63.502  1.00  0.00     0.279 A 
HETATM    8  C   UNL     1       5.529  32.705  62.660  1.00  0.00     0.028 A 
HETATM    9  N   UNL     1       4.467  33.774  64.412  1.00  0.00    -0.316 N 
HETATM   10  O   UNL     1       2.277  33.872  63.580  1.00  0.00    -0.265 OA
HETATM   11  C   UNL     1       4.305  34.465  65.663  1.00  0.00     0.159 C 
HETATM   12  C   UNL     1       5.684  33.284  63.925  1.00  0.00     0.050 A 
HETATM   13  C   UNL     1       6.925  33.353  64.538  1.00  0.00     0.032 A 
HETATM   14  C   UNL     1       8.027  32.839  63.849  1.00  0.00     0.021 A 
HETATM   15  C   UNL     1       7.872  32.291  62.567  1.00  0.00     0.012 A 
HETATM   16  C   UNL     1       6.619  32.230  61.950  1.00  0.00     0.035 A 
HETATM   17 BR   UNL     1       9.388  31.632  61.648  1.00  0.00    -0.051 Br
ENDBRANCH   1   5
BRANCH   2  18
HETATM   18  C   UNL     1       4.947  31.129  58.213  1.00  0.00     0.068 A 
HETATM   19  C   UNL     1       6.329  31.126  57.989  1.00  0.00     0.081 A 
HETATM   20  C   UNL     1       6.910  30.137  57.204  1.00  0.00     0.039 A 
HETATM   21  C   UNL     1       6.105  29.165  56.606  1.00  0.00     0.026 A 
HETATM   22  C   UNL     1       4.714  29.211  56.731  1.00  0.00     0.006 A 
HETATM   23  C   UNL     1       4.144  30.172  57.572  1.00  0.00     0.043 A 
BRANCH  19  24
HETATM   24  O   UNL     1       7.177  32.050  58.539  1.00  0.00    -0.360 OA
HETATM   25  H   UNL     1       6.897  32.201  59.471  1.00  0.00     0.217 HD
ENDBRANCH  19  24
BRANCH  22  26
HETATM   26  N   UNL     1       3.925  28.173  56.219  1.00  0.00    -0.303 NA
HETATM   27  H   UNL     1       2.937  28.268  56.437  1.00  0.00     0.124 HD
HETATM   28  H   UNL     1       4.267  27.242  56.436  1.00  0.00     0.124 HD
ENDBRANCH  22  26
ENDBRANCH   2  18
TORSDOF 4
ENDMDL
MODEL 4
REMARK VINA RESULT:      -8.2      3.961      5.258
REMARK  4 active torsions:
REMARK  status: ('A' for Active; 'I' for Inactive)
REMARK    1  A    between atoms: N_6  and  N_7 
REMARK       I    between atoms: N_7  and  C_8 
REMARK    2  A    between atoms: C_8  and  C_9 
REMARK    3  A    between atoms: C_10  and  O_11 
REMARK    4  A    between atoms: C_14  and  N_15 
ROOT
HETATM    1  N   UNL     1       7.063  26.786  57.475  1.00  0.00    -0.242 N 
HETATM    2  C   UNL     1       7.870  27.912  57.472  1.00  0.00     0.274 C 
HETATM    3  O   UNL     1       9.091  27.926  57.341  1.00  0.00    -0.266 OA
HETATM    4  H   UNL     1       6.060  26.866  57.557  1.00  0.00     0.192 HD
ENDROOT
BRANCH   1   5
HETATM    5  N   UNL     1       7.614  25.545  57.474  1.00  0.00    -0.166 NA
HETATM    6  C   UNL     1       7.528  24.817  56.405  1.00  0.00     0.157 A 
HETATM    7  C   UNL     1       7.964  23.339  56.413  1.00  0.00     0.279 A 
HETATM    8  C   UNL     1       7.067  25.096  55.036  1.00  0.00     0.028 A 
HETATM    9  N   UNL     1       7.681  22.871  55.143  1.00  0.00    -0.316 N 
HETATM   10  O   UNL     1       8.431  22.746  57.360  1.00  0.00    -0.265 OA
HETATM   11  C   UNL     1       7.945  21.528  54.698  1.00  0.00     0.159 C 
HETATM   12  C   UNL     1       7.167  23.890  54.333  1.00  0.00     0.050 A 
HETATM   13  C   UNL     1       6.811  23.805  52.997  1.00  0.00     0.032 A 
HETATM   14  C   UNL     1       6.362  24.966  52.361  1.00  0.00     0.021 A 
HETATM   15  C   UNL     1       6.297  26.180  53.062  1.00  0.00     0.012 A 
HETATM   16  C   UNL     1       6.663  26.262  54.408  1.00  0.00     0.035 A 
HETATM   17 BR   UNL     1       5.713  27.740  52.165  1.00  0.00    -0.051 Br
ENDBRANCH   1   5
BRANCH   2  18
HETATM   18  C   UNL     1       7.152  29.213  57.516  1.00  0.00     0.068 A 
HETATM   19  C   UNL     1       7.366  30.072  58.601  1.00  0.00     0.081 A 
HETATM   20  C   UNL     1       6.803  31.344  58.609  1.00  0.00     0.039 A 
HETATM   21  C   UNL     1       5.990  31.749  57.548  1.00  0.00     0.026 A 
HETATM   22  C   UNL     1       5.679  30.869  56.508  1.00  0.00     0.006 A 
HETATM   23  C   UNL     1       6.298  29.616  56.477  1.00  0.00     0.043 A 
BRANCH  19  24
HETATM   24  O   UNL     1       8.146  29.740  59.675  1.00  0.00    -0.360 OA
HETATM   25  H   UNL     1       7.840  28.868  60.015  1.00  0.00     0.217 HD
ENDBRANCH  19  24
BRANCH  22  26
HETATM   26  N   UNL     1       4.954  31.319  55.398  1.00  0.00    -0.303 NA
HETATM   27  H   UNL     1       4.798  30.601  54.696  1.00  0.00     0.124 HD
HETATM   28  H   UNL     1       5.311  32.174  54.983  1.00  0.00     0.124 HD
ENDBRANCH  22  26
ENDBRANCH   2  18
TORSDOF 4
ENDMDL
MODEL 5
REMARK VINA RESULT:      -8.2      2.221      6.631
REMARK  4 active torsions:
REMARK  status: ('A' for Active; 'I' for Inactive)
REMARK    1  A    between atoms: N_6  and  N_7 
REMARK       I    between atoms: N_7  and  C_8 
REMARK    2  A    between atoms: C_8  and  C_9 
REMARK    3  A    between atoms: C_10  and  O_11 
REMARK    4  A    between atoms: C_14  and  N_15 
ROOT
HETATM    1  N   UNL     1       6.152  24.834  52.014  1.00  0.00    -0.242 N 
HETATM    2  C   UNL     1       7.477  24.773  52.413  1.00  0.00     0.274 C 
HETATM    3  O   UNL     1       8.363  25.565  52.102  1.00  0.00    -0.266 OA
HETATM    4  H   UNL     1       5.480  24.156  52.343  1.00  0.00     0.192 HD
ENDROOT
BRANCH   1   5
HETATM    5  N   UNL     1       5.753  25.743  51.089  1.00  0.00    -0.166 NA
HETATM    6  C   UNL     1       5.137  26.814  51.481  1.00  0.00     0.157 A 
HETATM    7  C   UNL     1       4.496  27.780  50.466  1.00  0.00     0.279 A 
HETATM    8  C   UNL     1       4.879  27.393  52.809  1.00  0.00     0.028 A 
HETATM    9  N   UNL     1       3.889  28.759  51.230  1.00  0.00    -0.316 N 
HETATM   10  O   UNL     1       4.525  27.658  49.261  1.00  0.00    -0.265 OA
HETATM   11  C   UNL     1       3.177  29.885  50.686  1.00  0.00     0.159 C 
HETATM   12  C   UNL     1       4.114  28.546  52.595  1.00  0.00     0.050 A 
HETATM   13  C   UNL     1       3.699  29.340  53.651  1.00  0.00     0.032 A 
HETATM   14  C   UNL     1       4.078  28.965  54.944  1.00  0.00     0.021 A 
HETATM   15  C   UNL     1       4.873  27.828  55.149  1.00  0.00     0.012 A 
HETATM   16  C   UNL     1       5.296  27.034  54.080  1.00  0.00     0.035 A 
HETATM   17 BR   UNL     1       5.395  27.364  56.908  1.00  0.00    -0.051 Br
ENDBRANCH   1   5
BRANCH   2  18
HETATM   18  C   UNL     1       7.800  23.708  53.399  1.00  0.00     0.068 A 
HETATM   19  C   UNL     1       7.933  24.050  54.750  1.00  0.00     0.081 A 
HETATM   20  C   UNL     1       8.114  23.059  55.709  1.00  0.00     0.039 A 
HETATM   21  C   UNL     1       8.200  21.721  55.316  1.00  0.00     0.026 A 
HETATM   22  C   UNL     1       8.175  21.370  53.964  1.00  0.00     0.006 A 
HETATM   23  C   UNL     1       7.932  22.365  53.012  1.00  0.00     0.043 A 
BRANCH  19  24
HETATM   24  O   UNL     1       7.863  25.338  55.206  1.00  0.00    -0.360 OA
HETATM   25  H   UNL     1       7.704  25.309  56.178  1.00  0.00     0.217 HD
ENDBRANCH  19  24
BRANCH  22  26
HETATM   26  N   UNL     1       8.153  20.021  53.586  1.00  0.00    -0.303 NA
HETATM   27  H   UNL     1       8.723  19.424  54.179  1.00  0.00     0.124 HD
HETATM   28  H   UNL     1       8.343  19.860  52.602  1.00  0.00     0.124 HD
ENDBRANCH  22  26
ENDBRANCH   2  18
TORSDOF 4
ENDMDL
MODEL 6
REMARK VINA RESULT:      -8.1      1.915      6.809
REMARK  4 active torsions:
REMARK  status: ('A' for Active; 'I' for Inactive)
REMARK    1  A    between atoms: N_6  and  N_7 
REMARK       I    between atoms: N_7  and  C_8 
REMARK    2  A    between atoms: C_8  and  C_9 
REMARK    3  A    between atoms: C_10  and  O_11 
REMARK    4  A    between atoms: C_14  and  N_15 
ROOT
HETATM    1  N   UNL     1       6.121  24.612  52.559  1.00  0.00    -0.242 N 
HETATM    2  C   UNL     1       7.440  24.567  52.980  1.00  0.00     0.274 C 
HETATM    3  O   UNL     1       8.372  25.213  52.507  1.00  0.00    -0.266 OA
HETATM    4  H   UNL     1       5.409  24.069  53.026  1.00  0.00     0.192 HD
ENDROOT
BRANCH   1   5
HETATM    5  N   UNL     1       5.778  25.305  51.444  1.00  0.00    -0.166 NA
HETATM    6  C   UNL     1       5.165  26.440  51.570  1.00  0.00     0.157 A 
HETATM    7  C   UNL     1       4.586  27.171  50.343  1.00  0.00     0.279 A 
HETATM    8  C   UNL     1       4.862  27.293  52.729  1.00  0.00     0.028 A 
HETATM    9  N   UNL     1       3.964  28.297  50.852  1.00  0.00    -0.316 N 
HETATM   10  O   UNL     1       4.662  26.793  49.195  1.00  0.00    -0.265 OA
HETATM   11  C   UNL     1       3.296  29.285  50.048  1.00  0.00     0.159 C 
HETATM   12  C   UNL     1       4.128  28.379  52.240  1.00  0.00     0.050 A 
HETATM   13  C   UNL     1       3.683  29.385  53.082  1.00  0.00     0.032 A 
HETATM   14  C   UNL     1       4.000  29.294  54.440  1.00  0.00     0.021 A 
HETATM   15  C   UNL     1       4.766  28.220  54.920  1.00  0.00     0.012 A 
HETATM   16  C   UNL     1       5.219  27.211  54.065  1.00  0.00     0.035 A 
HETATM   17 BR   UNL     1       5.205  28.140  56.758  1.00  0.00    -0.051 Br
ENDBRANCH   1   5
BRANCH   2  18
HETATM   18  C   UNL     1       7.698  23.742  54.189  1.00  0.00     0.068 A 
HETATM   19  C   UNL     1       7.803  22.352  54.056  1.00  0.00     0.081 A 
HETATM   20  C   UNL     1       8.163  21.569  55.146  1.00  0.00     0.039 A 
HETATM   21  C   UNL     1       8.384  22.168  56.388  1.00  0.00     0.026 A 
HETATM   22  C   UNL     1       8.183  23.540  56.566  1.00  0.00     0.006 A 
HETATM   23  C   UNL     1       7.881  24.328  55.452  1.00  0.00     0.043 A 
BRANCH  19  24
HETATM   24  O   UNL     1       7.596  21.697  52.872  1.00  0.00    -0.360 OA
HETATM   25  H   UNL     1       6.657  21.404  52.847  1.00  0.00     0.217 HD
ENDBRANCH  19  24
BRANCH  22  26
HETATM   26  N   UNL     1       8.511  24.147  57.785  1.00  0.00    -0.303 NA
HETATM   27  H   UNL     1       8.805  23.489  58.501  1.00  0.00     0.124 HD
HETATM   28  H   UNL     1       7.806  24.789  58.135  1.00  0.00     0.124 HD
ENDBRANCH  22  26
ENDBRANCH   2  18
TORSDOF 4
ENDMDL
MODEL 7
REMARK VINA RESULT:      -8.0      4.607      6.925
REMARK  4 active torsions:
REMARK  status: ('A' for Active; 'I' for Inactive)
REMARK    1  A    between atoms: N_6  and  N_7 
REMARK       I    between atoms: N_7  and  C_8 
REMARK    2  A    between atoms: C_8  and  C_9 
REMARK    3  A    between atoms: C_10  and  O_11 
REMARK    4  A    between atoms: C_14  and  N_15 
ROOT
HETATM    1  N   UNL     1       5.504  28.140  55.569  1.00  0.00    -0.242 N 
HETATM    2  C   UNL     1       5.555  26.843  56.052  1.00  0.00     0.274 C 
HETATM    3  O   UNL     1       4.859  26.379  56.952  1.00  0.00    -0.266 OA
HETATM    4  H   UNL     1       6.093  28.432  54.803  1.00  0.00     0.192 HD
ENDROOT
BRANCH   1   5
HETATM    5  N   UNL     1       4.737  29.074  56.187  1.00  0.00    -0.166 NA
HETATM    6  C   UNL     1       5.286  29.875  57.045  1.00  0.00     0.157 A 
HETATM    7  C   UNL     1       4.431  30.820  57.911  1.00  0.00     0.279 A 
HETATM    8  C   UNL     1       6.684  30.129  57.428  1.00  0.00     0.028 A 
HETATM    9  N   UNL     1       5.331  31.471  58.736  1.00  0.00    -0.316 N 
HETATM   10  O   UNL     1       3.225  30.924  57.862  1.00  0.00    -0.265 OA
HETATM   11  C   UNL     1       4.964  32.467  59.707  1.00  0.00     0.159 C 
HETATM   12  C   UNL     1       6.646  31.080  58.455  1.00  0.00     0.050 A 
HETATM   13  C   UNL     1       7.808  31.548  59.045  1.00  0.00     0.032 A 
HETATM   14  C   UNL     1       9.028  31.055  58.576  1.00  0.00     0.021 A 
HETATM   15  C   UNL     1       9.062  30.127  57.523  1.00  0.00     0.012 A 
HETATM   16  C   UNL     1       7.888  29.663  56.926  1.00  0.00     0.035 A 
HETATM   17 BR   UNL     1      10.732  29.501  56.891  1.00  0.00    -0.051 Br
ENDBRANCH   1   5
BRANCH   2  18
HETATM   18  C   UNL     1       6.462  25.922  55.318  1.00  0.00     0.068 A 
HETATM   19  C   UNL     1       7.095  24.888  56.018  1.00  0.00     0.081 A 
HETATM   20  C   UNL     1       7.851  23.941  55.337  1.00  0.00     0.039 A 
HETATM   21  C   UNL     1       8.010  24.045  53.953  1.00  0.00     0.026 A 
HETATM   22  C   UNL     1       7.474  25.127  53.251  1.00  0.00     0.006 A 
HETATM   23  C   UNL     1       6.664  26.041  53.934  1.00  0.00     0.043 A 
BRANCH  19  24
HETATM   24  O   UNL     1       6.988  24.727  57.373  1.00  0.00    -0.360 OA
HETATM   25  H   UNL     1       7.253  25.574  57.801  1.00  0.00     0.217 HD
ENDBRANCH  19  24
BRANCH  22  26
HETATM   26  N   UNL     1       7.545  25.166  51.853  1.00  0.00    -0.303 NA
HETATM   27  H   UNL     1       7.178  26.024  51.450  1.00  0.00     0.124 HD
HETATM   28  H   UNL     1       7.165  24.345  51.392  1.00  0.00     0.124 HD
ENDBRANCH  22  26
ENDBRANCH   2  18
TORSDOF 4
ENDMDL
MODEL 8
REMARK VINA RESULT:      -7.9      8.634     10.889
REMARK  4 active torsions:
REMARK  status: ('A' for Active; 'I' for Inactive)
REMARK    1  A    between atoms: N_6  and  N_7 
REMARK       I    between atoms: N_7  and  C_8 
REMARK    2  A    between atoms: C_8  and  C_9 
REMARK    3  A    between atoms: C_10  and  O_11 
REMARK    4  A    between atoms: C_14  and  N_15 
ROOT
HETATM    1  N   UNL     1       8.646  32.635  60.798  1.00  0.00    -0.242 N 
HETATM    2  C   UNL     1       8.531  31.961  62.003  1.00  0.00     0.274 C 
HETATM    3  O   UNL     1       9.268  31.065  62.403  1.00  0.00    -0.266 OA
HETATM    4  H   UNL     1       8.013  33.385  60.560  1.00  0.00     0.192 HD
ENDROOT
BRANCH   1   5
HETATM    5  N   UNL     1       9.547  32.231  59.867  1.00  0.00    -0.166 NA
HETATM    6  C   UNL     1       9.142  31.513  58.866  1.00  0.00     0.157 A 
HETATM    7  C   UNL     1      10.146  30.870  57.891  1.00  0.00     0.279 A 
HETATM    8  C   UNL     1       7.806  31.129  58.384  1.00  0.00     0.028 A 
HETATM    9  N   UNL     1       9.375  30.144  57.002  1.00  0.00    -0.316 N 
HETATM   10  O   UNL     1      11.351  30.984  57.942  1.00  0.00    -0.265 OA
HETATM   11  C   UNL     1       9.907  29.387  55.900  1.00  0.00     0.159 C 
HETATM   12  C   UNL     1       8.011  30.296  57.277  1.00  0.00     0.050 A 
HETATM   13  C   UNL     1       6.945  29.757  56.576  1.00  0.00     0.032 A 
HETATM   14  C   UNL     1       5.651  30.079  56.996  1.00  0.00     0.021 A 
HETATM   15  C   UNL     1       5.452  30.941  58.085  1.00  0.00     0.012 A 
HETATM   16  C   UNL     1       6.531  31.489  58.785  1.00  0.00     0.035 A 
HETATM   17 BR   UNL     1       3.689  31.382  58.611  1.00  0.00    -0.051 Br
ENDBRANCH   1   5
BRANCH   2  18
HETATM   18  C   UNL     1       7.480  32.472  62.923  1.00  0.00     0.068 A 
HETATM   19  C   UNL     1       6.138  32.186  62.649  1.00  0.00     0.081 A 
HETATM   20  C   UNL     1       5.146  32.545  63.554  1.00  0.00     0.039 A 
HETATM   21  C   UNL     1       5.488  33.228  64.724  1.00  0.00     0.026 A 
HETATM   22  C   UNL     1       6.809  33.614  64.965  1.00  0.00     0.006 A 
HETATM   23  C   UNL     1       7.808  33.196  64.080  1.00  0.00     0.043 A 
BRANCH  19  24
HETATM   24  O   UNL     1       5.729  31.524  61.522  1.00  0.00    -0.360 OA
HETATM   25  H   UNL     1       5.760  32.159  60.770  1.00  0.00     0.217 HD
ENDBRANCH  19  24
BRANCH  22  26
HETATM   26  N   UNL     1       7.159  34.202  66.187  1.00  0.00    -0.303 NA
HETATM   27  H   UNL     1       8.140  34.461  66.248  1.00  0.00     0.124 HD
HETATM   28  H   UNL     1       6.861  33.676  67.004  1.00  0.00     0.124 HD
ENDBRANCH  22  26
ENDBRANCH   2  18
TORSDOF 4
ENDMDL
MODEL 9
REMARK VINA RESULT:      -7.9      8.841     10.678
REMARK  4 active torsions:
REMARK  status: ('A' for Active; 'I' for Inactive)
REMARK    1  A    between atoms: N_6  and  N_7 
REMARK       I    between atoms: N_7  and  C_8 
REMARK    2  A    between atoms: C_8  and  C_9 
REMARK    3  A    between atoms: C_10  and  O_11 
REMARK    4  A    between atoms: C_14  and  N_15 
ROOT
HETATM    1  N   UNL     1       4.010  31.782  60.123  1.00  0.00    -0.242 N 
HETATM    2  C   UNL     1       3.772  32.112  58.799  1.00  0.00     0.274 C 
HETATM    3  O   UNL     1       3.166  33.102  58.398  1.00  0.00    -0.266 OA
HETATM    4  H   UNL     1       4.547  30.962  60.365  1.00  0.00     0.192 HD
ENDROOT
BRANCH   1   5
HETATM    5  N   UNL     1       3.437  32.498  61.124  1.00  0.00    -0.166 NA
HETATM    6  C   UNL     1       4.146  32.809  62.164  1.00  0.00     0.157 A 
HETATM    7  C   UNL     1       3.497  33.449  63.406  1.00  0.00     0.279 A 
HETATM    8  C   UNL     1       5.579  32.688  62.473  1.00  0.00     0.028 A 
HETATM    9  N   UNL     1       4.523  33.586  64.322  1.00  0.00    -0.316 N 
HETATM   10  O   UNL     1       2.325  33.735  63.521  1.00  0.00    -0.265 OA
HETATM   11  C   UNL     1       4.368  34.161  65.632  1.00  0.00     0.159 C 
HETATM   12  C   UNL     1       5.741  33.153  63.783  1.00  0.00     0.050 A 
HETATM   13  C   UNL     1       6.986  33.179  64.388  1.00  0.00     0.032 A 
HETATM   14  C   UNL     1       8.087  32.741  63.647  1.00  0.00     0.021 A 
HETATM   15  C   UNL     1       7.924  32.308  62.322  1.00  0.00     0.012 A 
HETATM   16  C   UNL     1       6.666  32.290  61.713  1.00  0.00     0.035 A 
HETATM   17 BR   UNL     1       9.438  31.748  61.335  1.00  0.00    -0.051 Br
ENDBRANCH   1   5
BRANCH   2  18
HETATM   18  C   UNL     1       4.421  31.230  57.793  1.00  0.00     0.068 A 
HETATM   19  C   UNL     1       3.728  30.910  56.620  1.00  0.00     0.081 A 
HETATM   20  C   UNL     1       4.355  30.189  55.610  1.00  0.00     0.039 A 
HETATM   21  C   UNL     1       5.669  29.750  55.785  1.00  0.00     0.026 A 
HETATM   22  C   UNL     1       6.342  29.968  56.990  1.00  0.00     0.006 A 
HETATM   23  C   UNL     1       5.726  30.747  57.975  1.00  0.00     0.043 A 
BRANCH  19  24
HETATM   24  O   UNL     1       2.438  31.302  56.383  1.00  0.00    -0.360 OA
HETATM   25  H   UNL     1       1.841  30.570  56.663  1.00  0.00     0.217 HD
ENDBRANCH  19  24
BRANCH  22  26
HETATM   26  N   UNL     1       7.693  29.621  57.116  1.00  0.00    -0.303 NA
HETATM   27  H   UNL     1       8.245  29.829  56.289  1.00  0.00     0.124 HD
HETATM   28  H   UNL     1       7.852  28.672  57.441  1.00  0.00     0.124 HD
ENDBRANCH  22  26
ENDBRANCH   2  18
TORSDOF 4
ENDMDL
MODEL 10
REMARK VINA RESULT:      -7.7      7.757      9.926
REMARK  4 active torsions:
REMARK  status: ('A' for Active; 'I' for Inactive)
REMARK    1  A    between atoms: N_6  and  N_7 
REMARK       I    between atoms: N_7  and  C_8 
REMARK    2  A    between atoms: C_8  and  C_9 
REMARK    3  A    between atoms: C_10  and  O_11 
REMARK    4  A    between atoms: C_14  and  N_15 
ROOT
HETATM    1  N   UNL     1       7.875  30.495  60.167  1.00  0.00    -0.242 N 
HETATM    2  C   UNL     1       8.254  31.815  60.353  1.00  0.00     0.274 C 
HETATM    3  O   UNL     1       8.926  32.489  59.577  1.00  0.00    -0.266 OA
HETATM    4  H   UNL     1       7.293  30.023  60.843  1.00  0.00     0.192 HD
ENDROOT
BRANCH   1   5
HETATM    5  N   UNL     1       8.366  29.779  59.124  1.00  0.00    -0.166 NA
HETATM    6  C   UNL     1       7.690  29.729  58.019  1.00  0.00     0.157 A 
HETATM    7  C   UNL     1       8.103  28.780  56.877  1.00  0.00     0.279 A 
HETATM    8  C   UNL     1       6.496  30.442  57.540  1.00  0.00     0.028 A 
HETATM    9  N   UNL     1       7.140  28.948  55.899  1.00  0.00    -0.316 N 
HETATM   10  O   UNL     1       9.065  28.044  56.884  1.00  0.00    -0.265 OA
HETATM   11  C   UNL     1       7.141  28.260  54.635  1.00  0.00     0.159 C 
HETATM   12  C   UNL     1       6.205  29.921  56.274  1.00  0.00     0.050 A 
HETATM   13  C   UNL     1       5.129  30.384  55.535  1.00  0.00     0.032 A 
HETATM   14  C   UNL     1       4.344  31.402  56.084  1.00  0.00     0.021 A 
HETATM   15  C   UNL     1       4.661  31.945  57.339  1.00  0.00     0.012 A 
HETATM   16  C   UNL     1       5.752  31.479  58.078  1.00  0.00     0.035 A 
HETATM   17 BR   UNL     1       3.598  33.343  58.041  1.00  0.00    -0.051 Br
ENDBRANCH   1   5
BRANCH   2  18
HETATM   18  C   UNL     1       7.684  32.481  61.553  1.00  0.00     0.068 A 
HETATM   19  C   UNL     1       7.993  31.978  62.822  1.00  0.00     0.081 A 
HETATM   20  C   UNL     1       7.574  32.652  63.964  1.00  0.00     0.039 A 
HETATM   21  C   UNL     1       6.809  33.814  63.842  1.00  0.00     0.026 A 
HETATM   22  C   UNL     1       6.402  34.274  62.587  1.00  0.00     0.006 A 
HETATM   23  C   UNL     1       6.879  33.626  61.443  1.00  0.00     0.043 A 
BRANCH  19  24
HETATM   24  O   UNL     1       8.734  30.844  63.017  1.00  0.00    -0.360 OA
HETATM   25  H   UNL     1       8.722  30.326  62.179  1.00  0.00     0.217 HD
ENDBRANCH  19  24
BRANCH  22  26
HETATM   26  N   UNL     1       5.728  35.496  62.468  1.00  0.00    -0.303 NA
HETATM   27  H   UNL     1       6.043  36.200  63.131  1.00  0.00     0.124 HD
HETATM   28  H   UNL     1       4.716  35.417  62.462  1.00  0.00     0.124 HD
ENDBRANCH  22  26
ENDBRANCH   2  18
TORSDOF 4
ENDMDL
