MODEL 1
REMARK VINA RESULT:      -9.7      0.000      0.000
REMARK  6 active torsions:
REMARK  status: ('A' for Active; 'I' for Inactive)
REMARK    1  A    between atoms: C_5  and  N_6 
REMARK       I    between atoms: N_6  and  C_7 
REMARK    2  A    between atoms: C_7  and  C_8 
REMARK    3  A    between atoms: C_8  and  N_9 
REMARK    4  A    between atoms: C_8  and  C_17 
REMARK       I    between atoms: N_9  and  C_10 
REMARK    5  A    between atoms: C_10  and  C_11 
REMARK    6  A    between atoms: C_17  and  C_18 
ROOT
HETATM    1  C   UNL     1       5.800  26.540  51.411  1.00  0.00     0.181 C 
ENDROOT
BRANCH   1   2
HETATM    2  C   UNL     1       5.750  25.292  52.324  1.00  0.00     0.245 C 
HETATM    3  N   UNL     1       6.983  24.873  52.786  1.00  0.00    -0.325 N 
HETATM    4  H   UNL     1       7.761  25.513  52.625  1.00  0.00     0.169 HD
HETATM    5  O   UNL     1       4.665  24.779  52.598  1.00  0.00    -0.271 OA
BRANCH   3   6
HETATM    6  C   UNL     1       7.288  23.697  53.497  1.00  0.00     0.034 A 
HETATM    7  C   UNL     1       7.736  22.518  52.904  1.00  0.00     0.030 A 
HETATM    8  C   UNL     1       8.048  21.401  53.688  1.00  0.00     0.009 A 
HETATM    9  C   UNL     1       7.914  21.446  55.080  1.00  0.00    -0.062 A 
HETATM   10  C   UNL     1       8.297  20.265  55.921  1.00  0.00     0.048 C 
HETATM   11  C   UNL     1       7.478  22.631  55.676  1.00  0.00     0.009 A 
HETATM   12  C   UNL     1       7.160  23.744  54.890  1.00  0.00     0.030 A 
ENDBRANCH   3   6
ENDBRANCH   1   2
BRANCH   1  13
HETATM   13  N   UNL     1       4.668  26.547  50.476  1.00  0.00    -0.342 N 
HETATM   14  C   UNL     1       4.631  27.259  49.300  1.00  0.00     0.276 C 
HETATM   15  O   UNL     1       5.520  28.051  48.993  1.00  0.00    -0.265 OA
HETATM   16  H   UNL     1       3.880  25.939  50.670  1.00  0.00     0.163 HD
BRANCH  14  17
HETATM   17  C   UNL     1       3.476  26.982  48.474  1.00  0.00     0.142 A 
HETATM   18  O   UNL     1       3.597  26.117  47.415  1.00  0.00    -0.317 OA
HETATM   19  C   UNL     1       2.386  26.062  46.804  1.00  0.00     0.143 A 
HETATM   20  C   UNL     1       1.482  26.872  47.448  1.00  0.00     0.027 A 
HETATM   21  C   UNL     1       2.182  27.466  48.526  1.00  0.00     0.045 A 
ENDBRANCH  14  17
ENDBRANCH   1  13
BRANCH   1  22
HETATM   22  C   UNL     1       5.951  27.868  52.173  1.00  0.00     0.075 C 
BRANCH  22  23
HETATM   23  C   UNL     1       5.353  27.933  53.549  1.00  0.00    -0.028 A 
HETATM   24  C   UNL     1       6.107  27.814  54.766  1.00  0.00    -0.002 A 
HETATM   25  C   UNL     1       5.221  27.966  55.831  1.00  0.00     0.042 A 
HETATM   26  C   UNL     1       7.471  27.602  55.053  1.00  0.00     0.014 A 
HETATM   27  C   UNL     1       5.629  27.919  57.169  1.00  0.00     0.030 A 
HETATM   28  N   UNL     1       3.974  28.163  55.290  1.00  0.00    -0.365 N 
HETATM   29  C   UNL     1       6.986  27.706  57.426  1.00  0.00     0.002 A 
HETATM   30  C   UNL     1       7.897  27.547  56.385  1.00  0.00     0.001 A 
HETATM   31  H   UNL     1       3.132  28.315  55.828  1.00  0.00     0.165 HD
HETATM   32  C   UNL     1       4.040  28.138  53.921  1.00  0.00     0.096 A 
ENDBRANCH  22  23
ENDBRANCH   1  22
TORSDOF 6
ENDMDL
MODEL 2
REMARK VINA RESULT:      -9.7      3.359      6.712
REMARK  6 active torsions:
REMARK  status: ('A' for Active; 'I' for Inactive)
REMARK    1  A    between atoms: C_5  and  N_6 
REMARK       I    between atoms: N_6  and  C_7 
REMARK    2  A    between atoms: C_7  and  C_8 
REMARK    3  A    between atoms: C_8  and  N_9 
REMARK    4  A    between atoms: C_8  and  C_17 
REMARK       I    between atoms: N_9  and  C_10 
REMARK    5  A    between atoms: C_10  and  C_11 
REMARK    6  A    between atoms: C_17  and  C_18 
ROOT
HETATM    1  C   UNL     1       5.857  27.153  56.795  1.00  0.00     0.181 C 
ENDROOT
BRANCH   1   2
HETATM    2  C   UNL     1       6.088  25.653  56.496  1.00  0.00     0.245 C 
HETATM    3  N   UNL     1       7.217  25.389  55.744  1.00  0.00    -0.325 N 
HETATM    4  H   UNL     1       7.860  26.170  55.614  1.00  0.00     0.169 HD
HETATM    5  O   UNL     1       5.307  24.813  56.943  1.00  0.00    -0.271 OA
BRANCH   3   6
HETATM    6  C   UNL     1       7.614  24.162  55.180  1.00  0.00     0.034 A 
HETATM    7  C   UNL     1       7.786  22.984  55.908  1.00  0.00     0.030 A 
HETATM    8  C   UNL     1       8.153  21.797  55.263  1.00  0.00     0.009 A 
HETATM    9  C   UNL     1       8.357  21.769  53.880  1.00  0.00    -0.062 A 
HETATM   10  C   UNL     1       8.702  20.485  53.186  1.00  0.00     0.048 C 
HETATM   11  C   UNL     1       8.173  22.945  53.149  1.00  0.00     0.009 A 
HETATM   12  C   UNL     1       7.812  24.132  53.795  1.00  0.00     0.030 A 
ENDBRANCH   3   6
ENDBRANCH   1   2
BRANCH   1  13
HETATM   13  N   UNL     1       7.128  27.888  56.778  1.00  0.00    -0.342 N 
HETATM   14  C   UNL     1       7.352  29.076  57.433  1.00  0.00     0.276 C 
HETATM   15  O   UNL     1       6.447  29.683  58.003  1.00  0.00    -0.265 OA
HETATM   16  H   UNL     1       7.921  27.468  56.305  1.00  0.00     0.163 HD
BRANCH  14  17
HETATM   17  C   UNL     1       8.726  29.526  57.397  1.00  0.00     0.142 A 
HETATM   18  O   UNL     1       9.073  30.685  58.046  1.00  0.00    -0.317 OA
HETATM   19  C   UNL     1      10.399  30.882  57.831  1.00  0.00     0.143 A 
HETATM   20  C   UNL     1      10.919  29.871  57.058  1.00  0.00     0.027 A 
HETATM   21  C   UNL     1       9.842  28.995  56.779  1.00  0.00     0.045 A 
ENDBRANCH  14  17
ENDBRANCH   1  13
BRANCH   1  22
HETATM   22  C   UNL     1       4.779  27.809  55.915  1.00  0.00     0.075 C 
BRANCH  22  23
HETATM   23  C   UNL     1       5.150  28.099  54.489  1.00  0.00    -0.028 A 
HETATM   24  C   UNL     1       5.087  27.136  53.424  1.00  0.00    -0.002 A 
HETATM   25  C   UNL     1       5.464  27.781  52.247  1.00  0.00     0.042 A 
HETATM   26  C   UNL     1       4.730  25.774  53.358  1.00  0.00     0.014 A 
HETATM   27  C   UNL     1       5.501  27.133  51.006  1.00  0.00     0.030 A 
HETATM   28  N   UNL     1       5.754  29.082  52.577  1.00  0.00    -0.365 N 
HETATM   29  C   UNL     1       5.143  25.782  50.970  1.00  0.00     0.002 A 
HETATM   30  C   UNL     1       4.764  25.109  52.128  1.00  0.00     0.001 A 
HETATM   31  H   UNL     1       6.046  29.790  51.918  1.00  0.00     0.165 HD
HETATM   32  C   UNL     1       5.576  29.283  53.921  1.00  0.00     0.096 A 
ENDBRANCH  22  23
ENDBRANCH   1  22
TORSDOF 6
ENDMDL
MODEL 3
REMARK VINA RESULT:      -9.6      2.738      8.017
REMARK  6 active torsions:
REMARK  status: ('A' for Active; 'I' for Inactive)
REMARK    1  A    between atoms: C_5  and  N_6 
REMARK       I    between atoms: N_6  and  C_7 
REMARK    2  A    between atoms: C_7  and  C_8 
REMARK    3  A    between atoms: C_8  and  N_9 
REMARK    4  A    between atoms: C_8  and  C_17 
REMARK       I    between atoms: N_9  and  C_10 
REMARK    5  A    between atoms: C_10  and  C_11 
REMARK    6  A    between atoms: C_17  and  C_18 
ROOT
HETATM    1  C   UNL     1       7.463  25.813  55.020  1.00  0.00     0.181 C 
ENDROOT
BRANCH   1   2
HETATM    2  C   UNL     1       7.308  26.127  53.513  1.00  0.00     0.245 C 
HETATM    3  N   UNL     1       6.157  26.822  53.191  1.00  0.00    -0.325 N 
HETATM    4  H   UNL     1       5.629  27.199  53.978  1.00  0.00     0.169 HD
HETATM    5  O   UNL     1       8.185  25.781  52.723  1.00  0.00    -0.271 OA
BRANCH   3   6
HETATM    6  C   UNL     1       5.653  27.118  51.911  1.00  0.00     0.034 A 
HETATM    7  C   UNL     1       5.602  28.401  51.367  1.00  0.00     0.030 A 
HETATM    8  C   UNL     1       5.114  28.604  50.071  1.00  0.00     0.009 A 
HETATM    9  C   UNL     1       4.667  27.528  49.298  1.00  0.00    -0.062 A 
HETATM   10  C   UNL     1       4.192  27.743  47.892  1.00  0.00     0.048 C 
HETATM   11  C   UNL     1       4.731  26.240  49.838  1.00  0.00     0.009 A 
HETATM   12  C   UNL     1       5.213  26.039  51.135  1.00  0.00     0.030 A 
ENDBRANCH   3   6
ENDBRANCH   1   2
BRANCH   1  13
HETATM   13  N   UNL     1       7.224  27.015  55.829  1.00  0.00    -0.342 N 
HETATM   14  C   UNL     1       7.744  27.228  57.084  1.00  0.00     0.276 C 
HETATM   15  O   UNL     1       8.371  26.355  57.683  1.00  0.00    -0.265 OA
HETATM   16  H   UNL     1       6.691  27.774  55.417  1.00  0.00     0.163 HD
BRANCH  14  17
HETATM   17  C   UNL     1       7.497  28.551  57.614  1.00  0.00     0.142 A 
HETATM   18  O   UNL     1       8.337  29.060  58.572  1.00  0.00    -0.317 OA
HETATM   19  C   UNL     1       7.865  30.289  58.905  1.00  0.00     0.143 A 
HETATM   20  C   UNL     1       6.736  30.586  58.180  1.00  0.00     0.027 A 
HETATM   21  C   UNL     1       6.498  29.467  57.345  1.00  0.00     0.045 A 
ENDBRANCH  14  17
ENDBRANCH   1  13
BRANCH   1  22
HETATM   22  C   UNL     1       6.642  24.602  55.496  1.00  0.00     0.075 C 
BRANCH  22  23
HETATM   23  C   UNL     1       7.398  23.332  55.761  1.00  0.00    -0.028 A 
HETATM   24  C   UNL     1       7.731  22.362  54.754  1.00  0.00    -0.002 A 
HETATM   25  C   UNL     1       8.465  21.348  55.368  1.00  0.00     0.042 A 
HETATM   26  C   UNL     1       7.480  22.266  53.370  1.00  0.00     0.014 A 
HETATM   27  C   UNL     1       8.963  20.243  54.668  1.00  0.00     0.030 A 
HETATM   28  N   UNL     1       8.571  21.678  56.697  1.00  0.00    -0.365 N 
HETATM   29  C   UNL     1       8.699  20.172  53.297  1.00  0.00     0.002 A 
HETATM   30  C   UNL     1       7.967  21.167  52.654  1.00  0.00     0.001 A 
HETATM   31  H   UNL     1       9.064  21.128  57.387  1.00  0.00     0.165 HD
HETATM   32  C   UNL     1       7.929  22.863  56.946  1.00  0.00     0.096 A 
ENDBRANCH  22  23
ENDBRANCH   1  22
TORSDOF 6
ENDMDL
MODEL 4
REMARK VINA RESULT:      -9.6      2.257      5.995
REMARK  6 active torsions:
REMARK  status: ('A' for Active; 'I' for Inactive)
REMARK    1  A    between atoms: C_5  and  N_6 
REMARK       I    between atoms: N_6  and  C_7 
REMARK    2  A    between atoms: C_7  and  C_8 
REMARK    3  A    between atoms: C_8  and  N_9 
REMARK    4  A    between atoms: C_8  and  C_17 
REMARK       I    between atoms: N_9  and  C_10 
REMARK    5  A    between atoms: C_10  and  C_11 
REMARK    6  A    between atoms: C_17  and  C_18 
ROOT
HETATM    1  C   UNL     1       6.585  26.578  53.654  1.00  0.00     0.181 C 
ENDROOT
BRANCH   1   2
HETATM    2  C   UNL     1       6.742  27.847  54.526  1.00  0.00     0.245 C 
HETATM    3  N   UNL     1       7.887  27.870  55.298  1.00  0.00    -0.325 N 
HETATM    4  H   UNL     1       8.580  27.150  55.090  1.00  0.00     0.169 HD
HETATM    5  O   UNL     1       5.893  28.736  54.469  1.00  0.00    -0.271 OA
BRANCH   3   6
HETATM    6  C   UNL     1       8.239  28.794  56.299  1.00  0.00     0.034 A 
HETATM    7  C   UNL     1       7.427  29.119  57.385  1.00  0.00     0.030 A 
HETATM    8  C   UNL     1       7.867  30.028  58.355  1.00  0.00     0.009 A 
HETATM    9  C   UNL     1       9.126  30.628  58.253  1.00  0.00    -0.062 A 
HETATM   10  C   UNL     1       9.615  31.562  59.320  1.00  0.00     0.048 C 
HETATM   11  C   UNL     1       9.946  30.292  57.172  1.00  0.00     0.009 A 
HETATM   12  C   UNL     1       9.502  29.390  56.200  1.00  0.00     0.030 A 
ENDBRANCH   3   6
ENDBRANCH   1   2
BRANCH   1  13
HETATM   13  N   UNL     1       6.197  26.934  52.283  1.00  0.00    -0.342 N 
HETATM   14  C   UNL     1       5.363  26.184  51.488  1.00  0.00     0.276 C 
HETATM   15  O   UNL     1       4.960  25.075  51.835  1.00  0.00    -0.265 OA
HETATM   16  H   UNL     1       6.511  27.824  51.910  1.00  0.00     0.163 HD
BRANCH  14  17
HETATM   17  C   UNL     1       5.004  26.818  50.238  1.00  0.00     0.142 A 
HETATM   18  O   UNL     1       5.424  28.100  49.988  1.00  0.00    -0.317 OA
HETATM   19  C   UNL     1       4.932  28.452  48.772  1.00  0.00     0.143 A 
HETATM   20  C   UNL     1       4.203  27.421  48.229  1.00  0.00     0.027 A 
HETATM   21  C   UNL     1       4.250  26.365  49.172  1.00  0.00     0.045 A 
ENDBRANCH  14  17
ENDBRANCH   1  13
BRANCH   1  22
HETATM   22  C   UNL     1       7.795  25.631  53.703  1.00  0.00     0.075 C 
BRANCH  22  23
HETATM   23  C   UNL     1       7.714  24.474  54.659  1.00  0.00    -0.028 A 
HETATM   24  C   UNL     1       7.827  23.095  54.273  1.00  0.00    -0.002 A 
HETATM   25  C   UNL     1       7.746  22.323  55.431  1.00  0.00     0.042 A 
HETATM   26  C   UNL     1       8.003  22.438  53.038  1.00  0.00     0.014 A 
HETATM   27  C   UNL     1       7.833  20.926  55.417  1.00  0.00     0.030 A 
HETATM   28  N   UNL     1       7.582  23.191  56.482  1.00  0.00    -0.365 N 
HETATM   29  C   UNL     1       8.007  20.299  54.179  1.00  0.00     0.002 A 
HETATM   30  C   UNL     1       8.089  21.042  53.005  1.00  0.00     0.001 A 
HETATM   31  H   UNL     1       7.505  22.912  57.450  1.00  0.00     0.165 HD
HETATM   32  C   UNL     1       7.555  24.485  56.030  1.00  0.00     0.096 A 
ENDBRANCH  22  23
ENDBRANCH   1  22
TORSDOF 6
ENDMDL
MODEL 5
REMARK VINA RESULT:      -9.5      1.693      7.107
REMARK  6 active torsions:
REMARK  status: ('A' for Active; 'I' for Inactive)
REMARK    1  A    between atoms: C_5  and  N_6 
REMARK       I    between atoms: N_6  and  C_7 
REMARK    2  A    between atoms: C_7  and  C_8 
REMARK    3  A    between atoms: C_8  and  N_9 
REMARK    4  A    between atoms: C_8  and  C_17 
REMARK       I    between atoms: N_9  and  C_10 
REMARK    5  A    between atoms: C_10  and  C_11 
REMARK    6  A    between atoms: C_17  and  C_18 
ROOT
HETATM    1  C   UNL     1       6.748  26.157  51.928  1.00  0.00     0.181 C 
ENDROOT
BRANCH   1   2
HETATM    2  C   UNL     1       5.472  25.885  51.097  1.00  0.00     0.245 C 
HETATM    3  N   UNL     1       5.346  26.676  49.971  1.00  0.00    -0.325 N 
HETATM    4  H   UNL     1       6.168  27.223  49.714  1.00  0.00     0.169 HD
HETATM    5  O   UNL     1       4.689  25.004  51.450  1.00  0.00    -0.271 OA
BRANCH   3   6
HETATM    6  C   UNL     1       4.240  26.782  49.106  1.00  0.00     0.034 A 
HETATM    7  C   UNL     1       3.962  25.881  48.078  1.00  0.00     0.030 A 
HETATM    8  C   UNL     1       2.822  26.041  47.282  1.00  0.00     0.009 A 
HETATM    9  C   UNL     1       1.942  27.107  47.499  1.00  0.00    -0.062 A 
HETATM   10  C   UNL     1       0.696  27.247  46.678  1.00  0.00     0.048 C 
HETATM   11  C   UNL     1       2.213  28.001  48.538  1.00  0.00     0.009 A 
HETATM   12  C   UNL     1       3.357  27.844  49.328  1.00  0.00     0.030 A 
ENDBRANCH   3   6
ENDBRANCH   1   2
BRANCH   1  13
HETATM   13  N   UNL     1       6.417  26.862  53.173  1.00  0.00    -0.342 N 
HETATM   14  C   UNL     1       5.928  28.145  53.237  1.00  0.00     0.276 C 
HETATM   15  O   UNL     1       5.836  28.856  52.237  1.00  0.00    -0.265 OA
HETATM   16  H   UNL     1       6.491  26.354  54.048  1.00  0.00     0.163 HD
BRANCH  14  17
HETATM   17  C   UNL     1       5.529  28.565  54.563  1.00  0.00     0.142 A 
HETATM   18  O   UNL     1       6.493  28.894  55.483  1.00  0.00    -0.317 OA
HETATM   19  C   UNL     1       5.851  29.222  56.634  1.00  0.00     0.143 A 
HETATM   20  C   UNL     1       4.490  29.114  56.476  1.00  0.00     0.027 A 
HETATM   21  C   UNL     1       4.280  28.692  55.140  1.00  0.00     0.045 A 
ENDBRANCH  14  17
ENDBRANCH   1  13
BRANCH   1  22
HETATM   22  C   UNL     1       7.621  24.912  52.162  1.00  0.00     0.075 C 
BRANCH  22  23
HETATM   23  C   UNL     1       7.523  24.259  53.511  1.00  0.00    -0.028 A 
HETATM   24  C   UNL     1       7.720  22.856  53.748  1.00  0.00    -0.002 A 
HETATM   25  C   UNL     1       7.592  22.635  55.118  1.00  0.00     0.042 A 
HETATM   26  C   UNL     1       8.007  21.756  52.914  1.00  0.00     0.014 A 
HETATM   27  C   UNL     1       7.739  21.369  55.698  1.00  0.00     0.030 A 
HETATM   28  N   UNL     1       7.322  23.849  55.698  1.00  0.00    -0.365 N 
HETATM   29  C   UNL     1       8.023  20.295  54.849  1.00  0.00     0.002 A 
HETATM   30  C   UNL     1       8.154  20.482  53.476  1.00  0.00     0.001 A 
HETATM   31  H   UNL     1       7.190  23.997  56.688  1.00  0.00     0.165 HD
HETATM   32  C   UNL     1       7.271  24.832  54.742  1.00  0.00     0.096 A 
ENDBRANCH  22  23
ENDBRANCH   1  22
TORSDOF 6
ENDMDL
MODEL 6
REMARK VINA RESULT:      -9.4      2.451      6.615
REMARK  6 active torsions:
REMARK  status: ('A' for Active; 'I' for Inactive)
REMARK    1  A    between atoms: C_5  and  N_6 
REMARK       I    between atoms: N_6  and  C_7 
REMARK    2  A    between atoms: C_7  and  C_8 
REMARK    3  A    between atoms: C_8  and  N_9 
REMARK    4  A    between atoms: C_8  and  C_17 
REMARK       I    between atoms: N_9  and  C_10 
REMARK    5  A    between atoms: C_10  and  C_11 
REMARK    6  A    between atoms: C_17  and  C_18 
ROOT
HETATM    1  C   UNL     1       5.821  28.070  53.645  1.00  0.00     0.181 C 
ENDROOT
BRANCH   1   2
HETATM    2  C   UNL     1       5.793  26.525  53.725  1.00  0.00     0.245 C 
HETATM    3  N   UNL     1       6.997  25.951  54.085  1.00  0.00    -0.325 N 
HETATM    4  H   UNL     1       7.715  26.593  54.421  1.00  0.00     0.169 HD
HETATM    5  O   UNL     1       4.744  25.921  53.500  1.00  0.00    -0.271 OA
BRANCH   3   6
HETATM    6  C   UNL     1       7.337  24.585  54.094  1.00  0.00     0.034 A 
HETATM    7  C   UNL     1       7.292  23.774  55.228  1.00  0.00     0.030 A 
HETATM    8  C   UNL     1       7.616  22.415  55.144  1.00  0.00     0.009 A 
HETATM    9  C   UNL     1       7.993  21.845  53.923  1.00  0.00    -0.062 A 
HETATM   10  C   UNL     1       8.291  20.379  53.826  1.00  0.00     0.048 C 
HETATM   11  C   UNL     1       8.024  22.653  52.784  1.00  0.00     0.009 A 
HETATM   12  C   UNL     1       7.707  24.013  52.872  1.00  0.00     0.030 A 
ENDBRANCH   3   6
ENDBRANCH   1   2
BRANCH   1  13
HETATM   13  N   UNL     1       6.977  28.607  54.374  1.00  0.00    -0.342 N 
HETATM   14  C   UNL     1       6.972  28.937  55.709  1.00  0.00     0.276 C 
HETATM   15  O   UNL     1       5.941  28.912  56.380  1.00  0.00    -0.265 OA
HETATM   16  H   UNL     1       7.862  28.685  53.885  1.00  0.00     0.163 HD
BRANCH  14  17
HETATM   17  C   UNL     1       8.269  29.296  56.238  1.00  0.00     0.142 A 
HETATM   18  O   UNL     1       9.314  29.508  55.374  1.00  0.00    -0.317 OA
HETATM   19  C   UNL     1      10.404  29.802  56.128  1.00  0.00     0.143 A 
HETATM   20  C   UNL     1      10.085  29.787  57.465  1.00  0.00     0.027 A 
HETATM   21  C   UNL     1       8.708  29.463  57.538  1.00  0.00     0.045 A 
ENDBRANCH  14  17
ENDBRANCH   1  13
BRANCH   1  22
HETATM   22  C   UNL     1       5.710  28.625  52.214  1.00  0.00     0.075 C 
BRANCH  22  23
HETATM   23  C   UNL     1       4.332  28.709  51.624  1.00  0.00    -0.028 A 
HETATM   24  C   UNL     1       4.038  28.548  50.227  1.00  0.00    -0.002 A 
HETATM   25  C   UNL     1       2.656  28.650  50.070  1.00  0.00     0.042 A 
HETATM   26  C   UNL     1       4.828  28.313  49.083  1.00  0.00     0.014 A 
HETATM   27  C   UNL     1       2.024  28.527  48.826  1.00  0.00     0.030 A 
HETATM   28  N   UNL     1       2.125  28.871  51.316  1.00  0.00    -0.365 N 
HETATM   29  C   UNL     1       2.832  28.295  47.709  1.00  0.00     0.002 A 
HETATM   30  C   UNL     1       4.214  28.191  47.832  1.00  0.00     0.001 A 
HETATM   31  H   UNL     1       1.139  28.975  51.511  1.00  0.00     0.165 HD
HETATM   32  C   UNL     1       3.122  28.916  52.257  1.00  0.00     0.096 A 
ENDBRANCH  22  23
ENDBRANCH   1  22
TORSDOF 6
ENDMDL
MODEL 7
REMARK VINA RESULT:      -9.2      2.805      7.559
REMARK  6 active torsions:
REMARK  status: ('A' for Active; 'I' for Inactive)
REMARK    1  A    between atoms: C_5  and  N_6 
REMARK       I    between atoms: N_6  and  C_7 
REMARK    2  A    between atoms: C_7  and  C_8 
REMARK    3  A    between atoms: C_8  and  N_9 
REMARK    4  A    between atoms: C_8  and  C_17 
REMARK       I    between atoms: N_9  and  C_10 
REMARK    5  A    between atoms: C_10  and  C_11 
REMARK    6  A    between atoms: C_17  and  C_18 
ROOT
HETATM    1  C   UNL     1       7.119  25.773  55.142  1.00  0.00     0.181 C 
ENDROOT
BRANCH   1   2
HETATM    2  C   UNL     1       7.660  26.531  56.378  1.00  0.00     0.245 C 
HETATM    3  N   UNL     1       7.720  27.903  56.224  1.00  0.00    -0.325 N 
HETATM    4  H   UNL     1       7.253  28.281  55.400  1.00  0.00     0.169 HD
HETATM    5  O   UNL     1       7.968  25.905  57.392  1.00  0.00    -0.271 OA
BRANCH   3   6
HETATM    6  C   UNL     1       8.302  28.847  57.091  1.00  0.00     0.034 A 
HETATM    7  C   UNL     1       9.603  29.332  56.962  1.00  0.00     0.030 A 
HETATM    8  C   UNL     1      10.095  30.296  57.850  1.00  0.00     0.009 A 
HETATM    9  C   UNL     1       9.293  30.789  58.884  1.00  0.00    -0.062 A 
HETATM   10  C   UNL     1       9.804  31.858  59.803  1.00  0.00     0.048 C 
HETATM   11  C   UNL     1       7.984  30.314  59.006  1.00  0.00     0.009 A 
HETATM   12  C   UNL     1       7.497  29.346  58.121  1.00  0.00     0.030 A 
ENDBRANCH   3   6
ENDBRANCH   1   2
BRANCH   1  13
HETATM   13  N   UNL     1       7.333  24.328  55.284  1.00  0.00    -0.342 N 
HETATM   14  C   UNL     1       7.932  23.531  54.337  1.00  0.00     0.276 C 
HETATM   15  O   UNL     1       8.238  23.961  53.226  1.00  0.00    -0.265 OA
HETATM   16  H   UNL     1       7.083  23.888  56.163  1.00  0.00     0.163 HD
BRANCH  14  17
HETATM   17  C   UNL     1       8.172  22.171  54.769  1.00  0.00     0.142 A 
HETATM   18  O   UNL     1       8.234  21.892  56.111  1.00  0.00    -0.317 OA
HETATM   19  C   UNL     1       8.492  20.564  56.231  1.00  0.00     0.143 A 
HETATM   20  C   UNL     1       8.596  19.978  54.993  1.00  0.00     0.027 A 
HETATM   21  C   UNL     1       8.388  21.012  54.048  1.00  0.00     0.045 A 
ENDBRANCH  14  17
ENDBRANCH   1  13
BRANCH   1  22
HETATM   22  C   UNL     1       5.668  26.127  54.776  1.00  0.00     0.075 C 
BRANCH  22  23
HETATM   23  C   UNL     1       5.277  25.983  53.333  1.00  0.00    -0.028 A 
HETATM   24  C   UNL     1       5.326  27.048  52.370  1.00  0.00    -0.002 A 
HETATM   25  C   UNL     1       4.932  26.526  51.139  1.00  0.00     0.042 A 
HETATM   26  C   UNL     1       5.684  28.411  52.438  1.00  0.00     0.014 A 
HETATM   27  C   UNL     1       4.879  27.297  49.971  1.00  0.00     0.030 A 
HETATM   28  N   UNL     1       4.646  25.198  51.339  1.00  0.00    -0.365 N 
HETATM   29  C   UNL     1       5.238  28.644  50.067  1.00  0.00     0.002 A 
HETATM   30  C   UNL     1       5.633  29.197  51.282  1.00  0.00     0.001 A 
HETATM   31  H   UNL     1       4.345  24.560  50.616  1.00  0.00     0.165 HD
HETATM   32  C   UNL     1       4.843  24.862  52.654  1.00  0.00     0.096 A 
ENDBRANCH  22  23
ENDBRANCH   1  22
TORSDOF 6
ENDMDL
MODEL 8
REMARK VINA RESULT:      -9.2      2.300      6.710
REMARK  6 active torsions:
REMARK  status: ('A' for Active; 'I' for Inactive)
REMARK    1  A    between atoms: C_5  and  N_6 
REMARK       I    between atoms: N_6  and  C_7 
REMARK    2  A    between atoms: C_7  and  C_8 
REMARK    3  A    between atoms: C_8  and  N_9 
REMARK    4  A    between atoms: C_8  and  C_17 
REMARK       I    between atoms: N_9  and  C_10 
REMARK    5  A    between atoms: C_10  and  C_11 
REMARK    6  A    between atoms: C_17  and  C_18 
ROOT
HETATM    1  C   UNL     1       6.455  26.355  54.417  1.00  0.00     0.181 C 
ENDROOT
BRANCH   1   2
HETATM    2  C   UNL     1       5.484  26.859  53.323  1.00  0.00     0.245 C 
HETATM    3  N   UNL     1       5.954  26.711  52.032  1.00  0.00    -0.325 N 
HETATM    4  H   UNL     1       6.793  26.141  51.925  1.00  0.00     0.169 HD
HETATM    5  O   UNL     1       4.389  27.319  53.643  1.00  0.00    -0.271 OA
BRANCH   3   6
HETATM    6  C   UNL     1       5.387  27.206  50.842  1.00  0.00     0.034 A 
HETATM    7  C   UNL     1       4.733  26.414  49.899  1.00  0.00     0.030 A 
HETATM    8  C   UNL     1       4.168  26.992  48.755  1.00  0.00     0.009 A 
HETATM    9  C   UNL     1       4.252  28.371  48.535  1.00  0.00    -0.062 A 
HETATM   10  C   UNL     1       3.603  28.993  47.335  1.00  0.00     0.048 C 
HETATM   11  C   UNL     1       4.896  29.166  49.487  1.00  0.00     0.009 A 
HETATM   12  C   UNL     1       5.465  28.586  50.626  1.00  0.00     0.030 A 
ENDBRANCH   3   6
ENDBRANCH   1   2
BRANCH   1  13
HETATM   13  N   UNL     1       6.964  25.018  54.084  1.00  0.00    -0.342 N 
HETATM   14  C   UNL     1       7.101  23.988  54.985  1.00  0.00     0.276 C 
HETATM   15  O   UNL     1       6.909  24.150  56.189  1.00  0.00    -0.265 OA
HETATM   16  H   UNL     1       7.173  24.810  53.113  1.00  0.00     0.163 HD
BRANCH  14  17
HETATM   17  C   UNL     1       7.473  22.723  54.391  1.00  0.00     0.142 A 
HETATM   18  O   UNL     1       7.590  21.613  55.189  1.00  0.00    -0.317 OA
HETATM   19  C   UNL     1       7.969  20.584  54.388  1.00  0.00     0.143 A 
HETATM   20  C   UNL     1       8.098  21.006  53.086  1.00  0.00     0.027 A 
HETATM   21  C   UNL     1       7.777  22.385  53.085  1.00  0.00     0.045 A 
ENDBRANCH  14  17
ENDBRANCH   1  13
BRANCH   1  22
HETATM   22  C   UNL     1       7.576  27.349  54.767  1.00  0.00     0.075 C 
BRANCH  22  23
HETATM   23  C   UNL     1       7.448  28.087  56.068  1.00  0.00    -0.028 A 
HETATM   24  C   UNL     1       8.470  28.927  56.627  1.00  0.00    -0.002 A 
HETATM   25  C   UNL     1       7.973  29.470  57.811  1.00  0.00     0.042 A 
HETATM   26  C   UNL     1       9.773  29.283  56.220  1.00  0.00     0.014 A 
HETATM   27  C   UNL     1       8.712  30.351  58.609  1.00  0.00     0.030 A 
HETATM   28  N   UNL     1       6.702  28.977  57.976  1.00  0.00    -0.365 N 
HETATM   29  C   UNL     1      10.001  30.686  58.183  1.00  0.00     0.002 A 
HETATM   30  C   UNL     1      10.527  30.160  57.007  1.00  0.00     0.001 A 
HETATM   31  H   UNL     1       6.092  29.209  58.747  1.00  0.00     0.165 HD
HETATM   32  C   UNL     1       6.378  28.140  56.940  1.00  0.00     0.096 A 
ENDBRANCH  22  23
ENDBRANCH   1  22
TORSDOF 6
ENDMDL
MODEL 9
REMARK VINA RESULT:      -8.7      2.110      2.933
REMARK  6 active torsions:
REMARK  status: ('A' for Active; 'I' for Inactive)
REMARK    1  A    between atoms: C_5  and  N_6 
REMARK       I    between atoms: N_6  and  C_7 
REMARK    2  A    between atoms: C_7  and  C_8 
REMARK    3  A    between atoms: C_8  and  N_9 
REMARK    4  A    between atoms: C_8  and  C_17 
REMARK       I    between atoms: N_9  and  C_10 
REMARK    5  A    between atoms: C_10  and  C_11 
REMARK    6  A    between atoms: C_17  and  C_18 
ROOT
HETATM    1  C   UNL     1       5.570  27.723  53.268  1.00  0.00     0.181 C 
ENDROOT
BRANCH   1   2
HETATM    2  C   UNL     1       6.633  26.699  53.733  1.00  0.00     0.245 C 
HETATM    3  N   UNL     1       6.334  25.386  53.423  1.00  0.00    -0.325 N 
HETATM    4  H   UNL     1       5.551  25.246  52.784  1.00  0.00     0.169 HD
HETATM    5  O   UNL     1       7.651  27.091  54.303  1.00  0.00    -0.271 OA
BRANCH   3   6
HETATM    6  C   UNL     1       7.009  24.223  53.837  1.00  0.00     0.034 A 
HETATM    7  C   UNL     1       7.783  23.424  52.996  1.00  0.00     0.030 A 
HETATM    8  C   UNL     1       8.448  22.299  53.497  1.00  0.00     0.009 A 
HETATM    9  C   UNL     1       8.348  21.953  54.848  1.00  0.00    -0.062 A 
HETATM   10  C   UNL     1       9.102  20.776  55.392  1.00  0.00     0.048 C 
HETATM   11  C   UNL     1       7.584  22.760  55.695  1.00  0.00     0.009 A 
HETATM   12  C   UNL     1       6.914  23.881  55.191  1.00  0.00     0.030 A 
ENDBRANCH   3   6
ENDBRANCH   1   2
BRANCH   1  13
HETATM   13  N   UNL     1       5.231  27.515  51.855  1.00  0.00    -0.342 N 
HETATM   14  C   UNL     1       5.488  28.417  50.850  1.00  0.00     0.276 C 
HETATM   15  O   UNL     1       5.930  29.541  51.084  1.00  0.00    -0.265 OA
HETATM   16  H   UNL     1       4.836  26.622  51.581  1.00  0.00     0.163 HD
BRANCH  14  17
HETATM   17  C   UNL     1       5.206  27.923  49.520  1.00  0.00     0.142 A 
HETATM   18  O   UNL     1       5.611  28.653  48.430  1.00  0.00    -0.317 OA
HETATM   19  C   UNL     1       5.200  27.981  47.324  1.00  0.00     0.143 A 
HETATM   20  C   UNL     1       4.539  26.828  47.677  1.00  0.00     0.027 A 
HETATM   21  C   UNL     1       4.543  26.788  49.092  1.00  0.00     0.045 A 
ENDBRANCH  14  17
ENDBRANCH   1  13
BRANCH   1  22
HETATM   22  C   UNL     1       4.329  27.792  54.175  1.00  0.00     0.075 C 
BRANCH  22  23
HETATM   23  C   UNL     1       4.502  28.446  55.516  1.00  0.00    -0.028 A 
HETATM   24  C   UNL     1       4.087  29.786  55.823  1.00  0.00    -0.002 A 
HETATM   25  C   UNL     1       4.373  30.021  57.167  1.00  0.00     0.042 A 
HETATM   26  C   UNL     1       3.480  30.816  55.075  1.00  0.00     0.014 A 
HETATM   27  C   UNL     1       4.082  31.234  57.802  1.00  0.00     0.030 A 
HETATM   28  N   UNL     1       4.947  28.876  57.661  1.00  0.00    -0.365 N 
HETATM   29  C   UNL     1       3.482  32.239  57.038  1.00  0.00     0.002 A 
HETATM   30  C   UNL     1       3.186  32.037  55.693  1.00  0.00     0.001 A 
HETATM   31  H   UNL     1       5.249  28.752  58.618  1.00  0.00     0.165 HD
HETATM   32  C   UNL     1       5.036  27.925  56.678  1.00  0.00     0.096 A 
ENDBRANCH  22  23
ENDBRANCH   1  22
TORSDOF 6
ENDMDL
MODEL 10
REMARK VINA RESULT:      -8.5      2.695      7.360
REMARK  6 active torsions:
REMARK  status: ('A' for Active; 'I' for Inactive)
REMARK    1  A    between atoms: C_5  and  N_6 
REMARK       I    between atoms: N_6  and  C_7 
REMARK    2  A    between atoms: C_7  and  C_8 
REMARK    3  A    between atoms: C_8  and  N_9 
REMARK    4  A    between atoms: C_8  and  C_17 
REMARK       I    between atoms: N_9  and  C_10 
REMARK    5  A    between atoms: C_10  and  C_11 
REMARK    6  A    between atoms: C_17  and  C_18 
ROOT
HETATM    1  C   UNL     1       6.554  26.776  53.725  1.00  0.00     0.181 C 
ENDROOT
BRANCH   1   2
HETATM    2  C   UNL     1       6.827  27.977  54.661  1.00  0.00     0.245 C 
HETATM    3  N   UNL     1       8.010  27.890  55.370  1.00  0.00    -0.325 N 
HETATM    4  H   UNL     1       8.649  27.149  55.083  1.00  0.00     0.169 HD
HETATM    5  O   UNL     1       6.029  28.913  54.703  1.00  0.00    -0.271 OA
BRANCH   3   6
HETATM    6  C   UNL     1       8.464  28.730  56.404  1.00  0.00     0.034 A 
HETATM    7  C   UNL     1       9.650  29.463  56.354  1.00  0.00     0.030 A 
HETATM    8  C   UNL     1      10.012  30.301  57.415  1.00  0.00     0.009 A 
HETATM    9  C   UNL     1       9.196  30.419  58.545  1.00  0.00    -0.062 A 
HETATM   10  C   UNL     1       9.562  31.355  59.657  1.00  0.00     0.048 C 
HETATM   11  C   UNL     1       8.001  29.696  58.589  1.00  0.00     0.009 A 
HETATM   12  C   UNL     1       7.643  28.853  57.531  1.00  0.00     0.030 A 
ENDBRANCH   3   6
ENDBRANCH   1   2
BRANCH   1  13
HETATM   13  N   UNL     1       6.847  25.509  54.407  1.00  0.00    -0.342 N 
HETATM   14  C   UNL     1       7.689  24.537  53.920  1.00  0.00     0.276 C 
HETATM   15  O   UNL     1       8.184  24.611  52.797  1.00  0.00    -0.265 OA
HETATM   16  H   UNL     1       6.454  25.357  55.330  1.00  0.00     0.163 HD
BRANCH  14  17
HETATM   17  C   UNL     1       7.940  23.451  54.842  1.00  0.00     0.142 A 
HETATM   18  O   UNL     1       7.552  22.179  54.506  1.00  0.00    -0.317 OA
HETATM   19  C   UNL     1       7.881  21.372  55.547  1.00  0.00     0.143 A 
HETATM   20  C   UNL     1       8.477  22.097  56.551  1.00  0.00     0.027 A 
HETATM   21  C   UNL     1       8.518  23.438  56.098  1.00  0.00     0.045 A 
ENDBRANCH  14  17
ENDBRANCH   1  13
BRANCH   1  22
HETATM   22  C   UNL     1       5.161  26.794  53.073  1.00  0.00     0.075 C 
BRANCH  22  23
HETATM   23  C   UNL     1       5.112  26.952  51.580  1.00  0.00    -0.028 A 
HETATM   24  C   UNL     1       5.232  28.209  50.895  1.00  0.00    -0.002 A 
HETATM   25  C   UNL     1       5.182  27.952  49.525  1.00  0.00     0.042 A 
HETATM   26  C   UNL     1       5.391  29.543  51.322  1.00  0.00     0.014 A 
HETATM   27  C   UNL     1       5.285  28.961  48.561  1.00  0.00     0.030 A 
HETATM   28  N   UNL     1       5.030  26.596  49.377  1.00  0.00    -0.365 N 
HETATM   29  C   UNL     1       5.441  30.275  49.011  1.00  0.00     0.002 A 
HETATM   30  C   UNL     1       5.492  30.566  50.372  1.00  0.00     0.001 A 
HETATM   31  H   UNL     1       4.974  26.118  48.488  1.00  0.00     0.165 HD
HETATM   32  C   UNL     1       4.979  25.985  50.603  1.00  0.00     0.096 A 
ENDBRANCH  22  23
ENDBRANCH   1  22
TORSDOF 6
ENDMDL
