MODEL 1
REMARK VINA RESULT:      -8.4      0.000      0.000
REMARK  5 active torsions:
REMARK  status: ('A' for Active; 'I' for Inactive)
REMARK    1  A    between atoms: C_2  and  O_3 
REMARK    2  A    between atoms: O_3  and  C_4 
REMARK    3  A    between atoms: C_8  and  C_9 
REMARK    4  A    between atoms: C_9  and  N_10 
REMARK       I    between atoms: N_10  and  C_11 
REMARK    5  A    between atoms: C_11  and  C_12 
ROOT
HETATM    1  C   UNL     1       5.906  25.871  56.852  1.00  0.00     0.161 C 
ENDROOT
BRANCH   1   2
HETATM    2  C   UNL     1       6.835  27.022  56.590  1.00  0.00    -0.035 A 
HETATM    3  C   UNL     1       7.019  27.502  55.291  1.00  0.00     0.028 A 
HETATM    4  C   UNL     1       7.908  28.545  55.091  1.00  0.00     0.120 A 
HETATM    5  N   UNL     1       8.621  29.126  56.079  1.00  0.00    -0.237 NA
HETATM    6  C   UNL     1       8.436  28.649  57.324  1.00  0.00     0.165 A 
HETATM    7  C   UNL     1       7.562  27.615  57.625  1.00  0.00     0.066 A 
BRANCH   6   8
HETATM    8  O   UNL     1       9.103  29.199  58.393  1.00  0.00    -0.324 OA
BRANCH   8   9
HETATM    9  C   UNL     1       8.812  30.546  58.811  1.00  0.00     0.058 C 
HETATM   10  C   UNL     1       7.423  31.027  58.366  1.00  0.00     0.045 C 
HETATM   11  C   UNL     1       9.923  31.532  58.421  1.00  0.00     0.045 C 
HETATM   12  C   UNL     1       8.793  30.453  60.350  1.00  0.00     0.045 C 
ENDBRANCH   8   9
ENDBRANCH   6   8
ENDBRANCH   1   2
BRANCH   1  13
HETATM   13  N   UNL     1       6.203  24.770  55.968  1.00  0.00    -0.353 N 
HETATM   14  C   UNL     1       7.317  23.987  56.162  1.00  0.00     0.253 C 
HETATM   15  O   UNL     1       8.042  24.077  57.146  1.00  0.00    -0.268 OA
HETATM   16  H   UNL     1       5.715  24.724  55.083  1.00  0.00     0.163 HD
BRANCH  14  17
HETATM   17  C   UNL     1       7.582  22.942  55.141  1.00  0.00     0.049 A 
HETATM   18  C   UNL     1       7.767  23.188  53.774  1.00  0.00     0.026 A 
HETATM   19 BR   UNL     1       7.786  24.928  53.011  1.00  0.00    -0.050 Br
HETATM   20  C   UNL     1       8.001  22.118  52.900  1.00  0.00     0.020 A 
HETATM   21  C   UNL     1       8.061  20.809  53.383  1.00  0.00     0.001 A 
HETATM   22  C   UNL     1       7.897  20.561  54.743  1.00  0.00     0.001 A 
HETATM   23  C   UNL     1       7.664  21.623  55.618  1.00  0.00     0.018 A 
ENDBRANCH  14  17
ENDBRANCH   1  13
TORSDOF 5
ENDMDL
MODEL 2
REMARK VINA RESULT:      -8.3      1.942      2.515
REMARK  5 active torsions:
REMARK  status: ('A' for Active; 'I' for Inactive)
REMARK    1  A    between atoms: C_2  and  O_3 
REMARK    2  A    between atoms: O_3  and  C_4 
REMARK    3  A    between atoms: C_8  and  C_9 
REMARK    4  A    between atoms: C_9  and  N_10 
REMARK       I    between atoms: N_10  and  C_11 
REMARK    5  A    between atoms: C_11  and  C_12 
ROOT
HETATM    1  C   UNL     1       6.967  28.219  55.643  1.00  0.00     0.161 C 
ENDROOT
BRANCH   1   2
HETATM    2  C   UNL     1       8.001  28.935  56.462  1.00  0.00    -0.035 A 
HETATM    3  C   UNL     1       9.202  29.351  55.883  1.00  0.00     0.028 A 
HETATM    4  C   UNL     1      10.141  29.981  56.683  1.00  0.00     0.120 A 
HETATM    5  N   UNL     1       9.971  30.212  58.002  1.00  0.00    -0.237 NA
HETATM    6  C   UNL     1       8.812  29.802  58.547  1.00  0.00     0.165 A 
HETATM    7  C   UNL     1       7.808  29.171  57.827  1.00  0.00     0.066 A 
BRANCH   6   8
HETATM    8  O   UNL     1       8.545  30.019  59.878  1.00  0.00    -0.324 OA
BRANCH   8   9
HETATM    9  C   UNL     1       8.311  31.357  60.359  1.00  0.00     0.058 C 
HETATM   10  C   UNL     1       7.243  32.108  59.550  1.00  0.00     0.045 C 
HETATM   11  C   UNL     1       9.611  32.163  60.499  1.00  0.00     0.045 C 
HETATM   12  C   UNL     1       7.745  31.139  61.776  1.00  0.00     0.045 C 
ENDBRANCH   8   9
ENDBRANCH   6   8
ENDBRANCH   1   2
BRANCH   1  13
HETATM   13  N   UNL     1       7.493  26.971  55.142  1.00  0.00    -0.353 N 
HETATM   14  C   UNL     1       6.733  25.826  55.159  1.00  0.00     0.253 C 
HETATM   15  O   UNL     1       5.546  25.807  55.462  1.00  0.00    -0.268 OA
HETATM   16  H   UNL     1       8.491  26.901  54.994  1.00  0.00     0.163 HD
BRANCH  14  17
HETATM   17  C   UNL     1       7.402  24.577  54.711  1.00  0.00     0.049 A 
HETATM   18  C   UNL     1       8.323  23.846  55.471  1.00  0.00     0.026 A 
HETATM   19 BR   UNL     1       8.810  24.296  57.252  1.00  0.00    -0.050 Br
HETATM   20  C   UNL     1       8.899  22.685  54.939  1.00  0.00     0.020 A 
HETATM   21  C   UNL     1       8.555  22.247  53.658  1.00  0.00     0.001 A 
HETATM   22  C   UNL     1       7.626  22.960  52.905  1.00  0.00     0.001 A 
HETATM   23  C   UNL     1       7.049  24.116  53.431  1.00  0.00     0.018 A 
ENDBRANCH  14  17
ENDBRANCH   1  13
TORSDOF 5
ENDMDL
MODEL 3
REMARK VINA RESULT:      -8.2      1.883      2.365
REMARK  5 active torsions:
REMARK  status: ('A' for Active; 'I' for Inactive)
REMARK    1  A    between atoms: C_2  and  O_3 
REMARK    2  A    between atoms: O_3  and  C_4 
REMARK    3  A    between atoms: C_8  and  C_9 
REMARK    4  A    between atoms: C_9  and  N_10 
REMARK       I    between atoms: N_10  and  C_11 
REMARK    5  A    between atoms: C_11  and  C_12 
ROOT
HETATM    1  C   UNL     1       7.394  26.592  53.785  1.00  0.00     0.161 C 
ENDROOT
BRANCH   1   2
HETATM    2  C   UNL     1       6.833  27.089  55.087  1.00  0.00    -0.035 A 
HETATM    3  C   UNL     1       5.453  27.110  55.303  1.00  0.00     0.028 A 
HETATM    4  C   UNL     1       4.979  27.605  56.506  1.00  0.00     0.120 A 
HETATM    5  N   UNL     1       5.773  28.082  57.489  1.00  0.00    -0.237 NA
HETATM    6  C   UNL     1       7.099  28.059  57.264  1.00  0.00     0.165 A 
HETATM    7  C   UNL     1       7.670  27.575  56.096  1.00  0.00     0.066 A 
BRANCH   6   8
HETATM    8  O   UNL     1       7.982  28.501  58.221  1.00  0.00    -0.324 OA
BRANCH   8   9
HETATM    9  C   UNL     1       8.369  29.888  58.261  1.00  0.00     0.058 C 
HETATM   10  C   UNL     1       7.275  30.833  57.742  1.00  0.00     0.045 C 
HETATM   11  C   UNL     1       9.725  30.136  57.584  1.00  0.00     0.045 C 
HETATM   12  C   UNL     1       8.544  30.173  59.767  1.00  0.00     0.045 C 
ENDBRANCH   8   9
ENDBRANCH   6   8
ENDBRANCH   1   2
BRANCH   1  13
HETATM   13  N   UNL     1       7.914  25.254  53.936  1.00  0.00    -0.353 N 
HETATM   14  C   UNL     1       7.102  24.157  53.775  1.00  0.00     0.253 C 
HETATM   15  O   UNL     1       5.947  24.225  53.372  1.00  0.00    -0.268 OA
HETATM   16  H   UNL     1       8.816  25.142  54.381  1.00  0.00     0.163 HD
BRANCH  14  17
HETATM   17  C   UNL     1       7.714  22.831  54.047  1.00  0.00     0.049 A 
HETATM   18  C   UNL     1       8.244  22.433  55.281  1.00  0.00     0.026 A 
HETATM   19 BR   UNL     1       8.195  23.511  56.845  1.00  0.00    -0.050 Br
HETATM   20  C   UNL     1       8.807  21.157  55.417  1.00  0.00     0.020 A 
HETATM   21  C   UNL     1       8.835  20.275  54.334  1.00  0.00     0.001 A 
HETATM   22  C   UNL     1       8.291  20.660  53.111  1.00  0.00     0.001 A 
HETATM   23  C   UNL     1       7.729  21.929  52.970  1.00  0.00     0.018 A 
ENDBRANCH  14  17
ENDBRANCH   1  13
TORSDOF 5
ENDMDL
MODEL 4
REMARK VINA RESULT:      -8.1      2.585      3.496
REMARK  5 active torsions:
REMARK  status: ('A' for Active; 'I' for Inactive)
REMARK    1  A    between atoms: C_2  and  O_3 
REMARK    2  A    between atoms: O_3  and  C_4 
REMARK    3  A    between atoms: C_8  and  C_9 
REMARK    4  A    between atoms: C_9  and  N_10 
REMARK       I    between atoms: N_10  and  C_11 
REMARK    5  A    between atoms: C_11  and  C_12 
ROOT
HETATM    1  C   UNL     1       5.539  25.355  52.215  1.00  0.00     0.161 C 
ENDROOT
BRANCH   1   2
HETATM    2  C   UNL     1       5.097  26.460  53.132  1.00  0.00    -0.035 A 
HETATM    3  C   UNL     1       4.212  27.443  52.682  1.00  0.00     0.028 A 
HETATM    4  C   UNL     1       3.856  28.460  53.552  1.00  0.00     0.120 A 
HETATM    5  N   UNL     1       4.321  28.568  54.814  1.00  0.00    -0.237 NA
HETATM    6  C   UNL     1       5.176  27.617  55.231  1.00  0.00     0.165 A 
HETATM    7  C   UNL     1       5.586  26.554  54.438  1.00  0.00     0.066 A 
BRANCH   6   8
HETATM    8  O   UNL     1       5.679  27.635  56.511  1.00  0.00    -0.324 OA
BRANCH   8   9
HETATM    9  C   UNL     1       6.770  28.514  56.846  1.00  0.00     0.058 C 
HETATM   10  C   UNL     1       6.317  29.775  57.597  1.00  0.00     0.045 C 
HETATM   11  C   UNL     1       7.649  28.843  55.630  1.00  0.00     0.045 C 
HETATM   12  C   UNL     1       7.621  27.679  57.823  1.00  0.00     0.045 C 
ENDBRANCH   8   9
ENDBRANCH   6   8
ENDBRANCH   1   2
BRANCH   1  13
HETATM   13  N   UNL     1       6.055  24.242  52.976  1.00  0.00    -0.353 N 
HETATM   14  C   UNL     1       7.393  23.928  52.950  1.00  0.00     0.253 C 
HETATM   15  O   UNL     1       8.241  24.627  52.408  1.00  0.00    -0.268 OA
HETATM   16  H   UNL     1       5.395  23.567  53.339  1.00  0.00     0.163 HD
BRANCH  14  17
HETATM   17  C   UNL     1       7.804  22.708  53.691  1.00  0.00     0.049 A 
HETATM   18  C   UNL     1       8.062  22.656  55.067  1.00  0.00     0.026 A 
HETATM   19 BR   UNL     1       7.848  24.140  56.235  1.00  0.00    -0.050 Br
HETATM   20  C   UNL     1       8.455  21.447  55.656  1.00  0.00     0.020 A 
HETATM   21  C   UNL     1       8.582  20.291  54.883  1.00  0.00     0.001 A 
HETATM   22  C   UNL     1       8.308  20.333  53.519  1.00  0.00     0.001 A 
HETATM   23  C   UNL     1       7.917  21.534  52.927  1.00  0.00     0.018 A 
ENDBRANCH  14  17
ENDBRANCH   1  13
TORSDOF 5
ENDMDL
MODEL 5
REMARK VINA RESULT:      -8.0      3.585      9.039
REMARK  5 active torsions:
REMARK  status: ('A' for Active; 'I' for Inactive)
REMARK    1  A    between atoms: C_2  and  O_3 
REMARK    2  A    between atoms: O_3  and  C_4 
REMARK    3  A    between atoms: C_8  and  C_9 
REMARK    4  A    between atoms: C_9  and  N_10 
REMARK       I    between atoms: N_10  and  C_11 
REMARK    5  A    between atoms: C_11  and  C_12 
ROOT
HETATM    1  C   UNL     1       8.383  29.737  58.562  1.00  0.00     0.161 C 
ENDROOT
BRANCH   1   2
HETATM    2  C   UNL     1       7.299  29.024  57.805  1.00  0.00    -0.035 A 
HETATM    3  C   UNL     1       6.058  29.632  57.602  1.00  0.00     0.028 A 
HETATM    4  C   UNL     1       5.078  28.925  56.925  1.00  0.00     0.120 A 
HETATM    5  N   UNL     1       5.244  27.671  56.455  1.00  0.00    -0.237 NA
HETATM    6  C   UNL     1       6.442  27.097  56.663  1.00  0.00     0.165 A 
HETATM    7  C   UNL     1       7.489  27.726  57.321  1.00  0.00     0.066 A 
BRANCH   6   8
HETATM    8  O   UNL     1       6.706  25.831  56.194  1.00  0.00    -0.324 OA
BRANCH   8   9
HETATM    9  C   UNL     1       6.828  25.596  54.779  1.00  0.00     0.058 C 
HETATM   10  C   UNL     1       7.433  26.787  54.021  1.00  0.00     0.045 C 
HETATM   11  C   UNL     1       5.513  25.112  54.152  1.00  0.00     0.045 C 
HETATM   12  C   UNL     1       7.839  24.435  54.690  1.00  0.00     0.045 C 
ENDBRANCH   8   9
ENDBRANCH   6   8
ENDBRANCH   1   2
BRANCH   1  13
HETATM   13  N   UNL     1       7.834  30.421  59.708  1.00  0.00    -0.353 N 
HETATM   14  C   UNL     1       8.211  31.708  60.012  1.00  0.00     0.253 C 
HETATM   15  O   UNL     1       8.914  32.396  59.281  1.00  0.00    -0.268 OA
HETATM   16  H   UNL     1       7.350  29.870  60.405  1.00  0.00     0.163 HD
BRANCH  14  17
HETATM   17  C   UNL     1       7.660  32.284  61.265  1.00  0.00     0.049 A 
HETATM   18  C   UNL     1       6.417  32.919  61.375  1.00  0.00     0.026 A 
HETATM   19 BR   UNL     1       5.185  33.077  59.936  1.00  0.00    -0.050 Br
HETATM   20  C   UNL     1       6.005  33.436  62.610  1.00  0.00     0.020 A 
HETATM   21  C   UNL     1       6.822  33.314  63.736  1.00  0.00     0.001 A 
HETATM   22  C   UNL     1       8.051  32.667  63.637  1.00  0.00     0.001 A 
HETATM   23  C   UNL     1       8.466  32.151  62.409  1.00  0.00     0.018 A 
ENDBRANCH  14  17
ENDBRANCH   1  13
TORSDOF 5
ENDMDL
MODEL 6
REMARK VINA RESULT:      -8.0      2.019      3.737
REMARK  5 active torsions:
REMARK  status: ('A' for Active; 'I' for Inactive)
REMARK    1  A    between atoms: C_2  and  O_3 
REMARK    2  A    between atoms: O_3  and  C_4 
REMARK    3  A    between atoms: C_8  and  C_9 
REMARK    4  A    between atoms: C_9  and  N_10 
REMARK       I    between atoms: N_10  and  C_11 
REMARK    5  A    between atoms: C_11  and  C_12 
ROOT
HETATM    1  C   UNL     1       6.734  25.411  57.302  1.00  0.00     0.161 C 
ENDROOT
BRANCH   1   2
HETATM    2  C   UNL     1       7.165  26.663  56.594  1.00  0.00    -0.035 A 
HETATM    3  C   UNL     1       7.903  27.640  57.266  1.00  0.00     0.028 A 
HETATM    4  C   UNL     1       8.253  28.792  56.583  1.00  0.00     0.120 A 
HETATM    5  N   UNL     1       7.916  29.037  55.299  1.00  0.00    -0.237 NA
HETATM    6  C   UNL     1       7.202  28.089  54.666  1.00  0.00     0.165 A 
HETATM    7  C   UNL     1       6.811  26.899  55.262  1.00  0.00     0.066 A 
BRANCH   6   8
HETATM    8  O   UNL     1       6.838  28.245  53.349  1.00  0.00    -0.324 OA
BRANCH   8   9
HETATM    9  C   UNL     1       5.453  28.431  53.000  1.00  0.00     0.058 C 
HETATM   10  C   UNL     1       4.711  29.370  53.964  1.00  0.00     0.045 C 
HETATM   11  C   UNL     1       4.717  27.099  52.800  1.00  0.00     0.045 C 
HETATM   12  C   UNL     1       5.516  29.138  51.631  1.00  0.00     0.045 C 
ENDBRANCH   8   9
ENDBRANCH   6   8
ENDBRANCH   1   2
BRANCH   1  13
HETATM   13  N   UNL     1       6.847  24.269  56.427  1.00  0.00    -0.353 N 
HETATM   14  C   UNL     1       8.073  23.720  56.135  1.00  0.00     0.253 C 
HETATM   15  O   UNL     1       9.114  24.062  56.685  1.00  0.00    -0.268 OA
HETATM   16  H   UNL     1       6.047  24.024  55.857  1.00  0.00     0.163 HD
BRANCH  14  17
HETATM   17  C   UNL     1       8.087  22.610  55.149  1.00  0.00     0.049 A 
HETATM   18  C   UNL     1       7.966  22.770  53.762  1.00  0.00     0.026 A 
HETATM   19 BR   UNL     1       7.841  24.461  52.905  1.00  0.00    -0.050 Br
HETATM   20  C   UNL     1       7.982  21.644  52.928  1.00  0.00     0.020 A 
HETATM   21  C   UNL     1       8.129  20.364  53.467  1.00  0.00     0.001 A 
HETATM   22  C   UNL     1       8.269  20.202  54.843  1.00  0.00     0.001 A 
HETATM   23  C   UNL     1       8.253  21.319  55.679  1.00  0.00     0.018 A 
ENDBRANCH  14  17
ENDBRANCH   1  13
TORSDOF 5
ENDMDL
MODEL 7
REMARK VINA RESULT:      -7.9      2.451      3.433
REMARK  5 active torsions:
REMARK  status: ('A' for Active; 'I' for Inactive)
REMARK    1  A    between atoms: C_2  and  O_3 
REMARK    2  A    between atoms: O_3  and  C_4 
REMARK    3  A    between atoms: C_8  and  C_9 
REMARK    4  A    between atoms: C_9  and  N_10 
REMARK       I    between atoms: N_10  and  C_11 
REMARK    5  A    between atoms: C_11  and  C_12 
ROOT
HETATM    1  C   UNL     1       5.608  24.991  52.739  1.00  0.00     0.161 C 
ENDROOT
BRANCH   1   2
HETATM    2  C   UNL     1       5.470  26.390  53.268  1.00  0.00    -0.035 A 
HETATM    3  C   UNL     1       5.050  27.427  52.431  1.00  0.00     0.028 A 
HETATM    4  C   UNL     1       4.967  28.706  52.953  1.00  0.00     0.120 A 
HETATM    5  N   UNL     1       5.277  29.021  54.228  1.00  0.00    -0.237 NA
HETATM    6  C   UNL     1       5.683  28.013  55.021  1.00  0.00     0.165 A 
HETATM    7  C   UNL     1       5.791  26.697  54.594  1.00  0.00     0.066 A 
BRANCH   6   8
HETATM    8  O   UNL     1       5.994  28.239  56.342  1.00  0.00    -0.324 OA
BRANCH   8   9
HETATM    9  C   UNL     1       7.371  28.357  56.749  1.00  0.00     0.058 C 
HETATM   10  C   UNL     1       8.262  29.002  55.678  1.00  0.00     0.045 C 
HETATM   11  C   UNL     1       7.944  27.028  57.263  1.00  0.00     0.045 C 
HETATM   12  C   UNL     1       7.313  29.330  57.944  1.00  0.00     0.045 C 
ENDBRANCH   8   9
ENDBRANCH   6   8
ENDBRANCH   1   2
BRANCH   1  13
HETATM   13  N   UNL     1       6.132  24.114  53.759  1.00  0.00    -0.353 N 
HETATM   14  C   UNL     1       7.392  23.577  53.651  1.00  0.00     0.253 C 
HETATM   15  O   UNL     1       8.191  23.898  52.779  1.00  0.00    -0.268 OA
HETATM   16  H   UNL     1       5.483  23.723  54.430  1.00  0.00     0.163 HD
BRANCH  14  17
HETATM   17  C   UNL     1       7.797  22.612  54.706  1.00  0.00     0.049 A 
HETATM   18  C   UNL     1       8.121  21.268  54.479  1.00  0.00     0.026 A 
HETATM   19 BR   UNL     1       8.172  20.475  52.752  1.00  0.00    -0.050 Br
HETATM   20  C   UNL     1       8.480  20.447  55.556  1.00  0.00     0.020 A 
HETATM   21  C   UNL     1       8.526  20.961  56.854  1.00  0.00     0.001 A 
HETATM   22  C   UNL     1       8.223  22.301  57.082  1.00  0.00     0.001 A 
HETATM   23  C   UNL     1       7.865  23.123  56.013  1.00  0.00     0.018 A 
ENDBRANCH  14  17
ENDBRANCH   1  13
TORSDOF 5
ENDMDL
MODEL 8
REMARK VINA RESULT:      -7.6      5.528      8.459
REMARK  5 active torsions:
REMARK  status: ('A' for Active; 'I' for Inactive)
REMARK    1  A    between atoms: C_2  and  O_3 
REMARK    2  A    between atoms: O_3  and  C_4 
REMARK    3  A    between atoms: C_8  and  C_9 
REMARK    4  A    between atoms: C_9  and  N_10 
REMARK       I    between atoms: N_10  and  C_11 
REMARK    5  A    between atoms: C_11  and  C_12 
ROOT
HETATM    1  C   UNL     1       8.899  32.032  61.956  1.00  0.00     0.161 C 
ENDROOT
BRANCH   1   2
HETATM    2  C   UNL     1       7.731  32.453  62.801  1.00  0.00    -0.035 A 
HETATM    3  C   UNL     1       7.933  32.972  64.083  1.00  0.00     0.028 A 
HETATM    4  C   UNL     1       6.826  33.318  64.839  1.00  0.00     0.120 A 
HETATM    5  N   UNL     1       5.552  33.175  64.417  1.00  0.00    -0.237 NA
HETATM    6  C   UNL     1       5.373  32.670  63.183  1.00  0.00     0.165 A 
HETATM    7  C   UNL     1       6.417  32.302  62.347  1.00  0.00     0.066 A 
BRANCH   6   8
HETATM    8  O   UNL     1       4.109  32.515  62.664  1.00  0.00    -0.324 OA
BRANCH   8   9
HETATM    9  C   UNL     1       3.471  33.609  61.978  1.00  0.00     0.058 C 
HETATM   10  C   UNL     1       2.806  33.186  60.659  1.00  0.00     0.045 C 
HETATM   11  C   UNL     1       4.407  34.813  61.800  1.00  0.00     0.045 C 
HETATM   12  C   UNL     1       2.346  34.034  62.943  1.00  0.00     0.045 C 
ENDBRANCH   8   9
ENDBRANCH   6   8
ENDBRANCH   1   2
BRANCH   1  13
HETATM   13  N   UNL     1       8.456  31.211  60.854  1.00  0.00    -0.353 N 
HETATM   14  C   UNL     1       8.759  31.547  59.556  1.00  0.00     0.253 C 
HETATM   15  O   UNL     1       9.517  32.461  59.254  1.00  0.00    -0.268 OA
HETATM   16  H   UNL     1       7.736  30.523  61.032  1.00  0.00     0.163 HD
BRANCH  14  17
HETATM   17  C   UNL     1       8.174  30.689  58.493  1.00  0.00     0.049 A 
HETATM   18  C   UNL     1       6.869  30.807  57.998  1.00  0.00     0.026 A 
HETATM   19 BR   UNL     1       5.648  32.152  58.557  1.00  0.00    -0.050 Br
HETATM   20  C   UNL     1       6.422  29.932  56.999  1.00  0.00     0.020 A 
HETATM   21  C   UNL     1       7.271  28.949  56.487  1.00  0.00     0.001 A 
HETATM   22  C   UNL     1       8.575  28.840  56.963  1.00  0.00     0.001 A 
HETATM   23  C   UNL     1       9.026  29.708  57.957  1.00  0.00     0.018 A 
ENDBRANCH  14  17
ENDBRANCH   1  13
TORSDOF 5
ENDMDL
MODEL 9
REMARK VINA RESULT:      -7.5      1.822      2.339
REMARK  5 active torsions:
REMARK  status: ('A' for Active; 'I' for Inactive)
REMARK    1  A    between atoms: C_2  and  O_3 
REMARK    2  A    between atoms: O_3  and  C_4 
REMARK    3  A    between atoms: C_8  and  C_9 
REMARK    4  A    between atoms: C_9  and  N_10 
REMARK       I    between atoms: N_10  and  C_11 
REMARK    5  A    between atoms: C_11  and  C_12 
ROOT
HETATM    1  C   UNL     1       7.487  25.867  57.769  1.00  0.00     0.161 C 
ENDROOT
BRANCH   1   2
HETATM    2  C   UNL     1       7.677  27.255  57.229  1.00  0.00    -0.035 A 
HETATM    3  C   UNL     1       8.961  27.756  56.998  1.00  0.00     0.028 A 
HETATM    4  C   UNL     1       9.091  29.053  56.528  1.00  0.00     0.120 A 
HETATM    5  N   UNL     1       8.047  29.873  56.286  1.00  0.00    -0.237 NA
HETATM    6  C   UNL     1       6.817  29.378  56.517  1.00  0.00     0.165 A 
HETATM    7  C   UNL     1       6.585  28.091  56.979  1.00  0.00     0.066 A 
BRANCH   6   8
HETATM    8  O   UNL     1       5.697  30.137  56.273  1.00  0.00    -0.324 OA
BRANCH   8   9
HETATM    9  C   UNL     1       5.271  31.125  57.231  1.00  0.00     0.058 C 
HETATM   10  C   UNL     1       4.902  32.469  56.586  1.00  0.00     0.045 C 
HETATM   11  C   UNL     1       6.269  31.286  58.387  1.00  0.00     0.045 C 
HETATM   12  C   UNL     1       3.975  30.527  57.816  1.00  0.00     0.045 C 
ENDBRANCH   8   9
ENDBRANCH   6   8
ENDBRANCH   1   2
BRANCH   1  13
HETATM   13  N   UNL     1       7.847  24.884  56.776  1.00  0.00    -0.353 N 
HETATM   14  C   UNL     1       6.904  24.362  55.922  1.00  0.00     0.253 C 
HETATM   15  O   UNL     1       5.754  24.778  55.851  1.00  0.00    -0.268 OA
HETATM   16  H   UNL     1       8.742  24.421  56.867  1.00  0.00     0.163 HD
BRANCH  14  17
HETATM   17  C   UNL     1       7.361  23.287  55.004  1.00  0.00     0.049 A 
HETATM   18  C   UNL     1       7.663  23.468  53.648  1.00  0.00     0.026 A 
HETATM   19 BR   UNL     1       7.612  25.156  52.775  1.00  0.00    -0.050 Br
HETATM   20  C   UNL     1       8.074  22.375  52.875  1.00  0.00     0.020 A 
HETATM   21  C   UNL     1       8.196  21.108  53.448  1.00  0.00     0.001 A 
HETATM   22  C   UNL     1       7.915  20.926  54.800  1.00  0.00     0.001 A 
HETATM   23  C   UNL     1       7.504  22.011  55.575  1.00  0.00     0.018 A 
ENDBRANCH  14  17
ENDBRANCH   1  13
TORSDOF 5
ENDMDL
MODEL 10
REMARK VINA RESULT:      -7.5      4.665      6.571
REMARK  5 active torsions:
REMARK  status: ('A' for Active; 'I' for Inactive)
REMARK    1  A    between atoms: C_2  and  O_3 
REMARK    2  A    between atoms: O_3  and  C_4 
REMARK    3  A    between atoms: C_8  and  C_9 
REMARK    4  A    between atoms: C_9  and  N_10 
REMARK       I    between atoms: N_10  and  C_11 
REMARK    5  A    between atoms: C_11  and  C_12 
ROOT
HETATM    1  C   UNL     1       6.266  27.858  54.435  1.00  0.00     0.161 C 
ENDROOT
BRANCH   1   2
HETATM    2  C   UNL     1       5.289  28.196  53.346  1.00  0.00    -0.035 A 
HETATM    3  C   UNL     1       3.957  28.485  53.652  1.00  0.00     0.028 A 
HETATM    4  C   UNL     1       3.084  28.761  52.613  1.00  0.00     0.120 A 
HETATM    5  N   UNL     1       3.439  28.760  51.311  1.00  0.00    -0.237 NA
HETATM    6  C   UNL     1       4.724  28.476  51.031  1.00  0.00     0.165 A 
HETATM    7  C   UNL     1       5.675  28.195  52.002  1.00  0.00     0.066 A 
BRANCH   6   8
HETATM    8  O   UNL     1       5.178  28.477  49.733  1.00  0.00    -0.324 OA
BRANCH   8   9
HETATM    9  C   UNL     1       4.486  27.716  48.725  1.00  0.00     0.058 C 
HETATM   10  C   UNL     1       3.170  28.369  48.276  1.00  0.00     0.045 C 
HETATM   11  C   UNL     1       4.301  26.246  49.127  1.00  0.00     0.045 C 
HETATM   12  C   UNL     1       5.449  27.751  47.521  1.00  0.00     0.045 C 
ENDBRANCH   8   9
ENDBRANCH   6   8
ENDBRANCH   1   2
BRANCH   1  13
HETATM   13  N   UNL     1       6.926  26.607  54.152  1.00  0.00    -0.353 N 
HETATM   14  C   UNL     1       6.598  25.462  54.838  1.00  0.00     0.253 C 
HETATM   15  O   UNL     1       5.657  25.389  55.619  1.00  0.00    -0.268 OA
HETATM   16  H   UNL     1       7.781  26.631  53.611  1.00  0.00     0.163 HD
BRANCH  14  17
HETATM   17  C   UNL     1       7.404  24.251  54.537  1.00  0.00     0.049 A 
HETATM   18  C   UNL     1       8.376  23.706  55.385  1.00  0.00     0.026 A 
HETATM   19 BR   UNL     1       8.770  24.393  57.113  1.00  0.00    -0.050 Br
HETATM   20  C   UNL     1       9.084  22.563  54.989  1.00  0.00     0.020 A 
HETATM   21  C   UNL     1       8.820  21.957  53.759  1.00  0.00     0.001 A 
HETATM   22  C   UNL     1       7.840  22.484  52.920  1.00  0.00     0.001 A 
HETATM   23  C   UNL     1       7.133  23.622  53.310  1.00  0.00     0.018 A 
ENDBRANCH  14  17
ENDBRANCH   1  13
TORSDOF 5
ENDMDL
