MODEL 1
REMARK VINA RESULT:      -8.9      0.000      0.000
REMARK  3 active torsions:
REMARK  status: ('A' for Active; 'I' for Inactive)
REMARK    1  A    between atoms: C_5  and  C_6 
REMARK    2  A    between atoms: C_10  and  N_11 
REMARK    3  A    between atoms: C_18  and  C_19 
ROOT
HETATM    1  C   UNL     1       5.394  27.227  54.999  1.00  0.00     0.106 A 
HETATM    2  C   UNL     1       4.408  28.357  54.685  1.00  0.00     0.081 A 
HETATM    3  C   UNL     1       3.966  29.140  55.791  1.00  0.00     0.100 C 
HETATM    4  N   UNL     1       3.602  29.779  56.689  1.00  0.00    -0.191 NA
HETATM    5  C   UNL     1       3.929  28.594  53.433  1.00  0.00     0.140 A 
HETATM    6  O   UNL     1       4.309  27.812  52.329  1.00  0.00    -0.279 OA
HETATM    7  C   UNL     1       5.096  26.775  52.586  1.00  0.00     0.175 A 
HETATM    8  C   UNL     1       5.647  26.400  53.785  1.00  0.00     0.040 A 
HETATM    9  N   UNL     1       5.502  25.868  51.665  1.00  0.00    -0.256 N 
HETATM   10  H   UNL     1       5.285  25.837  50.676  1.00  0.00     0.191 HD
HETATM   11  N   UNL     1       6.285  24.908  52.188  1.00  0.00    -0.172 NA
HETATM   12  C   UNL     1       6.363  25.203  53.503  1.00  0.00     0.099 A 
ENDROOT
BRANCH   1  13
HETATM   13  C   UNL     1       6.745  27.750  55.468  1.00  0.00    -0.044 A 
HETATM   14  C   UNL     1       7.096  27.631  56.823  1.00  0.00     0.009 A 
HETATM   15  C   UNL     1       8.303  28.150  57.300  1.00  0.00     0.007 A 
HETATM   16  C   UNL     1       9.181  28.814  56.439  1.00  0.00    -0.062 A 
HETATM   17  C   UNL     1      10.488  29.347  56.946  1.00  0.00     0.048 C 
HETATM   18  C   UNL     1       8.847  28.926  55.086  1.00  0.00     0.007 A 
HETATM   19  C   UNL     1       7.639  28.413  54.608  1.00  0.00     0.009 A 
ENDBRANCH   1  13
BRANCH   5  20
HETATM   20  N   UNL     1       3.041  29.591  53.093  1.00  0.00    -0.282 NA
HETATM   21  H   UNL     1       2.062  29.390  53.287  1.00  0.00     0.126 HD
HETATM   22  H   UNL     1       3.336  30.500  53.439  1.00  0.00     0.126 HD
ENDBRANCH   5  20
BRANCH  12  23
HETATM   23  C   UNL     1       7.115  24.342  54.413  1.00  0.00    -0.005 A 
HETATM   24  C   UNL     1       8.163  23.551  53.920  1.00  0.00     0.014 A 
HETATM   25  C   UNL     1       8.888  22.718  54.775  1.00  0.00     0.001 A 
HETATM   26  C   UNL     1       8.568  22.663  56.131  1.00  0.00     0.000 A 
HETATM   27  C   UNL     1       7.521  23.437  56.630  1.00  0.00     0.001 A 
HETATM   28  C   UNL     1       6.795  24.269  55.774  1.00  0.00     0.014 A 
ENDBRANCH  12  23
TORSDOF 3
ENDMDL
MODEL 2
REMARK VINA RESULT:      -8.1      5.628      8.853
REMARK  3 active torsions:
REMARK  status: ('A' for Active; 'I' for Inactive)
REMARK    1  A    between atoms: C_5  and  C_6 
REMARK    2  A    between atoms: C_10  and  N_11 
REMARK    3  A    between atoms: C_18  and  C_19 
ROOT
HETATM    1  C   UNL     1       7.096  31.889  58.871  1.00  0.00     0.106 A 
HETATM    2  C   UNL     1       8.219  30.958  58.404  1.00  0.00     0.081 A 
HETATM    3  C   UNL     1       9.546  31.472  58.484  1.00  0.00     0.100 C 
HETATM    4  N   UNL     1      10.628  31.888  58.545  1.00  0.00    -0.191 NA
HETATM    5  C   UNL     1       7.987  29.717  57.893  1.00  0.00     0.140 A 
HETATM    6  O   UNL     1       6.688  29.199  57.759  1.00  0.00    -0.279 OA
HETATM    7  C   UNL     1       5.691  30.015  58.078  1.00  0.00     0.175 A 
HETATM    8  C   UNL     1       5.763  31.286  58.589  1.00  0.00     0.040 A 
HETATM    9  N   UNL     1       4.377  29.718  57.940  1.00  0.00    -0.256 N 
HETATM   10  H   UNL     1       3.959  28.864  57.592  1.00  0.00     0.191 HD
HETATM   11  N   UNL     1       3.573  30.725  58.324  1.00  0.00    -0.172 NA
HETATM   12  C   UNL     1       4.410  31.714  58.701  1.00  0.00     0.099 A 
ENDROOT
BRANCH   1  13
HETATM   13  C   UNL     1       7.152  32.157  60.370  1.00  0.00    -0.044 A 
HETATM   14  C   UNL     1       6.713  33.397  60.863  1.00  0.00     0.009 A 
HETATM   15  C   UNL     1       6.802  33.700  62.225  1.00  0.00     0.007 A 
HETATM   16  C   UNL     1       7.345  32.777  63.124  1.00  0.00    -0.062 A 
HETATM   17  C   UNL     1       7.415  33.093  64.589  1.00  0.00     0.048 C 
HETATM   18  C   UNL     1       7.771  31.536  62.645  1.00  0.00     0.007 A 
HETATM   19  C   UNL     1       7.688  31.233  61.284  1.00  0.00     0.009 A 
ENDBRANCH   1  13
BRANCH   5  20
HETATM   20  N   UNL     1       8.954  28.840  57.456  1.00  0.00    -0.282 NA
HETATM   21  H   UNL     1       8.831  27.872  57.746  1.00  0.00     0.126 HD
HETATM   22  H   UNL     1       9.136  28.936  56.461  1.00  0.00     0.126 HD
ENDBRANCH   5  20
BRANCH  12  23
HETATM   23  C   UNL     1       3.885  33.000  59.153  1.00  0.00    -0.005 A 
HETATM   24  C   UNL     1       4.171  34.166  58.428  1.00  0.00     0.014 A 
HETATM   25  C   UNL     1       3.682  35.404  58.849  1.00  0.00     0.001 A 
HETATM   26  C   UNL     1       2.907  35.490  60.004  1.00  0.00     0.000 A 
HETATM   27  C   UNL     1       2.625  34.340  60.740  1.00  0.00     0.001 A 
HETATM   28  C   UNL     1       3.116  33.101  60.319  1.00  0.00     0.014 A 
ENDBRANCH  12  23
TORSDOF 3
ENDMDL
MODEL 3
REMARK VINA RESULT:      -8.0      2.021      4.800
REMARK  3 active torsions:
REMARK  status: ('A' for Active; 'I' for Inactive)
REMARK    1  A    between atoms: C_5  and  C_6 
REMARK    2  A    between atoms: C_10  and  N_11 
REMARK    3  A    between atoms: C_18  and  C_19 
ROOT
HETATM    1  C   UNL     1       5.706  28.100  52.616  1.00  0.00     0.106 A 
HETATM    2  C   UNL     1       4.749  28.300  51.436  1.00  0.00     0.081 A 
HETATM    3  C   UNL     1       5.320  28.218  50.133  1.00  0.00     0.100 C 
HETATM    4  N   UNL     1       5.781  28.154  49.070  1.00  0.00    -0.191 NA
HETATM    5  C   UNL     1       3.427  28.586  51.596  1.00  0.00     0.140 A 
HETATM    6  O   UNL     1       2.843  28.719  52.868  1.00  0.00    -0.279 OA
HETATM    7  C   UNL     1       3.665  28.633  53.906  1.00  0.00     0.175 A 
HETATM    8  C   UNL     1       5.010  28.364  53.907  1.00  0.00     0.040 A 
HETATM    9  N   UNL     1       3.297  28.811  55.197  1.00  0.00    -0.256 N 
HETATM   10  H   UNL     1       2.378  29.024  55.565  1.00  0.00     0.191 HD
HETATM   11  N   UNL     1       4.326  28.682  56.054  1.00  0.00    -0.172 NA
HETATM   12  C   UNL     1       5.398  28.435  55.274  1.00  0.00     0.099 A 
ENDROOT
BRANCH   1  13
HETATM   13  C   UNL     1       6.247  26.677  52.687  1.00  0.00    -0.044 A 
HETATM   14  C   UNL     1       5.346  25.601  52.739  1.00  0.00     0.009 A 
HETATM   15  C   UNL     1       5.805  24.286  52.862  1.00  0.00     0.007 A 
HETATM   16  C   UNL     1       7.174  24.017  52.951  1.00  0.00    -0.062 A 
HETATM   17  C   UNL     1       7.666  22.604  53.056  1.00  0.00     0.048 C 
HETATM   18  C   UNL     1       8.079  25.080  52.887  1.00  0.00     0.007 A 
HETATM   19  C   UNL     1       7.622  26.395  52.769  1.00  0.00     0.009 A 
ENDBRANCH   1  13
BRANCH   5  20
HETATM   20  N   UNL     1       2.522  28.779  50.576  1.00  0.00    -0.282 NA
HETATM   21  H   UNL     1       2.902  29.192  49.726  1.00  0.00     0.126 HD
HETATM   22  H   UNL     1       1.963  27.949  50.399  1.00  0.00     0.126 HD
ENDBRANCH   5  20
BRANCH  12  23
HETATM   23  C   UNL     1       6.725  28.271  55.865  1.00  0.00    -0.005 A 
HETATM   24  C   UNL     1       7.076  27.054  56.467  1.00  0.00     0.014 A 
HETATM   25  C   UNL     1       8.337  26.882  57.042  1.00  0.00     0.001 A 
HETATM   26  C   UNL     1       9.257  27.929  57.028  1.00  0.00     0.000 A 
HETATM   27  C   UNL     1       8.915  29.147  56.442  1.00  0.00     0.001 A 
HETATM   28  C   UNL     1       7.653  29.319  55.868  1.00  0.00     0.014 A 
ENDBRANCH  12  23
TORSDOF 3
ENDMDL
MODEL 4
REMARK VINA RESULT:      -7.8      9.332     12.028
REMARK  3 active torsions:
REMARK  status: ('A' for Active; 'I' for Inactive)
REMARK    1  A    between atoms: C_5  and  C_6 
REMARK    2  A    between atoms: C_10  and  N_11 
REMARK    3  A    between atoms: C_18  and  C_19 
ROOT
HETATM    1  C   UNL     1       4.981  33.716  62.025  1.00  0.00     0.106 A 
HETATM    2  C   UNL     1       4.955  33.335  60.541  1.00  0.00     0.081 A 
HETATM    3  C   UNL     1       3.746  33.606  59.836  1.00  0.00     0.100 C 
HETATM    4  N   UNL     1       2.763  33.824  59.259  1.00  0.00    -0.191 NA
HETATM    5  C   UNL     1       6.000  32.727  59.915  1.00  0.00     0.140 A 
HETATM    6  O   UNL     1       7.188  32.405  60.592  1.00  0.00    -0.279 OA
HETATM    7  C   UNL     1       7.207  32.648  61.897  1.00  0.00     0.175 A 
HETATM    8  C   UNL     1       6.238  33.238  62.667  1.00  0.00     0.040 A 
HETATM    9  N   UNL     1       8.232  32.334  62.724  1.00  0.00    -0.256 N 
HETATM   10  H   UNL     1       9.112  31.887  62.494  1.00  0.00     0.191 HD
HETATM   11  N   UNL     1       7.993  32.676  64.003  1.00  0.00    -0.172 NA
HETATM   12  C   UNL     1       6.753  33.209  63.993  1.00  0.00     0.099 A 
ENDROOT
BRANCH   1  13
HETATM   13  C   UNL     1       4.921  35.223  62.237  1.00  0.00    -0.044 A 
HETATM   14  C   UNL     1       6.089  35.987  62.075  1.00  0.00     0.009 A 
HETATM   15  C   UNL     1       6.085  37.364  62.316  1.00  0.00     0.007 A 
HETATM   16  C   UNL     1       4.918  38.008  62.738  1.00  0.00    -0.062 A 
HETATM   17  C   UNL     1       4.908  39.490  62.971  1.00  0.00     0.048 C 
HETATM   18  C   UNL     1       3.748  37.259  62.888  1.00  0.00     0.007 A 
HETATM   19  C   UNL     1       3.750  35.882  62.653  1.00  0.00     0.009 A 
ENDBRANCH   1  13
BRANCH   5  20
HETATM   20  N   UNL     1       6.031  32.360  58.588  1.00  0.00    -0.282 NA
HETATM   21  H   UNL     1       6.343  31.408  58.404  1.00  0.00     0.126 HD
HETATM   22  H   UNL     1       5.169  32.597  58.105  1.00  0.00     0.126 HD
ENDBRANCH   5  20
BRANCH  12  23
HETATM   23  C   UNL     1       6.133  33.669  65.234  1.00  0.00    -0.005 A 
HETATM   24  C   UNL     1       6.937  34.024  66.326  1.00  0.00     0.014 A 
HETATM   25  C   UNL     1       6.360  34.460  67.522  1.00  0.00     0.001 A 
HETATM   26  C   UNL     1       4.973  34.538  67.638  1.00  0.00     0.000 A 
HETATM   27  C   UNL     1       4.164  34.176  66.562  1.00  0.00     0.001 A 
HETATM   28  C   UNL     1       4.741  33.739  65.367  1.00  0.00     0.014 A 
ENDBRANCH  12  23
TORSDOF 3
ENDMDL
MODEL 5
REMARK VINA RESULT:      -7.8      4.434      7.315
REMARK  3 active torsions:
REMARK  status: ('A' for Active; 'I' for Inactive)
REMARK    1  A    between atoms: C_5  and  C_6 
REMARK    2  A    between atoms: C_10  and  N_11 
REMARK    3  A    between atoms: C_18  and  C_19 
ROOT
HETATM    1  C   UNL     1       7.170  29.632  57.741  1.00  0.00     0.106 A 
HETATM    2  C   UNL     1       6.978  28.810  56.463  1.00  0.00     0.081 A 
HETATM    3  C   UNL     1       5.746  28.102  56.341  1.00  0.00     0.100 C 
HETATM    4  N   UNL     1       4.747  27.522  56.239  1.00  0.00    -0.191 NA
HETATM    5  C   UNL     1       7.933  28.708  55.499  1.00  0.00     0.140 A 
HETATM    6  O   UNL     1       9.175  29.357  55.610  1.00  0.00    -0.279 OA
HETATM    7  C   UNL     1       9.401  30.007  56.744  1.00  0.00     0.175 A 
HETATM    8  C   UNL     1       8.551  30.188  57.805  1.00  0.00     0.040 A 
HETATM    9  N   UNL     1      10.564  30.625  57.060  1.00  0.00    -0.256 N 
HETATM   10  H   UNL     1      11.411  30.692  56.508  1.00  0.00     0.191 HD
HETATM   11  N   UNL     1      10.535  31.199  58.276  1.00  0.00    -0.172 NA
HETATM   12  C   UNL     1       9.310  30.915  58.764  1.00  0.00     0.099 A 
ENDROOT
BRANCH   1  13
HETATM   13  C   UNL     1       6.212  30.814  57.819  1.00  0.00    -0.044 A 
HETATM   14  C   UNL     1       5.547  31.082  59.027  1.00  0.00     0.009 A 
HETATM   15  C   UNL     1       4.619  32.124  59.120  1.00  0.00     0.007 A 
HETATM   16  C   UNL     1       4.323  32.913  58.005  1.00  0.00    -0.062 A 
HETATM   17  C   UNL     1       3.347  34.047  58.113  1.00  0.00     0.048 C 
HETATM   18  C   UNL     1       4.990  32.663  56.802  1.00  0.00     0.007 A 
HETATM   19  C   UNL     1       5.913  31.620  56.706  1.00  0.00     0.009 A 
ENDBRANCH   1  13
BRANCH   5  20
HETATM   20  N   UNL     1       7.818  27.983  54.333  1.00  0.00    -0.282 NA
HETATM   21  H   UNL     1       8.371  27.129  54.292  1.00  0.00     0.126 HD
HETATM   22  H   UNL     1       6.848  27.842  54.065  1.00  0.00     0.126 HD
ENDBRANCH   5  20
BRANCH  12  23
HETATM   23  C   UNL     1       8.924  31.355  60.104  1.00  0.00    -0.005 A 
HETATM   24  C   UNL     1       9.111  30.501  61.200  1.00  0.00     0.014 A 
HETATM   25  C   UNL     1       8.742  30.903  62.486  1.00  0.00     0.001 A 
HETATM   26  C   UNL     1       8.177  32.161  62.687  1.00  0.00     0.000 A 
HETATM   27  C   UNL     1       7.976  33.014  61.602  1.00  0.00     0.001 A 
HETATM   28  C   UNL     1       8.343  32.611  60.316  1.00  0.00     0.014 A 
ENDBRANCH  12  23
TORSDOF 3
ENDMDL
MODEL 6
REMARK VINA RESULT:      -7.7     15.495     18.038
REMARK  3 active torsions:
REMARK  status: ('A' for Active; 'I' for Inactive)
REMARK    1  A    between atoms: C_5  and  C_6 
REMARK    2  A    between atoms: C_10  and  N_11 
REMARK    3  A    between atoms: C_18  and  C_19 
ROOT
HETATM    1  C   UNL     1      12.707  10.431  53.635  1.00  0.00     0.106 A 
HETATM    2  C   UNL     1      11.477  10.986  54.361  1.00  0.00     0.081 A 
HETATM    3  C   UNL     1      10.965  10.201  55.435  1.00  0.00     0.100 C 
HETATM    4  N   UNL     1      10.544   9.564  56.309  1.00  0.00    -0.191 NA
HETATM    5  C   UNL     1      10.859  12.142  53.992  1.00  0.00     0.140 A 
HETATM    6  O   UNL     1      11.311  12.915  52.909  1.00  0.00    -0.279 OA
HETATM    7  C   UNL     1      12.323  12.416  52.211  1.00  0.00     0.175 A 
HETATM    8  C   UNL     1      13.037  11.268  52.447  1.00  0.00     0.040 A 
HETATM    9  N   UNL     1      12.841  12.980  51.094  1.00  0.00    -0.256 N 
HETATM   10  H   UNL     1      12.558  13.836  50.632  1.00  0.00     0.191 HD
HETATM   11  N   UNL     1      13.853  12.265  50.571  1.00  0.00    -0.172 NA
HETATM   12  C   UNL     1      13.970  11.189  51.376  1.00  0.00     0.099 A 
ENDROOT
BRANCH   1  13
HETATM   13  C   UNL     1      13.945  10.415  54.522  1.00  0.00    -0.044 A 
HETATM   14  C   UNL     1      14.480   9.183  54.933  1.00  0.00     0.009 A 
HETATM   15  C   UNL     1      15.582   9.130  55.793  1.00  0.00     0.007 A 
HETATM   16  C   UNL     1      16.165  10.306  56.274  1.00  0.00    -0.062 A 
HETATM   17  C   UNL     1      17.363  10.248  57.175  1.00  0.00     0.048 C 
HETATM   18  C   UNL     1      15.648  11.537  55.861  1.00  0.00     0.007 A 
HETATM   19  C   UNL     1      14.544  11.592  55.006  1.00  0.00     0.009 A 
ENDBRANCH   1  13
BRANCH   5  20
HETATM   20  N   UNL     1       9.752  12.685  54.605  1.00  0.00    -0.282 NA
HETATM   21  H   UNL     1       9.529  13.642  54.336  1.00  0.00     0.126 HD
HETATM   22  H   UNL     1       8.949  12.064  54.564  1.00  0.00     0.126 HD
ENDBRANCH   5  20
BRANCH  12  23
HETATM   23  C   UNL     1      14.962  10.154  51.093  1.00  0.00    -0.005 A 
HETATM   24  C   UNL     1      16.195  10.166  51.762  1.00  0.00     0.014 A 
HETATM   25  C   UNL     1      17.157   9.188  51.498  1.00  0.00     0.001 A 
HETATM   26  C   UNL     1      16.898   8.192  50.558  1.00  0.00     0.000 A 
HETATM   27  C   UNL     1      15.680   8.176  49.879  1.00  0.00     0.001 A 
HETATM   28  C   UNL     1      14.719   9.156  50.141  1.00  0.00     0.014 A 
ENDBRANCH  12  23
TORSDOF 3
ENDMDL
MODEL 7
REMARK VINA RESULT:      -7.4      5.595      8.494
REMARK  3 active torsions:
REMARK  status: ('A' for Active; 'I' for Inactive)
REMARK    1  A    between atoms: C_5  and  C_6 
REMARK    2  A    between atoms: C_10  and  N_11 
REMARK    3  A    between atoms: C_18  and  C_19 
ROOT
HETATM    1  C   UNL     1       2.514  28.165  48.539  1.00  0.00     0.106 A 
HETATM    2  C   UNL     1       2.146  27.156  47.446  1.00  0.00     0.081 A 
HETATM    3  C   UNL     1       0.930  27.397  46.741  1.00  0.00     0.100 C 
HETATM    4  N   UNL     1      -0.059  27.589  46.167  1.00  0.00    -0.191 NA
HETATM    5  C   UNL     1       2.898  26.054  47.172  1.00  0.00     0.140 A 
HETATM    6  O   UNL     1       4.077  25.763  47.880  1.00  0.00    -0.279 OA
HETATM    7  C   UNL     1       4.375  26.574  48.887  1.00  0.00     0.175 A 
HETATM    8  C   UNL     1       3.717  27.708  49.291  1.00  0.00     0.040 A 
HETATM    9  N   UNL     1       5.426  26.408  49.725  1.00  0.00    -0.256 N 
HETATM   10  H   UNL     1       6.125  25.675  49.719  1.00  0.00     0.191 HD
HETATM   11  N   UNL     1       5.496  27.364  50.668  1.00  0.00    -0.172 NA
HETATM   12  C   UNL     1       4.431  28.160  50.435  1.00  0.00     0.099 A 
ENDROOT
BRANCH   1  13
HETATM   13  C   UNL     1       2.844  29.539  47.970  1.00  0.00    -0.044 A 
HETATM   14  C   UNL     1       3.983  29.694  47.163  1.00  0.00     0.009 A 
HETATM   15  C   UNL     1       4.348  30.951  46.671  1.00  0.00     0.007 A 
HETATM   16  C   UNL     1       3.592  32.084  46.984  1.00  0.00    -0.062 A 
HETATM   17  C   UNL     1       3.969  33.427  46.433  1.00  0.00     0.048 C 
HETATM   18  C   UNL     1       2.449  31.938  47.775  1.00  0.00     0.007 A 
HETATM   19  C   UNL     1       2.085  30.684  48.273  1.00  0.00     0.009 A 
ENDBRANCH   1  13
BRANCH   5  20
HETATM   20  N   UNL     1       2.614  25.114  46.207  1.00  0.00    -0.282 NA
HETATM   21  H   UNL     1       3.327  24.400  46.069  1.00  0.00     0.126 HD
HETATM   22  H   UNL     1       1.680  24.729  46.310  1.00  0.00     0.126 HD
ENDBRANCH   5  20
BRANCH  12  23
HETATM   23  C   UNL     1       4.158  29.306  51.300  1.00  0.00    -0.005 A 
HETATM   24  C   UNL     1       4.566  30.589  50.909  1.00  0.00     0.014 A 
HETATM   25  C   UNL     1       4.318  31.695  51.726  1.00  0.00     0.001 A 
HETATM   26  C   UNL     1       3.665  31.526  52.946  1.00  0.00     0.000 A 
HETATM   27  C   UNL     1       3.264  30.253  53.350  1.00  0.00     0.001 A 
HETATM   28  C   UNL     1       3.513  29.147  52.533  1.00  0.00     0.014 A 
ENDBRANCH  12  23
TORSDOF 3
ENDMDL
MODEL 8
REMARK VINA RESULT:      -7.1      2.617      5.224
REMARK  3 active torsions:
REMARK  status: ('A' for Active; 'I' for Inactive)
REMARK    1  A    between atoms: C_5  and  C_6 
REMARK    2  A    between atoms: C_10  and  N_11 
REMARK    3  A    between atoms: C_18  and  C_19 
ROOT
HETATM    1  C   UNL     1       7.163  27.410  55.255  1.00  0.00     0.106 A 
HETATM    2  C   UNL     1       7.831  26.995  56.570  1.00  0.00     0.081 A 
HETATM    3  C   UNL     1       8.506  28.022  57.292  1.00  0.00     0.100 C 
HETATM    4  N   UNL     1       9.059  28.855  57.881  1.00  0.00    -0.191 NA
HETATM    5  C   UNL     1       7.834  25.712  57.026  1.00  0.00     0.140 A 
HETATM    6  O   UNL     1       7.217  24.669  56.316  1.00  0.00    -0.279 OA
HETATM    7  C   UNL     1       6.703  24.984  55.133  1.00  0.00     0.175 A 
HETATM    8  C   UNL     1       6.634  26.217  54.537  1.00  0.00     0.040 A 
HETATM    9  N   UNL     1       6.139  24.099  54.277  1.00  0.00    -0.256 N 
HETATM   10  H   UNL     1       6.019  23.099  54.395  1.00  0.00     0.191 HD
HETATM   11  N   UNL     1       5.707  24.675  53.142  1.00  0.00    -0.172 NA
HETATM   12  C   UNL     1       6.030  25.979  53.270  1.00  0.00     0.099 A 
ENDROOT
BRANCH   1  13
HETATM   13  C   UNL     1       5.986  28.352  55.476  1.00  0.00    -0.044 A 
HETATM   14  C   UNL     1       6.194  29.739  55.408  1.00  0.00     0.009 A 
HETATM   15  C   UNL     1       5.151  30.635  55.659  1.00  0.00     0.007 A 
HETATM   16  C   UNL     1       3.878  30.166  56.000  1.00  0.00    -0.062 A 
HETATM   17  C   UNL     1       2.753  31.127  56.244  1.00  0.00     0.048 C 
HETATM   18  C   UNL     1       3.658  28.787  56.057  1.00  0.00     0.007 A 
HETATM   19  C   UNL     1       4.700  27.890  55.811  1.00  0.00     0.009 A 
ENDBRANCH   1  13
BRANCH   5  20
HETATM   20  N   UNL     1       8.419  25.282  58.196  1.00  0.00    -0.282 NA
HETATM   21  H   UNL     1       8.696  24.302  58.213  1.00  0.00     0.126 HD
HETATM   22  H   UNL     1       9.156  25.908  58.508  1.00  0.00     0.126 HD
ENDBRANCH   5  20
BRANCH  12  23
HETATM   23  C   UNL     1       5.742  26.925  52.194  1.00  0.00    -0.005 A 
HETATM   24  C   UNL     1       5.317  26.452  50.944  1.00  0.00     0.014 A 
HETATM   25  C   UNL     1       5.043  27.342  49.903  1.00  0.00     0.001 A 
HETATM   26  C   UNL     1       5.198  28.713  50.099  1.00  0.00     0.000 A 
HETATM   27  C   UNL     1       5.631  29.194  51.335  1.00  0.00     0.001 A 
HETATM   28  C   UNL     1       5.906  28.303  52.376  1.00  0.00     0.014 A 
ENDBRANCH  12  23
TORSDOF 3
ENDMDL
MODEL 9
REMARK VINA RESULT:      -6.9     15.801     18.226
REMARK  3 active torsions:
REMARK  status: ('A' for Active; 'I' for Inactive)
REMARK    1  A    between atoms: C_5  and  C_6 
REMARK    2  A    between atoms: C_10  and  N_11 
REMARK    3  A    between atoms: C_18  and  C_19 
ROOT
HETATM    1  C   UNL     1      12.329  10.035  55.395  1.00  0.00     0.106 A 
HETATM    2  C   UNL     1      10.959  10.451  54.851  1.00  0.00     0.081 A 
HETATM    3  C   UNL     1       9.950   9.444  54.831  1.00  0.00     0.100 C 
HETATM    4  N   UNL     1       9.127   8.626  54.812  1.00  0.00    -0.191 NA
HETATM    5  C   UNL     1      10.703  11.696  54.364  1.00  0.00     0.140 A 
HETATM    6  O   UNL     1      11.688  12.698  54.328  1.00  0.00    -0.279 OA
HETATM    7  C   UNL     1      12.906  12.341  54.715  1.00  0.00     0.175 A 
HETATM    8  C   UNL     1      13.321  11.133  55.213  1.00  0.00     0.040 A 
HETATM    9  N   UNL     1      13.994  13.146  54.675  1.00  0.00    -0.256 N 
HETATM   10  H   UNL     1      14.054  14.108  54.362  1.00  0.00     0.191 HD
HETATM   11  N   UNL     1      15.110  12.536  55.112  1.00  0.00    -0.172 NA
HETATM   12  C   UNL     1      14.720  11.282  55.422  1.00  0.00     0.099 A 
ENDROOT
BRANCH   1  13
HETATM   13  C   UNL     1      12.289   9.717  56.884  1.00  0.00    -0.044 A 
HETATM   14  C   UNL     1      11.625  10.594  57.757  1.00  0.00     0.009 A 
HETATM   15  C   UNL     1      11.616  10.364  59.136  1.00  0.00     0.007 A 
HETATM   16  C   UNL     1      12.281   9.260  59.677  1.00  0.00    -0.062 A 
HETATM   17  C   UNL     1      12.248   9.000  61.154  1.00  0.00     0.048 C 
HETATM   18  C   UNL     1      12.933   8.374  58.815  1.00  0.00     0.007 A 
HETATM   19  C   UNL     1      12.948   8.604  57.438  1.00  0.00     0.009 A 
ENDBRANCH   1  13
BRANCH   5  20
HETATM   20  N   UNL     1       9.494  12.124  53.861  1.00  0.00    -0.282 NA
HETATM   21  H   UNL     1       8.938  11.412  53.393  1.00  0.00     0.126 HD
HETATM   22  H   UNL     1       8.964  12.659  54.544  1.00  0.00     0.126 HD
ENDBRANCH   5  20
BRANCH  12  23
HETATM   23  C   UNL     1      15.690  10.301  55.906  1.00  0.00    -0.005 A 
HETATM   24  C   UNL     1      16.460  10.583  57.044  1.00  0.00     0.014 A 
HETATM   25  C   UNL     1      17.396   9.659  57.516  1.00  0.00     0.001 A 
HETATM   26  C   UNL     1      17.576   8.448  56.850  1.00  0.00     0.000 A 
HETATM   27  C   UNL     1      16.824   8.162  55.711  1.00  0.00     0.001 A 
HETATM   28  C   UNL     1      15.889   9.087  55.238  1.00  0.00     0.014 A 
ENDBRANCH  12  23
TORSDOF 3
ENDMDL
MODEL 10
REMARK VINA RESULT:      -6.8      3.571      5.984
REMARK  3 active torsions:
REMARK  status: ('A' for Active; 'I' for Inactive)
REMARK    1  A    between atoms: C_5  and  C_6 
REMARK    2  A    between atoms: C_10  and  N_11 
REMARK    3  A    between atoms: C_18  and  C_19 
ROOT
HETATM    1  C   UNL     1       3.612  28.504  50.571  1.00  0.00     0.106 A 
HETATM    2  C   UNL     1       3.142  28.149  49.158  1.00  0.00     0.081 A 
HETATM    3  C   UNL     1       2.018  28.871  48.660  1.00  0.00     0.100 C 
HETATM    4  N   UNL     1       1.102  29.456  48.253  1.00  0.00    -0.191 NA
HETATM    5  C   UNL     1       3.720  27.168  48.411  1.00  0.00     0.140 A 
HETATM    6  O   UNL     1       4.800  26.406  48.889  1.00  0.00    -0.279 OA
HETATM    7  C   UNL     1       5.173  26.636  50.142  1.00  0.00     0.175 A 
HETATM    8  C   UNL     1       4.686  27.573  51.017  1.00  0.00     0.040 A 
HETATM    9  N   UNL     1       6.140  25.949  50.796  1.00  0.00    -0.256 N 
HETATM   10  H   UNL     1       6.712  25.187  50.453  1.00  0.00     0.191 HD
HETATM   11  N   UNL     1       6.315  26.373  52.060  1.00  0.00    -0.172 NA
HETATM   12  C   UNL     1       5.405  27.356  52.226  1.00  0.00     0.099 A 
ENDROOT
BRANCH   1  13
HETATM   13  C   UNL     1       4.186  29.913  50.653  1.00  0.00    -0.044 A 
HETATM   14  C   UNL     1       5.293  30.251  49.858  1.00  0.00     0.009 A 
HETATM   15  C   UNL     1       5.881  31.516  49.948  1.00  0.00     0.007 A 
HETATM   16  C   UNL     1       5.387  32.468  50.844  1.00  0.00    -0.062 A 
HETATM   17  C   UNL     1       6.003  33.834  50.921  1.00  0.00     0.048 C 
HETATM   18  C   UNL     1       4.278  32.146  51.630  1.00  0.00     0.007 A 
HETATM   19  C   UNL     1       3.691  30.881  51.546  1.00  0.00     0.009 A 
ENDBRANCH   1  13
BRANCH   5  20
HETATM   20  N   UNL     1       3.339  26.803  47.138  1.00  0.00    -0.282 NA
HETATM   21  H   UNL     1       3.934  26.114  46.683  1.00  0.00     0.126 HD
HETATM   22  H   UNL     1       2.351  26.571  47.087  1.00  0.00     0.126 HD
ENDBRANCH   5  20
BRANCH  12  23
HETATM   23  C   UNL     1       5.276  28.039  53.511  1.00  0.00    -0.005 A 
HETATM   24  C   UNL     1       6.425  28.399  54.230  1.00  0.00     0.014 A 
HETATM   25  C   UNL     1       6.319  29.047  55.463  1.00  0.00     0.001 A 
HETATM   26  C   UNL     1       5.062  29.335  55.992  1.00  0.00     0.000 A 
HETATM   27  C   UNL     1       3.913  28.971  55.292  1.00  0.00     0.001 A 
HETATM   28  C   UNL     1       4.019  28.322  54.059  1.00  0.00     0.014 A 
ENDBRANCH  12  23
TORSDOF 3
ENDMDL
