MODEL 1
REMARK VINA RESULT:      -8.5      0.000      0.000
REMARK  10 active torsions:
REMARK  status: ('A' for Active; 'I' for Inactive)
REMARK    1  A    between atoms: C_2  and  C_3 
REMARK    2  A    between atoms: C_3  and  N_4 
REMARK    3  A    between atoms: C_7  and  C_8 
REMARK       I    between atoms: C_8  and  N_9 
REMARK    4  A    between atoms: N_9  and  C_10 
REMARK    5  A    between atoms: C_10  and  C_11 
REMARK    6  A    between atoms: C_11  and  O_12 
REMARK    7  A    between atoms: C_11  and  C_13 
REMARK    8  A    between atoms: C_13  and  O_14 
REMARK    9  A    between atoms: O_14  and  C_15 
REMARK   10  A    between atoms: C_23  and  C_24 
ROOT
HETATM    1  C   UNL     1       7.168  26.205  55.478  1.00  0.00     0.255 C 
HETATM    2  N   UNL     1       5.871  26.266  55.040  1.00  0.00    -0.354 N 
HETATM    3  O   UNL     1       7.875  27.197  55.620  1.00  0.00    -0.268 OA
HETATM    4  H   UNL     1       5.409  25.410  54.757  1.00  0.00     0.162 HD
ENDROOT
BRANCH   2   5
HETATM    5  C   UNL     1       5.175  27.519  54.818  1.00  0.00     0.156 C 
BRANCH   5   6
HETATM    6  C   UNL     1       4.337  27.527  53.537  1.00  0.00     0.160 C 
BRANCH   6   7
HETATM    7  O   UNL     1       3.996  26.173  53.189  1.00  0.00    -0.392 OA
HETATM    8  H   UNL     1       4.353  26.037  52.291  1.00  0.00     0.210 HD
ENDBRANCH   6   7
BRANCH   6   9
HETATM    9  C   UNL     1       5.035  28.208  52.353  1.00  0.00     0.209 C 
BRANCH   9  10
HETATM   10  O   UNL     1       5.415  27.159  51.450  1.00  0.00    -0.349 OA
BRANCH  10  11
HETATM   11  C   UNL     1       5.131  27.345  50.125  1.00  0.00     0.069 A 
HETATM   12  C   UNL     1       4.390  26.314  49.539  1.00  0.00     0.043 A 
HETATM   13  C   UNL     1       4.023  26.365  48.188  1.00  0.00    -0.059 A 
HETATM   14  C   UNL     1       3.228  25.259  47.562  1.00  0.00     0.048 C 
HETATM   15  C   UNL     1       4.425  27.462  47.420  1.00  0.00     0.007 A 
HETATM   16  C   UNL     1       5.170  28.490  47.998  1.00  0.00     0.003 A 
HETATM   17  C   UNL     1       5.522  28.435  49.350  1.00  0.00     0.037 A 
ENDBRANCH  10  11
ENDBRANCH   9  10
ENDBRANCH   6   9
ENDBRANCH   5   6
ENDBRANCH   2   5
BRANCH   1  18
HETATM   18  C   UNL     1       7.665  24.863  55.680  1.00  0.00     0.075 A 
HETATM   19  C   UNL     1       7.729  24.216  56.932  1.00  0.00     0.158 A 
HETATM   20  N   UNL     1       8.205  22.976  56.850  1.00  0.00    -0.183 NA
HETATM   21  N   UNL     1       8.354  22.775  55.525  1.00  0.00    -0.268 N 
HETATM   22  C   UNL     1       8.102  23.907  54.770  1.00  0.00     0.052 A 
BRANCH  21  23
HETATM   23  C   UNL     1       8.776  21.455  55.055  1.00  0.00     0.106 C 
HETATM   24  C   UNL     1       9.131  20.565  56.247  1.00  0.00     0.034 C 
BRANCH  23  25
HETATM   25  C   UNL     1       7.744  20.759  54.143  1.00  0.00     0.022 C 
HETATM   26  C   UNL     1       8.314  20.381  52.782  1.00  0.00     0.007 C 
ENDBRANCH  23  25
ENDBRANCH  21  23
BRANCH  22  27
HETATM   27  C   UNL     1       8.237  23.975  53.247  1.00  0.00     0.038 A 
HETATM   28  C   UNL     1       7.013  24.155  52.378  1.00  0.00     0.011 A 
HETATM   29  C   UNL     1       8.000  25.265  52.499  1.00  0.00     0.011 A 
ENDBRANCH  22  27
ENDBRANCH   1  18
TORSDOF 10
ENDMDL
MODEL 2
REMARK VINA RESULT:      -8.4      4.060      7.785
REMARK  10 active torsions:
REMARK  status: ('A' for Active; 'I' for Inactive)
REMARK    1  A    between atoms: C_2  and  C_3 
REMARK    2  A    between atoms: C_3  and  N_4 
REMARK    3  A    between atoms: C_7  and  C_8 
REMARK       I    between atoms: C_8  and  N_9 
REMARK    4  A    between atoms: N_9  and  C_10 
REMARK    5  A    between atoms: C_10  and  C_11 
REMARK    6  A    between atoms: C_11  and  O_12 
REMARK    7  A    between atoms: C_11  and  C_13 
REMARK    8  A    between atoms: C_13  and  O_14 
REMARK    9  A    between atoms: O_14  and  C_15 
REMARK   10  A    between atoms: C_23  and  C_24 
ROOT
HETATM    1  C   UNL     1       7.419  27.919  55.982  1.00  0.00     0.255 C 
HETATM    2  N   UNL     1       6.880  28.148  54.743  1.00  0.00    -0.354 N 
HETATM    3  O   UNL     1       7.924  26.850  56.307  1.00  0.00    -0.268 OA
HETATM    4  H   UNL     1       6.309  28.972  54.602  1.00  0.00     0.162 HD
ENDROOT
BRANCH   2   5
HETATM    5  C   UNL     1       6.964  27.186  53.660  1.00  0.00     0.156 C 
BRANCH   5   6
HETATM    6  C   UNL     1       5.635  26.484  53.369  1.00  0.00     0.160 C 
BRANCH   6   7
HETATM    7  O   UNL     1       4.684  26.837  54.389  1.00  0.00    -0.392 OA
HETATM    8  H   UNL     1       5.155  27.452  54.983  1.00  0.00     0.210 HD
ENDBRANCH   6   7
BRANCH   6   9
HETATM    9  C   UNL     1       5.756  24.958  53.276  1.00  0.00     0.209 C 
BRANCH   9  10
HETATM   10  O   UNL     1       6.744  24.571  54.244  1.00  0.00    -0.349 OA
BRANCH  10  11
HETATM   11  C   UNL     1       7.267  23.313  54.131  1.00  0.00     0.069 A 
HETATM   12  C   UNL     1       7.478  22.659  55.349  1.00  0.00     0.043 A 
HETATM   13  C   UNL     1       8.008  21.363  55.391  1.00  0.00    -0.059 A 
HETATM   14  C   UNL     1       8.233  20.664  56.698  1.00  0.00     0.048 C 
HETATM   15  C   UNL     1       8.344  20.731  54.190  1.00  0.00     0.007 A 
HETATM   16  C   UNL     1       8.141  21.381  52.972  1.00  0.00     0.003 A 
HETATM   17  C   UNL     1       7.602  22.670  52.940  1.00  0.00     0.037 A 
ENDBRANCH  10  11
ENDBRANCH   9  10
ENDBRANCH   6   9
ENDBRANCH   5   6
ENDBRANCH   2   5
BRANCH   1  18
HETATM   18  C   UNL     1       7.268  29.018  56.907  1.00  0.00     0.075 A 
HETATM   19  C   UNL     1       6.028  29.568  57.299  1.00  0.00     0.158 A 
HETATM   20  N   UNL     1       6.155  30.559  58.178  1.00  0.00    -0.183 NA
HETATM   21  N   UNL     1       7.477  30.588  58.441  1.00  0.00    -0.268 N 
HETATM   22  C   UNL     1       8.210  29.719  57.652  1.00  0.00     0.052 A 
BRANCH  21  23
HETATM   23  C   UNL     1       7.972  31.513  59.461  1.00  0.00     0.106 C 
HETATM   24  C   UNL     1       6.848  32.450  59.908  1.00  0.00     0.034 C 
BRANCH  23  25
HETATM   25  C   UNL     1       8.614  30.814  60.678  1.00  0.00     0.022 C 
HETATM   26  C   UNL     1       9.580  31.713  61.439  1.00  0.00     0.007 C 
ENDBRANCH  23  25
ENDBRANCH  21  23
BRANCH  22  27
HETATM   27  C   UNL     1       9.733  29.579  57.710  1.00  0.00     0.038 A 
HETATM   28  C   UNL     1      10.561  29.711  56.452  1.00  0.00     0.011 A 
HETATM   29  C   UNL     1      10.635  30.771  57.497  1.00  0.00     0.011 A 
ENDBRANCH  22  27
ENDBRANCH   1  18
TORSDOF 10
ENDMDL
MODEL 3
REMARK VINA RESULT:      -8.3      4.525      7.785
REMARK  10 active torsions:
REMARK  status: ('A' for Active; 'I' for Inactive)
REMARK    1  A    between atoms: C_2  and  C_3 
REMARK    2  A    between atoms: C_3  and  N_4 
REMARK    3  A    between atoms: C_7  and  C_8 
REMARK       I    between atoms: C_8  and  N_9 
REMARK    4  A    between atoms: N_9  and  C_10 
REMARK    5  A    between atoms: C_10  and  C_11 
REMARK    6  A    between atoms: C_11  and  O_12 
REMARK    7  A    between atoms: C_11  and  C_13 
REMARK    8  A    between atoms: C_13  and  O_14 
REMARK    9  A    between atoms: O_14  and  C_15 
REMARK   10  A    between atoms: C_23  and  C_24 
ROOT
HETATM    1  C   UNL     1       7.099  26.150  55.623  1.00  0.00     0.255 C 
HETATM    2  N   UNL     1       7.988  27.160  55.883  1.00  0.00    -0.354 N 
HETATM    3  O   UNL     1       5.919  26.348  55.354  1.00  0.00    -0.268 OA
HETATM    4  H   UNL     1       8.887  26.928  56.288  1.00  0.00     0.162 HD
ENDROOT
BRANCH   2   5
HETATM    5  C   UNL     1       7.645  28.562  55.745  1.00  0.00     0.156 C 
BRANCH   5   6
HETATM    6  C   UNL     1       8.268  29.447  56.828  1.00  0.00     0.160 C 
BRANCH   6   7
HETATM    7  O   UNL     1       9.573  28.938  57.157  1.00  0.00    -0.392 OA
HETATM    8  H   UNL     1       9.538  27.983  56.958  1.00  0.00     0.210 HD
ENDBRANCH   6   7
BRANCH   6   9
HETATM    9  C   UNL     1       7.415  29.553  58.097  1.00  0.00     0.209 C 
BRANCH   9  10
HETATM   10  O   UNL     1       7.443  30.933  58.490  1.00  0.00    -0.349 OA
BRANCH  10  11
HETATM   11  C   UNL     1       7.867  31.210  59.760  1.00  0.00     0.069 A 
HETATM   12  C   UNL     1       7.163  32.237  60.398  1.00  0.00     0.043 A 
HETATM   13  C   UNL     1       7.485  32.631  61.703  1.00  0.00    -0.059 A 
HETATM   14  C   UNL     1       6.728  33.731  62.385  1.00  0.00     0.048 C 
HETATM   15  C   UNL     1       8.540  31.992  62.362  1.00  0.00     0.007 A 
HETATM   16  C   UNL     1       9.250  30.972  61.728  1.00  0.00     0.003 A 
HETATM   17  C   UNL     1       8.915  30.579  60.429  1.00  0.00     0.037 A 
ENDBRANCH  10  11
ENDBRANCH   9  10
ENDBRANCH   6   9
ENDBRANCH   5   6
ENDBRANCH   2   5
BRANCH   1  18
HETATM   18  C   UNL     1       7.646  24.822  55.777  1.00  0.00     0.075 A 
HETATM   19  C   UNL     1       7.807  24.163  57.014  1.00  0.00     0.158 A 
HETATM   20  N   UNL     1       8.314  22.939  56.887  1.00  0.00    -0.183 NA
HETATM   21  N   UNL     1       8.387  22.757  55.553  1.00  0.00    -0.268 N 
HETATM   22  C   UNL     1       8.055  23.890  54.829  1.00  0.00     0.052 A 
BRANCH  21  23
HETATM   23  C   UNL     1       8.818  21.456  55.041  1.00  0.00     0.106 C 
HETATM   24  C   UNL     1       9.199  20.537  56.202  1.00  0.00     0.034 C 
BRANCH  23  25
HETATM   25  C   UNL     1       7.783  20.773  54.123  1.00  0.00     0.022 C 
HETATM   26  C   UNL     1       8.364  20.359  52.777  1.00  0.00     0.007 C 
ENDBRANCH  23  25
ENDBRANCH  21  23
BRANCH  22  27
HETATM   27  C   UNL     1       8.094  23.978  53.302  1.00  0.00     0.038 A 
HETATM   28  C   UNL     1       6.832  24.268  52.521  1.00  0.00     0.011 A 
HETATM   29  C   UNL     1       7.907  25.297  52.592  1.00  0.00     0.011 A 
ENDBRANCH  22  27
ENDBRANCH   1  18
TORSDOF 10
ENDMDL
MODEL 4
REMARK VINA RESULT:      -8.3      3.282      6.427
REMARK  10 active torsions:
REMARK  status: ('A' for Active; 'I' for Inactive)
REMARK    1  A    between atoms: C_2  and  C_3 
REMARK    2  A    between atoms: C_3  and  N_4 
REMARK    3  A    between atoms: C_7  and  C_8 
REMARK       I    between atoms: C_8  and  N_9 
REMARK    4  A    between atoms: N_9  and  C_10 
REMARK    5  A    between atoms: C_10  and  C_11 
REMARK    6  A    between atoms: C_11  and  O_12 
REMARK    7  A    between atoms: C_11  and  C_13 
REMARK    8  A    between atoms: C_13  and  O_14 
REMARK    9  A    between atoms: O_14  and  C_15 
REMARK   10  A    between atoms: C_23  and  C_24 
ROOT
HETATM    1  C   UNL     1       6.894  26.464  53.977  1.00  0.00     0.255 C 
HETATM    2  N   UNL     1       5.570  26.723  54.215  1.00  0.00    -0.354 N 
HETATM    3  O   UNL     1       7.748  27.342  53.914  1.00  0.00    -0.268 OA
HETATM    4  H   UNL     1       4.892  25.987  54.060  1.00  0.00     0.162 HD
ENDROOT
BRANCH   2   5
HETATM    5  C   UNL     1       5.073  28.048  54.534  1.00  0.00     0.156 C 
BRANCH   5   6
HETATM    6  C   UNL     1       5.034  28.334  56.037  1.00  0.00     0.160 C 
BRANCH   6   7
HETATM    7  O   UNL     1       3.702  28.737  56.403  1.00  0.00    -0.392 OA
HETATM    8  H   UNL     1       3.815  29.421  57.091  1.00  0.00     0.210 HD
ENDBRANCH   6   7
BRANCH   6   9
HETATM    9  C   UNL     1       6.041  29.401  56.484  1.00  0.00     0.209 C 
BRANCH   9  10
HETATM   10  O   UNL     1       7.103  28.700  57.149  1.00  0.00    -0.349 OA
BRANCH  10  11
HETATM   11  C   UNL     1       8.298  29.354  57.271  1.00  0.00     0.069 A 
HETATM   12  C   UNL     1       8.364  30.248  58.345  1.00  0.00     0.043 A 
HETATM   13  C   UNL     1       9.525  30.990  58.596  1.00  0.00    -0.059 A 
HETATM   14  C   UNL     1       9.594  31.948  59.748  1.00  0.00     0.048 C 
HETATM   15  C   UNL     1      10.623  30.838  57.744  1.00  0.00     0.007 A 
HETATM   16  C   UNL     1      10.561  29.952  56.668  1.00  0.00     0.003 A 
HETATM   17  C   UNL     1       9.401  29.209  56.431  1.00  0.00     0.037 A 
ENDBRANCH  10  11
ENDBRANCH   9  10
ENDBRANCH   6   9
ENDBRANCH   5   6
ENDBRANCH   2   5
BRANCH   1  18
HETATM   18  C   UNL     1       7.191  25.074  53.721  1.00  0.00     0.075 A 
HETATM   19  C   UNL     1       7.582  24.558  52.466  1.00  0.00     0.158 A 
HETATM   20  N   UNL     1       7.819  23.249  52.496  1.00  0.00    -0.183 NA
HETATM   21  N   UNL     1       7.684  22.926  53.797  1.00  0.00    -0.268 N 
HETATM   22  C   UNL     1       7.242  23.980  54.578  1.00  0.00     0.052 A 
BRANCH  21  23
HETATM   23  C   UNL     1       7.976  21.555  54.218  1.00  0.00     0.106 C 
HETATM   24  C   UNL     1       7.971  20.624  53.004  1.00  0.00     0.034 C 
BRANCH  23  25
HETATM   25  C   UNL     1       9.294  21.412  55.008  1.00  0.00     0.022 C 
HETATM   26  C   UNL     1       9.168  20.485  56.210  1.00  0.00     0.007 C 
ENDBRANCH  23  25
ENDBRANCH  21  23
BRANCH  22  27
HETATM   27  C   UNL     1       6.962  23.882  56.080  1.00  0.00     0.038 A 
HETATM   28  C   UNL     1       8.083  24.062  57.079  1.00  0.00     0.011 A 
HETATM   29  C   UNL     1       7.022  25.102  56.966  1.00  0.00     0.011 A 
ENDBRANCH  22  27
ENDBRANCH   1  18
TORSDOF 10
ENDMDL
MODEL 5
REMARK VINA RESULT:      -8.2      4.629      7.843
REMARK  10 active torsions:
REMARK  status: ('A' for Active; 'I' for Inactive)
REMARK    1  A    between atoms: C_2  and  C_3 
REMARK    2  A    between atoms: C_3  and  N_4 
REMARK    3  A    between atoms: C_7  and  C_8 
REMARK       I    between atoms: C_8  and  N_9 
REMARK    4  A    between atoms: N_9  and  C_10 
REMARK    5  A    between atoms: C_10  and  C_11 
REMARK    6  A    between atoms: C_11  and  O_12 
REMARK    7  A    between atoms: C_11  and  C_13 
REMARK    8  A    between atoms: C_13  and  O_14 
REMARK    9  A    between atoms: O_14  and  C_15 
REMARK   10  A    between atoms: C_23  and  C_24 
ROOT
HETATM    1  C   UNL     1       5.449  26.682  55.737  1.00  0.00     0.255 C 
HETATM    2  N   UNL     1       6.020  27.850  55.305  1.00  0.00    -0.354 N 
HETATM    3  O   UNL     1       4.595  26.637  56.616  1.00  0.00    -0.268 OA
HETATM    4  H   UNL     1       6.850  27.805  54.726  1.00  0.00     0.162 HD
ENDROOT
BRANCH   2   5
HETATM    5  C   UNL     1       5.580  29.155  55.761  1.00  0.00     0.156 C 
BRANCH   5   6
HETATM    6  C   UNL     1       5.939  29.438  57.222  1.00  0.00     0.160 C 
BRANCH   6   7
HETATM    7  O   UNL     1       4.758  29.293  58.032  1.00  0.00    -0.392 OA
HETATM    8  H   UNL     1       4.093  28.875  57.452  1.00  0.00     0.210 HD
ENDBRANCH   6   7
BRANCH   6   9
HETATM    9  C   UNL     1       6.553  30.825  57.443  1.00  0.00     0.209 C 
BRANCH   9  10
HETATM   10  O   UNL     1       6.371  31.132  58.834  1.00  0.00    -0.349 OA
BRANCH  10  11
HETATM   11  C   UNL     1       7.492  31.428  59.559  1.00  0.00     0.069 A 
HETATM   12  C   UNL     1       7.255  31.716  60.906  1.00  0.00     0.043 A 
HETATM   13  C   UNL     1       8.307  32.038  61.773  1.00  0.00    -0.059 A 
HETATM   14  C   UNL     1       8.051  32.346  63.218  1.00  0.00     0.048 C 
HETATM   15  C   UNL     1       9.610  32.084  61.266  1.00  0.00     0.007 A 
HETATM   16  C   UNL     1       9.852  31.804  59.921  1.00  0.00     0.003 A 
HETATM   17  C   UNL     1       8.796  31.475  59.066  1.00  0.00     0.037 A 
ENDBRANCH  10  11
ENDBRANCH   9  10
ENDBRANCH   6   9
ENDBRANCH   5   6
ENDBRANCH   2   5
BRANCH   1  18
HETATM   18  C   UNL     1       6.000  25.492  55.130  1.00  0.00     0.075 A 
HETATM   19  C   UNL     1       5.774  25.099  53.793  1.00  0.00     0.158 A 
HETATM   20  N   UNL     1       6.410  23.976  53.469  1.00  0.00    -0.183 NA
HETATM   21  N   UNL     1       7.138  23.689  54.566  1.00  0.00    -0.268 N 
HETATM   22  C   UNL     1       6.881  24.538  55.629  1.00  0.00     0.052 A 
BRANCH  21  23
HETATM   23  C   UNL     1       8.053  22.549  54.527  1.00  0.00     0.106 C 
HETATM   24  C   UNL     1       7.507  21.410  55.391  1.00  0.00     0.034 C 
BRANCH  23  25
HETATM   25  C   UNL     1       8.366  22.048  53.101  1.00  0.00     0.022 C 
HETATM   26  C   UNL     1       8.270  20.534  52.968  1.00  0.00     0.007 C 
ENDBRANCH  23  25
ENDBRANCH  21  23
BRANCH  22  27
HETATM   27  C   UNL     1       7.534  24.415  57.008  1.00  0.00     0.038 A 
HETATM   28  C   UNL     1       9.018  24.655  57.175  1.00  0.00     0.011 A 
HETATM   29  C   UNL     1       8.045  25.632  57.740  1.00  0.00     0.011 A 
ENDBRANCH  22  27
ENDBRANCH   1  18
TORSDOF 10
ENDMDL
MODEL 6
REMARK VINA RESULT:      -8.2      5.950      9.531
REMARK  10 active torsions:
REMARK  status: ('A' for Active; 'I' for Inactive)
REMARK    1  A    between atoms: C_2  and  C_3 
REMARK    2  A    between atoms: C_3  and  N_4 
REMARK    3  A    between atoms: C_7  and  C_8 
REMARK       I    between atoms: C_8  and  N_9 
REMARK    4  A    between atoms: N_9  and  C_10 
REMARK    5  A    between atoms: C_10  and  C_11 
REMARK    6  A    between atoms: C_11  and  O_12 
REMARK    7  A    between atoms: C_11  and  C_13 
REMARK    8  A    between atoms: C_13  and  O_14 
REMARK    9  A    between atoms: O_14  and  C_15 
REMARK   10  A    between atoms: C_23  and  C_24 
ROOT
HETATM    1  C   UNL     1       8.143  30.343  58.429  1.00  0.00     0.255 C 
HETATM    2  N   UNL     1       7.564  29.117  58.229  1.00  0.00    -0.354 N 
HETATM    3  O   UNL     1       9.289  30.607  58.084  1.00  0.00    -0.268 OA
HETATM    4  H   UNL     1       6.698  28.901  58.707  1.00  0.00     0.162 HD
ENDROOT
BRANCH   2   5
HETATM    5  C   UNL     1       8.212  28.055  57.483  1.00  0.00     0.156 C 
BRANCH   5   6
HETATM    6  C   UNL     1       7.356  26.791  57.361  1.00  0.00     0.160 C 
BRANCH   6   7
HETATM    7  O   UNL     1       7.887  25.779  58.235  1.00  0.00    -0.392 OA
HETATM    8  H   UNL     1       7.147  25.524  58.819  1.00  0.00     0.210 HD
ENDBRANCH   6   7
BRANCH   6   9
HETATM    9  C   UNL     1       7.268  26.248  55.930  1.00  0.00     0.209 C 
BRANCH   9  10
HETATM   10  O   UNL     1       6.820  24.888  56.040  1.00  0.00    -0.349 OA
BRANCH  10  11
HETATM   11  C   UNL     1       7.238  24.015  55.074  1.00  0.00     0.069 A 
HETATM   12  C   UNL     1       7.476  22.715  55.529  1.00  0.00     0.043 A 
HETATM   13  C   UNL     1       7.909  21.710  54.654  1.00  0.00    -0.059 A 
HETATM   14  C   UNL     1       8.163  20.316  55.143  1.00  0.00     0.048 C 
HETATM   15  C   UNL     1       8.119  22.031  53.309  1.00  0.00     0.007 A 
HETATM   16  C   UNL     1       7.890  23.329  52.851  1.00  0.00     0.003 A 
HETATM   17  C   UNL     1       7.448  24.321  53.731  1.00  0.00     0.037 A 
ENDBRANCH  10  11
ENDBRANCH   9  10
ENDBRANCH   6   9
ENDBRANCH   5   6
ENDBRANCH   2   5
BRANCH   1  18
HETATM   18  C   UNL     1       7.317  31.277  59.160  1.00  0.00     0.075 A 
HETATM   19  C   UNL     1       6.060  31.744  58.721  1.00  0.00     0.158 A 
HETATM   20  N   UNL     1       5.489  32.582  59.583  1.00  0.00    -0.183 NA
HETATM   21  N   UNL     1       6.329  32.581  60.638  1.00  0.00    -0.268 N 
HETATM   22  C   UNL     1       7.487  31.857  60.412  1.00  0.00     0.052 A 
BRANCH  21  23
HETATM   23  C   UNL     1       5.957  33.334  61.836  1.00  0.00     0.106 C 
HETATM   24  C   UNL     1       5.100  34.541  61.450  1.00  0.00     0.034 C 
BRANCH  23  25
HETATM   25  C   UNL     1       5.249  32.484  62.912  1.00  0.00     0.022 C 
HETATM   26  C   UNL     1       5.233  33.152  64.281  1.00  0.00     0.007 C 
ENDBRANCH  23  25
ENDBRANCH  21  23
BRANCH  22  27
HETATM   27  C   UNL     1       8.631  31.724  61.421  1.00  0.00     0.038 A 
HETATM   28  C   UNL     1       8.462  30.873  62.659  1.00  0.00     0.011 A 
HETATM   29  C   UNL     1       9.386  30.427  61.578  1.00  0.00     0.011 A 
ENDBRANCH  22  27
ENDBRANCH   1  18
TORSDOF 10
ENDMDL
MODEL 7
REMARK VINA RESULT:      -8.1      4.189      8.085
REMARK  10 active torsions:
REMARK  status: ('A' for Active; 'I' for Inactive)
REMARK    1  A    between atoms: C_2  and  C_3 
REMARK    2  A    between atoms: C_3  and  N_4 
REMARK    3  A    between atoms: C_7  and  C_8 
REMARK       I    between atoms: C_8  and  N_9 
REMARK    4  A    between atoms: N_9  and  C_10 
REMARK    5  A    between atoms: C_10  and  C_11 
REMARK    6  A    between atoms: C_11  and  O_12 
REMARK    7  A    between atoms: C_11  and  C_13 
REMARK    8  A    between atoms: C_13  and  O_14 
REMARK    9  A    between atoms: O_14  and  C_15 
REMARK   10  A    between atoms: C_23  and  C_24 
ROOT
HETATM    1  C   UNL     1       6.124  29.163  56.040  1.00  0.00     0.255 C 
HETATM    2  N   UNL     1       6.222  27.796  56.063  1.00  0.00    -0.354 N 
HETATM    3  O   UNL     1       5.581  29.781  55.132  1.00  0.00    -0.268 OA
HETATM    4  H   UNL     1       6.848  27.361  56.729  1.00  0.00     0.162 HD
ENDROOT
BRANCH   2   5
HETATM    5  C   UNL     1       5.585  26.947  55.074  1.00  0.00     0.156 C 
BRANCH   5   6
HETATM    6  C   UNL     1       5.609  25.462  55.445  1.00  0.00     0.160 C 
BRANCH   6   7
HETATM    7  O   UNL     1       5.580  25.335  56.878  1.00  0.00    -0.392 OA
HETATM    8  H   UNL     1       6.102  24.535  57.079  1.00  0.00     0.210 HD
ENDBRANCH   6   7
BRANCH   6   9
HETATM    9  C   UNL     1       6.820  24.710  54.880  1.00  0.00     0.209 C 
BRANCH   9  10
HETATM   10  O   UNL     1       7.466  24.086  56.000  1.00  0.00    -0.349 OA
BRANCH  10  11
HETATM   11  C   UNL     1       7.865  22.787  55.844  1.00  0.00     0.069 A 
HETATM   12  C   UNL     1       7.805  22.315  54.529  1.00  0.00     0.043 A 
HETATM   13  C   UNL     1       8.182  21.003  54.214  1.00  0.00    -0.059 A 
HETATM   14  C   UNL     1       8.117  20.498  52.804  1.00  0.00     0.048 C 
HETATM   15  C   UNL     1       8.608  20.157  55.243  1.00  0.00     0.007 A 
HETATM   16  C   UNL     1       8.663  20.620  56.558  1.00  0.00     0.003 A 
HETATM   17  C   UNL     1       8.294  21.935  56.860  1.00  0.00     0.037 A 
ENDBRANCH  10  11
ENDBRANCH   9  10
ENDBRANCH   6   9
ENDBRANCH   5   6
ENDBRANCH   2   5
BRANCH   1  18
HETATM   18  C   UNL     1       6.793  29.824  57.138  1.00  0.00     0.075 A 
HETATM   19  C   UNL     1       6.146  30.636  58.094  1.00  0.00     0.158 A 
HETATM   20  N   UNL     1       6.978  31.113  59.016  1.00  0.00    -0.183 NA
HETATM   21  N   UNL     1       8.155  30.525  58.723  1.00  0.00    -0.268 N 
HETATM   22  C   UNL     1       8.118  29.782  57.555  1.00  0.00     0.052 A 
BRANCH  21  23
HETATM   23  C   UNL     1       9.297  30.750  59.610  1.00  0.00     0.106 C 
HETATM   24  C   UNL     1       9.866  32.152  59.384  1.00  0.00     0.034 C 
BRANCH  23  25
HETATM   25  C   UNL     1       8.980  30.525  61.103  1.00  0.00     0.022 C 
HETATM   26  C   UNL     1       9.058  31.805  61.927  1.00  0.00     0.007 C 
ENDBRANCH  23  25
ENDBRANCH  21  23
BRANCH  22  27
HETATM   27  C   UNL     1       9.323  29.045  56.964  1.00  0.00     0.038 A 
HETATM   28  C   UNL     1       9.794  29.353  55.561  1.00  0.00     0.011 A 
HETATM   29  C   UNL     1      10.632  29.756  56.725  1.00  0.00     0.011 A 
ENDBRANCH  22  27
ENDBRANCH   1  18
TORSDOF 10
ENDMDL
MODEL 8
REMARK VINA RESULT:      -8.1      1.702      2.828
REMARK  10 active torsions:
REMARK  status: ('A' for Active; 'I' for Inactive)
REMARK    1  A    between atoms: C_2  and  C_3 
REMARK    2  A    between atoms: C_3  and  N_4 
REMARK    3  A    between atoms: C_7  and  C_8 
REMARK       I    between atoms: C_8  and  N_9 
REMARK    4  A    between atoms: N_9  and  C_10 
REMARK    5  A    between atoms: C_10  and  C_11 
REMARK    6  A    between atoms: C_11  and  O_12 
REMARK    7  A    between atoms: C_11  and  C_13 
REMARK    8  A    between atoms: C_13  and  O_14 
REMARK    9  A    between atoms: O_14  and  C_15 
REMARK   10  A    between atoms: C_23  and  C_24 
ROOT
HETATM    1  C   UNL     1       6.999  26.817  53.446  1.00  0.00     0.255 C 
HETATM    2  N   UNL     1       5.776  27.170  52.937  1.00  0.00    -0.354 N 
HETATM    3  O   UNL     1       7.818  27.636  53.850  1.00  0.00    -0.268 OA
HETATM    4  H   UNL     1       5.232  26.473  52.444  1.00  0.00     0.162 HD
ENDROOT
BRANCH   2   5
HETATM    5  C   UNL     1       5.288  28.536  52.941  1.00  0.00     0.156 C 
BRANCH   5   6
HETATM    6  C   UNL     1       3.782  28.642  52.691  1.00  0.00     0.160 C 
BRANCH   6   7
HETATM    7  O   UNL     1       3.151  27.414  53.097  1.00  0.00    -0.392 OA
HETATM    8  H   UNL     1       2.478  27.228  52.414  1.00  0.00     0.210 HD
ENDBRANCH   6   7
BRANCH   6   9
HETATM    9  C   UNL     1       3.424  28.953  51.233  1.00  0.00     0.209 C 
BRANCH   9  10
HETATM   10  O   UNL     1       4.310  28.166  50.422  1.00  0.00    -0.349 OA
BRANCH  10  11
HETATM   11  C   UNL     1       3.746  27.438  49.410  1.00  0.00     0.069 A 
HETATM   12  C   UNL     1       2.587  28.001  48.866  1.00  0.00     0.043 A 
HETATM   13  C   UNL     1       1.899  27.369  47.822  1.00  0.00    -0.059 A 
HETATM   14  C   UNL     1       0.657  27.973  47.240  1.00  0.00     0.048 C 
HETATM   15  C   UNL     1       2.380  26.149  47.337  1.00  0.00     0.007 A 
HETATM   16  C   UNL     1       3.532  25.580  47.880  1.00  0.00     0.003 A 
HETATM   17  C   UNL     1       4.218  26.224  48.915  1.00  0.00     0.037 A 
ENDBRANCH  10  11
ENDBRANCH   9  10
ENDBRANCH   6   9
ENDBRANCH   5   6
ENDBRANCH   2   5
BRANCH   1  18
HETATM   18  C   UNL     1       7.280  25.401  53.390  1.00  0.00     0.075 A 
HETATM   19  C   UNL     1       7.922  24.758  52.310  1.00  0.00     0.158 A 
HETATM   20  N   UNL     1       8.084  23.451  52.509  1.00  0.00    -0.183 NA
HETATM   21  N   UNL     1       7.640  23.259  53.767  1.00  0.00    -0.268 N 
HETATM   22  C   UNL     1       7.081  24.394  54.328  1.00  0.00     0.052 A 
BRANCH  21  23
HETATM   23  C   UNL     1       7.762  21.928  54.362  1.00  0.00     0.106 C 
HETATM   24  C   UNL     1       7.909  20.875  53.263  1.00  0.00     0.034 C 
BRANCH  23  25
HETATM   25  C   UNL     1       8.908  21.807  55.388  1.00  0.00     0.022 C 
HETATM   26  C   UNL     1       8.470  21.155  56.694  1.00  0.00     0.007 C 
ENDBRANCH  23  25
ENDBRANCH  21  23
BRANCH  22  27
HETATM   27  C   UNL     1       6.461  24.449  55.726  1.00  0.00     0.038 A 
HETATM   28  C   UNL     1       7.296  24.863  56.917  1.00  0.00     0.011 A 
HETATM   29  C   UNL     1       6.220  25.767  56.422  1.00  0.00     0.011 A 
ENDBRANCH  22  27
ENDBRANCH   1  18
TORSDOF 10
ENDMDL
MODEL 9
REMARK VINA RESULT:      -8.0      3.310      6.328
REMARK  10 active torsions:
REMARK  status: ('A' for Active; 'I' for Inactive)
REMARK    1  A    between atoms: C_2  and  C_3 
REMARK    2  A    between atoms: C_3  and  N_4 
REMARK    3  A    between atoms: C_7  and  C_8 
REMARK       I    between atoms: C_8  and  N_9 
REMARK    4  A    between atoms: N_9  and  C_10 
REMARK    5  A    between atoms: C_10  and  C_11 
REMARK    6  A    between atoms: C_11  and  O_12 
REMARK    7  A    between atoms: C_11  and  C_13 
REMARK    8  A    between atoms: C_13  and  O_14 
REMARK    9  A    between atoms: O_14  and  C_15 
REMARK   10  A    between atoms: C_23  and  C_24 
ROOT
HETATM    1  C   UNL     1       6.393  26.777  55.126  1.00  0.00     0.255 C 
HETATM    2  N   UNL     1       5.139  26.965  55.646  1.00  0.00    -0.354 N 
HETATM    3  O   UNL     1       6.999  27.644  54.507  1.00  0.00    -0.268 OA
HETATM    4  H   UNL     1       4.617  26.159  55.970  1.00  0.00     0.162 HD
ENDROOT
BRANCH   2   5
HETATM    5  C   UNL     1       4.461  28.247  55.618  1.00  0.00     0.156 C 
BRANCH   5   6
HETATM    6  C   UNL     1       4.427  28.945  56.980  1.00  0.00     0.160 C 
BRANCH   6   7
HETATM    7  O   UNL     1       3.234  29.743  57.069  1.00  0.00    -0.392 OA
HETATM    8  H   UNL     1       2.508  29.162  56.770  1.00  0.00     0.210 HD
ENDBRANCH   6   7
BRANCH   6   9
HETATM    9  C   UNL     1       5.658  29.818  57.251  1.00  0.00     0.209 C 
BRANCH   9  10
HETATM   10  O   UNL     1       6.711  28.922  57.641  1.00  0.00    -0.349 OA
BRANCH  10  11
HETATM   11  C   UNL     1       7.976  29.439  57.704  1.00  0.00     0.069 A 
HETATM   12  C   UNL     1       8.159  30.411  58.692  1.00  0.00     0.043 A 
HETATM   13  C   UNL     1       9.402  31.030  58.875  1.00  0.00    -0.059 A 
HETATM   14  C   UNL     1       9.596  32.072  59.937  1.00  0.00     0.048 C 
HETATM   15  C   UNL     1      10.464  30.674  58.039  1.00  0.00     0.007 A 
HETATM   16  C   UNL     1      10.286  29.709  57.047  1.00  0.00     0.003 A 
HETATM   17  C   UNL     1       9.044  29.090  56.879  1.00  0.00     0.037 A 
ENDBRANCH  10  11
ENDBRANCH   9  10
ENDBRANCH   6   9
ENDBRANCH   5   6
ENDBRANCH   2   5
BRANCH   1  18
HETATM   18  C   UNL     1       6.911  25.438  55.294  1.00  0.00     0.075 A 
HETATM   19  C   UNL     1       7.329  24.893  56.526  1.00  0.00     0.158 A 
HETATM   20  N   UNL     1       7.746  23.633  56.420  1.00  0.00    -0.183 NA
HETATM   21  N   UNL     1       7.501  23.320  55.132  1.00  0.00    -0.268 N 
HETATM   22  C   UNL     1       7.054  24.396  54.384  1.00  0.00     0.052 A 
BRANCH  21  23
HETATM   23  C   UNL     1       7.751  21.952  54.678  1.00  0.00     0.106 C 
HETATM   24  C   UNL     1       9.127  21.865  54.015  1.00  0.00     0.034 C 
BRANCH  23  25
HETATM   25  C   UNL     1       7.615  20.891  55.790  1.00  0.00     0.022 C 
HETATM   26  C   UNL     1       8.957  20.325  56.239  1.00  0.00     0.007 C 
ENDBRANCH  23  25
ENDBRANCH  21  23
BRANCH  22  27
HETATM   27  C   UNL     1       6.740  24.335  52.887  1.00  0.00     0.038 A 
HETATM   28  C   UNL     1       6.813  25.585  52.040  1.00  0.00     0.011 A 
HETATM   29  C   UNL     1       7.828  24.509  51.855  1.00  0.00     0.011 A 
ENDBRANCH  22  27
ENDBRANCH   1  18
TORSDOF 10
ENDMDL
MODEL 10
REMARK VINA RESULT:      -7.8      1.459      2.308
REMARK  10 active torsions:
REMARK  status: ('A' for Active; 'I' for Inactive)
REMARK    1  A    between atoms: C_2  and  C_3 
REMARK    2  A    between atoms: C_3  and  N_4 
REMARK    3  A    between atoms: C_7  and  C_8 
REMARK       I    between atoms: C_8  and  N_9 
REMARK    4  A    between atoms: N_9  and  C_10 
REMARK    5  A    between atoms: C_10  and  C_11 
REMARK    6  A    between atoms: C_11  and  O_12 
REMARK    7  A    between atoms: C_11  and  C_13 
REMARK    8  A    between atoms: C_13  and  O_14 
REMARK    9  A    between atoms: O_14  and  C_15 
REMARK   10  A    between atoms: C_23  and  C_24 
ROOT
HETATM    1  C   UNL     1       5.681  26.392  55.174  1.00  0.00     0.255 C 
HETATM    2  N   UNL     1       5.912  27.411  54.286  1.00  0.00    -0.354 N 
HETATM    3  O   UNL     1       5.092  26.551  56.238  1.00  0.00    -0.268 OA
HETATM    4  H   UNL     1       6.567  27.261  53.529  1.00  0.00     0.162 HD
ENDROOT
BRANCH   2   5
HETATM    5  C   UNL     1       5.376  28.746  54.467  1.00  0.00     0.156 C 
BRANCH   5   6
HETATM    6  C   UNL     1       4.615  29.264  53.244  1.00  0.00     0.160 C 
BRANCH   6   7
HETATM    7  O   UNL     1       3.417  29.930  53.683  1.00  0.00    -0.392 OA
HETATM    8  H   UNL     1       3.148  29.470  54.501  1.00  0.00     0.210 HD
ENDBRANCH   6   7
BRANCH   6   9
HETATM    9  C   UNL     1       4.259  28.166  52.235  1.00  0.00     0.209 C 
BRANCH   9  10
HETATM   10  O   UNL     1       5.403  28.016  51.381  1.00  0.00    -0.349 OA
BRANCH  10  11
HETATM   11  C   UNL     1       5.163  27.785  50.054  1.00  0.00     0.069 A 
HETATM   12  C   UNL     1       4.395  26.646  49.792  1.00  0.00     0.043 A 
HETATM   13  C   UNL     1       4.068  26.282  48.479  1.00  0.00    -0.059 A 
HETATM   14  C   UNL     1       3.243  25.061  48.199  1.00  0.00     0.048 C 
HETATM   15  C   UNL     1       4.537  27.069  47.422  1.00  0.00     0.007 A 
HETATM   16  C   UNL     1       5.309  28.202  47.678  1.00  0.00     0.003 A 
HETATM   17  C   UNL     1       5.622  28.563  48.992  1.00  0.00     0.037 A 
ENDBRANCH  10  11
ENDBRANCH   9  10
ENDBRANCH   6   9
ENDBRANCH   5   6
ENDBRANCH   2   5
BRANCH   1  18
HETATM   18  C   UNL     1       6.264  25.127  54.791  1.00  0.00     0.075 A 
HETATM   19  C   UNL     1       6.158  24.555  53.505  1.00  0.00     0.158 A 
HETATM   20  N   UNL     1       6.802  23.395  53.400  1.00  0.00    -0.183 NA
HETATM   21  N   UNL     1       7.418  23.259  54.591  1.00  0.00    -0.268 N 
HETATM   22  C   UNL     1       7.078  24.248  55.498  1.00  0.00     0.052 A 
BRANCH  21  23
HETATM   23  C   UNL     1       8.312  22.120  54.797  1.00  0.00     0.106 C 
HETATM   24  C   UNL     1       7.554  20.975  55.470  1.00  0.00     0.034 C 
BRANCH  23  25
HETATM   25  C   UNL     1       9.005  21.630  53.508  1.00  0.00     0.022 C 
HETATM   26  C   UNL     1       8.396  20.348  52.955  1.00  0.00     0.007 C 
ENDBRANCH  23  25
ENDBRANCH  21  23
BRANCH  22  27
HETATM   27  C   UNL     1       7.596  24.314  56.937  1.00  0.00     0.038 A 
HETATM   28  C   UNL     1       9.073  24.490  57.209  1.00  0.00     0.011 A 
HETATM   29  C   UNL     1       8.129  25.602  57.516  1.00  0.00     0.011 A 
ENDBRANCH  22  27
ENDBRANCH   1  18
TORSDOF 10
ENDMDL
