MODEL 1
REMARK VINA RESULT:      -8.4      0.000      0.000
REMARK  4 active torsions:
REMARK  status: ('A' for Active; 'I' for Inactive)
REMARK    1  A    between atoms: S_2  and  N_3 
REMARK    2  A    between atoms: N_3  and  N_4 
REMARK    3  A    between atoms: C_10  and  C_11 
REMARK    4  A    between atoms: C_13  and  O_14 
ROOT
HETATM    1  N   UNL     1       5.404  26.468  53.725  1.00  0.00    -0.224 N 
HETATM    2  C   UNL     1       6.116  25.622  52.889  1.00  0.00     0.276 C 
HETATM    3  O   UNL     1       6.037  25.695  51.662  1.00  0.00    -0.266 OA
HETATM    4  C   UNL     1       6.908  24.568  53.551  1.00  0.00     0.055 A 
HETATM    5  C   UNL     1       6.591  24.272  54.885  1.00  0.00     0.026 A 
HETATM    6  N   UNL     1       5.599  25.004  55.562  1.00  0.00    -0.265 NA
HETATM    7  C   UNL     1       5.551  26.425  55.187  1.00  0.00     0.222 C 
HETATM    8  C   UNL     1       7.843  23.814  52.839  1.00  0.00     0.019 A 
HETATM    9  C   UNL     1       8.471  22.739  53.465  1.00  0.00     0.001 A 
HETATM   10  C   UNL     1       8.139  22.408  54.779  1.00  0.00     0.002 A 
HETATM   11  C   UNL     1       7.190  23.159  55.480  1.00  0.00     0.024 A 
HETATM   12  H   UNL     1       5.588  24.858  56.563  1.00  0.00     0.130 HD
ENDROOT
BRANCH   7  13
HETATM   13  C   UNL     1       6.777  27.197  55.709  1.00  0.00    -0.017 A 
HETATM   14  C   UNL     1       7.555  27.997  54.850  1.00  0.00     0.047 A 
HETATM   15  C   UNL     1       8.648  28.714  55.336  1.00  0.00     0.066 A 
HETATM   16  C   UNL     1       9.002  28.657  56.675  1.00  0.00     0.036 A 
HETATM   17  C   UNL     1       8.237  27.895  57.550  1.00  0.00     0.003 A 
HETATM   18  C   UNL     1       7.129  27.186  57.075  1.00  0.00     0.011 A 
BRANCH  15  19
HETATM   19  O   UNL     1       9.405  29.500  54.517  1.00  0.00    -0.361 OA
HETATM   20  H   UNL     1       8.842  30.202  54.153  1.00  0.00     0.217 HD
ENDBRANCH  15  19
ENDBRANCH   7  13
BRANCH   1  21
HETATM   21  N   UNL     1       4.100  26.922  53.178  1.00  0.00    -0.220 N 
HETATM   22  H   UNL     1       3.806  26.379  52.353  1.00  0.00     0.200 HD
BRANCH  21  23
HETATM   23  S   UNL     1       3.763  28.569  53.015  1.00  0.00     0.240 S 
HETATM   24  C   UNL     1       5.193  29.110  52.102  1.00  0.00     0.187 C 
HETATM   25  O   UNL     1       3.794  29.191  54.320  1.00  0.00    -0.205 OA
HETATM   26  O   UNL     1       2.613  28.687  52.147  1.00  0.00    -0.205 OA
ENDBRANCH  21  23
ENDBRANCH   1  21
TORSDOF 4
ENDMDL
MODEL 2
REMARK VINA RESULT:      -8.2      1.342      1.676
REMARK  4 active torsions:
REMARK  status: ('A' for Active; 'I' for Inactive)
REMARK    1  A    between atoms: S_2  and  N_3 
REMARK    2  A    between atoms: N_3  and  N_4 
REMARK    3  A    between atoms: C_10  and  C_11 
REMARK    4  A    between atoms: C_13  and  O_14 
ROOT
HETATM    1  N   UNL     1       5.450  26.591  53.176  1.00  0.00    -0.224 N 
HETATM    2  C   UNL     1       6.253  25.684  52.500  1.00  0.00     0.276 C 
HETATM    3  O   UNL     1       6.332  25.668  51.271  1.00  0.00    -0.266 OA
HETATM    4  C   UNL     1       6.941  24.678  53.332  1.00  0.00     0.055 A 
HETATM    5  C   UNL     1       6.453  24.480  54.632  1.00  0.00     0.026 A 
HETATM    6  N   UNL     1       5.390  25.262  55.122  1.00  0.00    -0.265 NA
HETATM    7  C   UNL     1       5.408  26.652  54.643  1.00  0.00     0.222 C 
HETATM    8  C   UNL     1       7.950  23.873  52.802  1.00  0.00     0.019 A 
HETATM    9  C   UNL     1       8.480  22.844  53.578  1.00  0.00     0.001 A 
HETATM   10  C   UNL     1       7.978  22.609  54.859  1.00  0.00     0.002 A 
HETATM   11  C   UNL     1       6.957  23.411  55.377  1.00  0.00     0.024 A 
HETATM   12  H   UNL     1       5.250  25.189  56.121  1.00  0.00     0.130 HD
ENDROOT
BRANCH   7  13
HETATM   13  C   UNL     1       6.566  27.457  55.262  1.00  0.00    -0.017 A 
HETATM   14  C   UNL     1       6.734  27.537  56.659  1.00  0.00     0.047 A 
HETATM   15  C   UNL     1       7.801  28.246  57.210  1.00  0.00     0.066 A 
HETATM   16  C   UNL     1       8.724  28.893  56.404  1.00  0.00     0.036 A 
HETATM   17  C   UNL     1       8.597  28.809  55.022  1.00  0.00     0.003 A 
HETATM   18  C   UNL     1       7.540  28.087  54.459  1.00  0.00     0.011 A 
BRANCH  15  19
HETATM   19  O   UNL     1       7.980  28.324  58.561  1.00  0.00    -0.361 OA
HETATM   20  H   UNL     1       7.783  27.458  58.952  1.00  0.00     0.217 HD
ENDBRANCH  15  19
ENDBRANCH   7  13
BRANCH   1  21
HETATM   21  N   UNL     1       4.232  27.007  52.434  1.00  0.00    -0.220 N 
HETATM   22  H   UNL     1       3.860  26.259  51.833  1.00  0.00     0.200 HD
BRANCH  21  23
HETATM   23  S   UNL     1       4.154  28.524  51.694  1.00  0.00     0.240 S 
HETATM   24  C   UNL     1       3.959  28.050  49.989  1.00  0.00     0.187 C 
HETATM   25  O   UNL     1       5.430  29.188  51.839  1.00  0.00    -0.205 OA
HETATM   26  O   UNL     1       2.922  29.147  52.125  1.00  0.00    -0.205 OA
ENDBRANCH  21  23
ENDBRANCH   1  21
TORSDOF 4
ENDMDL
MODEL 3
REMARK VINA RESULT:      -7.5      1.984      2.504
REMARK  4 active torsions:
REMARK  status: ('A' for Active; 'I' for Inactive)
REMARK    1  A    between atoms: S_2  and  N_3 
REMARK    2  A    between atoms: N_3  and  N_4 
REMARK    3  A    between atoms: C_10  and  C_11 
REMARK    4  A    between atoms: C_13  and  O_14 
ROOT
HETATM    1  N   UNL     1       6.814  27.985  53.803  1.00  0.00    -0.224 N 
HETATM    2  C   UNL     1       7.336  26.722  53.571  1.00  0.00     0.276 C 
HETATM    3  O   UNL     1       7.738  26.372  52.461  1.00  0.00    -0.266 OA
HETATM    4  C   UNL     1       7.299  25.784  54.711  1.00  0.00     0.055 A 
HETATM    5  C   UNL     1       6.434  26.097  55.770  1.00  0.00     0.026 A 
HETATM    6  N   UNL     1       5.687  27.289  55.753  1.00  0.00    -0.265 NA
HETATM    7  C   UNL     1       6.396  28.423  55.141  1.00  0.00     0.222 C 
HETATM    8  C   UNL     1       8.002  24.578  54.674  1.00  0.00     0.019 A 
HETATM    9  C   UNL     1       7.834  23.660  55.709  1.00  0.00     0.001 A 
HETATM   10  C   UNL     1       6.947  23.939  56.750  1.00  0.00     0.002 A 
HETATM   11  C   UNL     1       6.237  25.143  56.771  1.00  0.00     0.024 A 
HETATM   12  H   UNL     1       5.259  27.521  56.639  1.00  0.00     0.130 HD
ENDROOT
BRANCH   7  13
HETATM   13  C   UNL     1       7.560  28.914  56.023  1.00  0.00    -0.017 A 
HETATM   14  C   UNL     1       7.397  29.096  57.411  1.00  0.00     0.047 A 
HETATM   15  C   UNL     1       8.463  29.516  58.206  1.00  0.00     0.066 A 
HETATM   16  C   UNL     1       9.710  29.768  57.656  1.00  0.00     0.036 A 
HETATM   17  C   UNL     1       9.905  29.573  56.294  1.00  0.00     0.003 A 
HETATM   18  C   UNL     1       8.847  29.137  55.491  1.00  0.00     0.011 A 
BRANCH  15  19
HETATM   19  O   UNL     1       8.321  29.687  59.552  1.00  0.00    -0.361 OA
HETATM   20  H   UNL     1       8.324  30.637  59.748  1.00  0.00     0.217 HD
ENDBRANCH  15  19
ENDBRANCH   7  13
BRANCH   1  21
HETATM   21  N   UNL     1       6.125  28.591  52.634  1.00  0.00    -0.220 N 
HETATM   22  H   UNL     1       6.241  29.613  52.592  1.00  0.00     0.200 HD
BRANCH  21  23
HETATM   23  S   UNL     1       4.563  28.105  52.211  1.00  0.00     0.240 S 
HETATM   24  C   UNL     1       4.858  27.423  50.593  1.00  0.00     0.187 C 
HETATM   25  O   UNL     1       3.726  29.274  52.066  1.00  0.00    -0.205 OA
HETATM   26  O   UNL     1       4.200  27.017  53.091  1.00  0.00    -0.205 OA
ENDBRANCH  21  23
ENDBRANCH   1  21
TORSDOF 4
ENDMDL
MODEL 4
REMARK VINA RESULT:      -7.5      9.777     11.931
REMARK  4 active torsions:
REMARK  status: ('A' for Active; 'I' for Inactive)
REMARK    1  A    between atoms: S_2  and  N_3 
REMARK    2  A    between atoms: N_3  and  N_4 
REMARK    3  A    between atoms: C_10  and  C_11 
REMARK    4  A    between atoms: C_13  and  O_14 
ROOT
HETATM    1  N   UNL     1       6.243  34.246  63.778  1.00  0.00    -0.224 N 
HETATM    2  C   UNL     1       5.556  34.997  62.835  1.00  0.00     0.276 C 
HETATM    3  O   UNL     1       5.532  36.227  62.869  1.00  0.00    -0.266 OA
HETATM    4  C   UNL     1       4.779  34.235  61.838  1.00  0.00     0.055 A 
HETATM    5  C   UNL     1       4.494  32.894  62.136  1.00  0.00     0.026 A 
HETATM    6  N   UNL     1       4.989  32.305  63.314  1.00  0.00    -0.265 NA
HETATM    7  C   UNL     1       6.326  32.782  63.698  1.00  0.00     0.222 C 
HETATM    8  C   UNL     1       4.247  34.860  60.709  1.00  0.00     0.019 A 
HETATM    9  C   UNL     1       3.406  34.139  59.863  1.00  0.00     0.001 A 
HETATM   10  C   UNL     1       3.081  32.817  60.167  1.00  0.00     0.002 A 
HETATM   11  C   UNL     1       3.608  32.203  61.308  1.00  0.00     0.024 A 
HETATM   12  H   UNL     1       4.907  31.297  63.337  1.00  0.00     0.130 HD
ENDROOT
BRANCH   7  13
HETATM   13  C   UNL     1       7.415  32.275  62.733  1.00  0.00    -0.017 A 
HETATM   14  C   UNL     1       8.061  31.042  62.945  1.00  0.00     0.047 A 
HETATM   15  C   UNL     1       9.027  30.579  62.052  1.00  0.00     0.066 A 
HETATM   16  C   UNL     1       9.380  31.318  60.934  1.00  0.00     0.036 A 
HETATM   17  C   UNL     1       8.741  32.527  60.687  1.00  0.00     0.003 A 
HETATM   18  C   UNL     1       7.760  32.992  61.567  1.00  0.00     0.011 A 
BRANCH  15  19
HETATM   19  O   UNL     1       9.653  29.381  62.240  1.00  0.00    -0.361 OA
HETATM   20  H   UNL     1       9.497  28.822  61.463  1.00  0.00     0.217 HD
ENDBRANCH  15  19
ENDBRANCH   7  13
BRANCH   1  21
HETATM   21  N   UNL     1       6.316  34.868  65.125  1.00  0.00    -0.220 N 
HETATM   22  H   UNL     1       7.191  34.640  65.619  1.00  0.00     0.200 HD
BRANCH  21  23
HETATM   23  S   UNL     1       4.976  34.852  66.153  1.00  0.00     0.240 S 
HETATM   24  C   UNL     1       5.753  34.448  67.703  1.00  0.00     0.187 C 
HETATM   25  O   UNL     1       4.106  33.759  65.780  1.00  0.00    -0.205 OA
HETATM   26  O   UNL     1       4.489  36.210  66.242  1.00  0.00    -0.205 OA
ENDBRANCH  21  23
ENDBRANCH   1  21
TORSDOF 4
ENDMDL
MODEL 5
REMARK VINA RESULT:      -7.5      2.582      4.847
REMARK  4 active torsions:
REMARK  status: ('A' for Active; 'I' for Inactive)
REMARK    1  A    between atoms: S_2  and  N_3 
REMARK    2  A    between atoms: N_3  and  N_4 
REMARK    3  A    between atoms: C_10  and  C_11 
REMARK    4  A    between atoms: C_13  and  O_14 
ROOT
HETATM    1  N   UNL     1       6.077  27.692  55.430  1.00  0.00    -0.224 N 
HETATM    2  C   UNL     1       6.001  26.309  55.500  1.00  0.00     0.276 C 
HETATM    3  O   UNL     1       5.572  25.725  56.495  1.00  0.00    -0.266 OA
HETATM    4  C   UNL     1       6.549  25.569  54.346  1.00  0.00     0.055 A 
HETATM    5  C   UNL     1       7.410  26.268  53.487  1.00  0.00     0.026 A 
HETATM    6  N   UNL     1       7.678  27.632  53.701  1.00  0.00    -0.265 NA
HETATM    7  C   UNL     1       6.527  28.388  54.218  1.00  0.00     0.222 C 
HETATM    8  C   UNL     1       6.318  24.200  54.193  1.00  0.00     0.019 A 
HETATM    9  C   UNL     1       6.963  23.511  53.168  1.00  0.00     0.001 A 
HETATM   10  C   UNL     1       7.853  24.184  52.329  1.00  0.00     0.002 A 
HETATM   11  C   UNL     1       8.089  25.552  52.499  1.00  0.00     0.024 A 
HETATM   12  H   UNL     1       8.136  28.090  52.924  1.00  0.00     0.130 HD
ENDROOT
BRANCH   7  13
HETATM   13  C   UNL     1       5.425  28.552  53.154  1.00  0.00    -0.017 A 
HETATM   14  C   UNL     1       5.744  28.686  51.788  1.00  0.00     0.047 A 
HETATM   15  C   UNL     1       4.739  28.808  50.829  1.00  0.00     0.066 A 
HETATM   16  C   UNL     1       3.401  28.804  51.189  1.00  0.00     0.036 A 
HETATM   17  C   UNL     1       3.057  28.648  52.527  1.00  0.00     0.003 A 
HETATM   18  C   UNL     1       4.057  28.509  53.495  1.00  0.00     0.011 A 
BRANCH  15  19
HETATM   19  O   UNL     1       5.035  28.929  49.502  1.00  0.00    -0.361 OA
HETATM   20  H   UNL     1       5.763  28.325  49.288  1.00  0.00     0.217 HD
ENDBRANCH  15  19
ENDBRANCH   7  13
BRANCH   1  21
HETATM   21  N   UNL     1       6.310  28.362  56.736  1.00  0.00    -0.220 N 
HETATM   22  H   UNL     1       5.871  29.292  56.787  1.00  0.00     0.200 HD
BRANCH  21  23
HETATM   23  S   UNL     1       7.837  28.331  57.457  1.00  0.00     0.240 S 
HETATM   24  C   UNL     1       7.735  29.766  58.506  1.00  0.00     0.187 C 
HETATM   25  O   UNL     1       8.842  28.577  56.447  1.00  0.00    -0.205 OA
HETATM   26  O   UNL     1       7.886  27.163  58.307  1.00  0.00    -0.205 OA
ENDBRANCH  21  23
ENDBRANCH   1  21
TORSDOF 4
ENDMDL
MODEL 6
REMARK VINA RESULT:      -7.3      1.821      4.520
REMARK  4 active torsions:
REMARK  status: ('A' for Active; 'I' for Inactive)
REMARK    1  A    between atoms: S_2  and  N_3 
REMARK    2  A    between atoms: N_3  and  N_4 
REMARK    3  A    between atoms: C_10  and  C_11 
REMARK    4  A    between atoms: C_13  and  O_14 
ROOT
HETATM    1  N   UNL     1       5.303  26.915  54.302  1.00  0.00    -0.224 N 
HETATM    2  C   UNL     1       5.247  27.599  55.507  1.00  0.00     0.276 C 
HETATM    3  O   UNL     1       4.182  27.827  56.082  1.00  0.00    -0.266 OA
HETATM    4  C   UNL     1       6.529  28.119  56.020  1.00  0.00     0.055 A 
HETATM    5  C   UNL     1       7.592  28.215  55.110  1.00  0.00     0.026 A 
HETATM    6  N   UNL     1       7.437  27.773  53.783  1.00  0.00    -0.265 NA
HETATM    7  C   UNL     1       6.578  26.586  53.651  1.00  0.00     0.222 C 
HETATM    8  C   UNL     1       6.638  28.609  57.323  1.00  0.00     0.019 A 
HETATM    9  C   UNL     1       7.827  29.215  57.726  1.00  0.00     0.001 A 
HETATM   10  C   UNL     1       8.879  29.355  56.820  1.00  0.00     0.002 A 
HETATM   11  C   UNL     1       8.756  28.874  55.513  1.00  0.00     0.024 A 
HETATM   12  H   UNL     1       8.305  27.693  53.270  1.00  0.00     0.130 HD
ENDROOT
BRANCH   7  13
HETATM   13  C   UNL     1       7.255  25.324  54.218  1.00  0.00    -0.017 A 
HETATM   14  C   UNL     1       7.325  25.095  55.606  1.00  0.00     0.047 A 
HETATM   15  C   UNL     1       7.917  23.937  56.110  1.00  0.00     0.066 A 
HETATM   16  C   UNL     1       8.454  22.981  55.262  1.00  0.00     0.036 A 
HETATM   17  C   UNL     1       8.376  23.169  53.888  1.00  0.00     0.003 A 
HETATM   18  C   UNL     1       7.770  24.319  53.372  1.00  0.00     0.011 A 
BRANCH  15  19
HETATM   19  O   UNL     1       7.983  23.699  57.452  1.00  0.00    -0.361 OA
HETATM   20  H   UNL     1       7.576  22.837  57.636  1.00  0.00     0.217 HD
ENDBRANCH  15  19
ENDBRANCH   7  13
BRANCH   1  21
HETATM   21  N   UNL     1       4.114  27.103  53.431  1.00  0.00    -0.220 N 
HETATM   22  H   UNL     1       3.812  26.229  52.980  1.00  0.00     0.200 HD
BRANCH  21  23
HETATM   23  S   UNL     1       4.011  28.431  52.392  1.00  0.00     0.240 S 
HETATM   24  C   UNL     1       4.579  27.703  50.870  1.00  0.00     0.187 C 
HETATM   25  O   UNL     1       4.971  29.431  52.805  1.00  0.00    -0.205 OA
HETATM   26  O   UNL     1       2.609  28.745  52.237  1.00  0.00    -0.205 OA
ENDBRANCH  21  23
ENDBRANCH   1  21
TORSDOF 4
ENDMDL
MODEL 7
REMARK VINA RESULT:      -7.3      9.269     11.906
REMARK  4 active torsions:
REMARK  status: ('A' for Active; 'I' for Inactive)
REMARK    1  A    between atoms: S_2  and  N_3 
REMARK    2  A    between atoms: N_3  and  N_4 
REMARK    3  A    between atoms: C_10  and  C_11 
REMARK    4  A    between atoms: C_13  and  O_14 
ROOT
HETATM    1  N   UNL     1       6.468  32.837  62.001  1.00  0.00    -0.224 N 
HETATM    2  C   UNL     1       7.213  32.910  63.168  1.00  0.00     0.276 C 
HETATM    3  O   UNL     1       8.375  32.507  63.230  1.00  0.00    -0.266 OA
HETATM    4  C   UNL     1       6.507  33.417  64.360  1.00  0.00     0.055 A 
HETATM    5  C   UNL     1       5.104  33.421  64.320  1.00  0.00     0.026 A 
HETATM    6  N   UNL     1       4.423  33.011  63.160  1.00  0.00    -0.265 NA
HETATM    7  C   UNL     1       5.105  33.379  61.910  1.00  0.00     0.222 C 
HETATM    8  C   UNL     1       7.204  33.759  65.520  1.00  0.00     0.019 A 
HETATM    9  C   UNL     1       6.492  34.104  66.667  1.00  0.00     0.001 A 
HETATM   10  C   UNL     1       5.097  34.074  66.655  1.00  0.00     0.002 A 
HETATM   11  C   UNL     1       4.406  33.717  65.493  1.00  0.00     0.024 A 
HETATM   12  H   UNL     1       3.438  33.242  63.156  1.00  0.00     0.130 HD
ENDROOT
BRANCH   7  13
HETATM   13  C   UNL     1       5.059  34.897  61.658  1.00  0.00    -0.017 A 
HETATM   14  C   UNL     1       4.174  35.453  60.713  1.00  0.00     0.047 A 
HETATM   15  C   UNL     1       4.120  36.832  60.509  1.00  0.00     0.066 A 
HETATM   16  C   UNL     1       4.935  37.693  61.227  1.00  0.00     0.036 A 
HETATM   17  C   UNL     1       5.800  37.174  62.183  1.00  0.00     0.003 A 
HETATM   18  C   UNL     1       5.850  35.795  62.406  1.00  0.00     0.011 A 
BRANCH  15  19
HETATM   19  O   UNL     1       3.261  37.384  59.604  1.00  0.00    -0.361 OA
HETATM   20  H   UNL     1       2.827  36.669  59.111  1.00  0.00     0.217 HD
ENDBRANCH  15  19
ENDBRANCH   7  13
BRANCH   1  21
HETATM   21  N   UNL     1       6.812  31.690  61.121  1.00  0.00    -0.220 N 
HETATM   22  H   UNL     1       7.160  30.877  61.648  1.00  0.00     0.200 HD
BRANCH  21  23
HETATM   23  S   UNL     1       7.666  31.936  59.684  1.00  0.00     0.240 S 
HETATM   24  C   UNL     1       8.288  30.295  59.385  1.00  0.00     0.187 C 
HETATM   25  O   UNL     1       8.789  32.809  59.944  1.00  0.00    -0.205 OA
HETATM   26  O   UNL     1       6.695  32.237  58.656  1.00  0.00    -0.205 OA
ENDBRANCH  21  23
ENDBRANCH   1  21
TORSDOF 4
ENDMDL
MODEL 8
REMARK VINA RESULT:      -7.3      9.763     11.898
REMARK  4 active torsions:
REMARK  status: ('A' for Active; 'I' for Inactive)
REMARK    1  A    between atoms: S_2  and  N_3 
REMARK    2  A    between atoms: N_3  and  N_4 
REMARK    3  A    between atoms: C_10  and  C_11 
REMARK    4  A    between atoms: C_13  and  O_14 
ROOT
HETATM    1  N   UNL     1       3.783  34.258  63.433  1.00  0.00    -0.224 N 
HETATM    2  C   UNL     1       3.701  35.093  62.329  1.00  0.00     0.276 C 
HETATM    3  O   UNL     1       3.480  36.299  62.435  1.00  0.00    -0.266 OA
HETATM    4  C   UNL     1       3.803  34.438  61.010  1.00  0.00     0.055 A 
HETATM    5  C   UNL     1       3.597  33.052  60.965  1.00  0.00     0.026 A 
HETATM    6  N   UNL     1       3.364  32.327  62.148  1.00  0.00    -0.265 NA
HETATM    7  C   UNL     1       4.112  32.831  63.309  1.00  0.00     0.222 C 
HETATM    8  C   UNL     1       3.972  35.189  59.845  1.00  0.00     0.019 A 
HETATM    9  C   UNL     1       3.927  34.547  58.608  1.00  0.00     0.001 A 
HETATM   10  C   UNL     1       3.684  33.175  58.545  1.00  0.00     0.002 A 
HETATM   11  C   UNL     1       3.501  32.433  59.716  1.00  0.00     0.024 A 
HETATM   12  H   UNL     1       3.433  31.323  62.038  1.00  0.00     0.130 HD
ENDROOT
BRANCH   7  13
HETATM   13  C   UNL     1       5.622  32.553  63.183  1.00  0.00    -0.017 A 
HETATM   14  C   UNL     1       6.118  31.637  62.234  1.00  0.00     0.047 A 
HETATM   15  C   UNL     1       7.488  31.410  62.109  1.00  0.00     0.066 A 
HETATM   16  C   UNL     1       8.400  32.075  62.914  1.00  0.00     0.036 A 
HETATM   17  C   UNL     1       7.940  33.002  63.841  1.00  0.00     0.003 A 
HETATM   18  C   UNL     1       6.569  33.249  63.963  1.00  0.00     0.011 A 
BRANCH  15  19
HETATM   19  O   UNL     1       7.982  30.533  61.188  1.00  0.00    -0.361 OA
HETATM   20  H   UNL     1       8.531  31.022  60.555  1.00  0.00     0.217 HD
ENDBRANCH  15  19
ENDBRANCH   7  13
BRANCH   1  21
HETATM   21  N   UNL     1       2.939  34.672  64.583  1.00  0.00    -0.220 N 
HETATM   22  H   UNL     1       2.225  35.366  64.320  1.00  0.00     0.200 HD
BRANCH  21  23
HETATM   23  S   UNL     1       3.637  35.006  66.085  1.00  0.00     0.240 S 
HETATM   24  C   UNL     1       4.769  36.307  65.640  1.00  0.00     0.187 C 
HETATM   25  O   UNL     1       4.406  33.860  66.515  1.00  0.00    -0.205 OA
HETATM   26  O   UNL     1       2.605  35.582  66.918  1.00  0.00    -0.205 OA
ENDBRANCH  21  23
ENDBRANCH   1  21
TORSDOF 4
ENDMDL
MODEL 9
REMARK VINA RESULT:      -6.9      2.353      3.096
REMARK  4 active torsions:
REMARK  status: ('A' for Active; 'I' for Inactive)
REMARK    1  A    between atoms: S_2  and  N_3 
REMARK    2  A    between atoms: N_3  and  N_4 
REMARK    3  A    between atoms: C_10  and  C_11 
REMARK    4  A    between atoms: C_13  and  O_14 
ROOT
HETATM    1  N   UNL     1       5.055  28.529  56.232  1.00  0.00    -0.224 N 
HETATM    2  C   UNL     1       4.940  27.811  55.051  1.00  0.00     0.276 C 
HETATM    3  O   UNL     1       4.178  28.154  54.147  1.00  0.00    -0.266 OA
HETATM    4  C   UNL     1       5.716  26.558  54.974  1.00  0.00     0.055 A 
HETATM    5  C   UNL     1       6.183  26.018  56.181  1.00  0.00     0.026 A 
HETATM    6  N   UNL     1       5.960  26.690  57.397  1.00  0.00    -0.265 NA
HETATM    7  C   UNL     1       6.013  28.155  57.282  1.00  0.00     0.222 C 
HETATM    8  C   UNL     1       5.869  25.879  53.764  1.00  0.00     0.019 A 
HETATM    9  C   UNL     1       6.491  24.632  53.755  1.00  0.00     0.001 A 
HETATM   10  C   UNL     1       6.925  24.063  54.953  1.00  0.00     0.002 A 
HETATM   11  C   UNL     1       6.756  24.744  56.163  1.00  0.00     0.024 A 
HETATM   12  H   UNL     1       6.503  26.334  58.172  1.00  0.00     0.130 HD
ENDROOT
BRANCH   7  13
HETATM   13  C   UNL     1       7.445  28.658  57.020  1.00  0.00    -0.017 A 
HETATM   14  C   UNL     1       7.954  28.762  55.711  1.00  0.00     0.047 A 
HETATM   15  C   UNL     1       9.243  29.242  55.482  1.00  0.00     0.066 A 
HETATM   16  C   UNL     1      10.060  29.629  56.532  1.00  0.00     0.036 A 
HETATM   17  C   UNL     1       9.574  29.560  57.833  1.00  0.00     0.003 A 
HETATM   18  C   UNL     1       8.278  29.096  58.072  1.00  0.00     0.011 A 
BRANCH  15  19
HETATM   19  O   UNL     1       9.745  29.356  54.217  1.00  0.00    -0.361 OA
HETATM   20  H   UNL     1      10.712  29.302  54.261  1.00  0.00     0.217 HD
ENDBRANCH  15  19
ENDBRANCH   7  13
BRANCH   1  21
HETATM   21  N   UNL     1       3.814  29.230  56.650  1.00  0.00    -0.220 N 
HETATM   22  H   UNL     1       2.976  28.870  56.172  1.00  0.00     0.200 HD
BRANCH  21  23
HETATM   23  S   UNL     1       3.789  30.911  56.812  1.00  0.00     0.240 S 
HETATM   24  C   UNL     1       2.646  31.349  55.519  1.00  0.00     0.187 C 
HETATM   25  O   UNL     1       5.090  31.439  56.467  1.00  0.00    -0.205 OA
HETATM   26  O   UNL     1       3.161  31.210  58.079  1.00  0.00    -0.205 OA
ENDBRANCH  21  23
ENDBRANCH   1  21
TORSDOF 4
ENDMDL
MODEL 10
REMARK VINA RESULT:      -6.4      3.703      5.881
REMARK  4 active torsions:
REMARK  status: ('A' for Active; 'I' for Inactive)
REMARK    1  A    between atoms: S_2  and  N_3 
REMARK    2  A    between atoms: N_3  and  N_4 
REMARK    3  A    between atoms: C_10  and  C_11 
REMARK    4  A    between atoms: C_13  and  O_14 
ROOT
HETATM    1  N   UNL     1       4.140  27.552  50.272  1.00  0.00    -0.224 N 
HETATM    2  C   UNL     1       5.059  26.901  51.080  1.00  0.00     0.276 C 
HETATM    3  O   UNL     1       5.708  25.932  50.686  1.00  0.00    -0.266 OA
HETATM    4  C   UNL     1       5.153  27.379  52.473  1.00  0.00     0.055 A 
HETATM    5  C   UNL     1       4.089  28.155  52.958  1.00  0.00     0.026 A 
HETATM    6  N   UNL     1       3.017  28.501  52.115  1.00  0.00    -0.265 NA
HETATM    7  C   UNL     1       3.416  28.749  50.721  1.00  0.00     0.222 C 
HETATM    8  C   UNL     1       6.196  26.970  53.306  1.00  0.00     0.019 A 
HETATM    9  C   UNL     1       6.176  27.333  54.652  1.00  0.00     0.001 A 
HETATM   10  C   UNL     1       5.105  28.070  55.158  1.00  0.00     0.002 A 
HETATM   11  C   UNL     1       4.058  28.464  54.319  1.00  0.00     0.024 A 
HETATM   12  H   UNL     1       2.414  29.221  52.489  1.00  0.00     0.130 HD
ENDROOT
BRANCH   7  13
HETATM   13  C   UNL     1       4.225  30.052  50.580  1.00  0.00    -0.017 A 
HETATM   14  C   UNL     1       3.932  31.182  51.368  1.00  0.00     0.047 A 
HETATM   15  C   UNL     1       4.686  32.349  51.252  1.00  0.00     0.066 A 
HETATM   16  C   UNL     1       5.743  32.432  50.360  1.00  0.00     0.036 A 
HETATM   17  C   UNL     1       6.071  31.324  49.588  1.00  0.00     0.003 A 
HETATM   18  C   UNL     1       5.331  30.144  49.708  1.00  0.00     0.011 A 
BRANCH  15  19
HETATM   19  O   UNL     1       4.418  33.448  52.016  1.00  0.00    -0.361 OA
HETATM   20  H   UNL     1       3.478  33.438  52.257  1.00  0.00     0.217 HD
ENDBRANCH  15  19
ENDBRANCH   7  13
BRANCH   1  21
HETATM   21  N   UNL     1       3.473  26.680  49.271  1.00  0.00    -0.220 N 
HETATM   22  H   UNL     1       3.483  25.687  49.542  1.00  0.00     0.200 HD
BRANCH  21  23
HETATM   23  S   UNL     1       3.754  26.897  47.619  1.00  0.00     0.240 S 
HETATM   24  C   UNL     1       2.696  25.638  46.937  1.00  0.00     0.187 C 
HETATM   25  O   UNL     1       5.126  26.550  47.322  1.00  0.00    -0.205 OA
HETATM   26  O   UNL     1       3.202  28.183  47.257  1.00  0.00    -0.205 OA
ENDBRANCH  21  23
ENDBRANCH   1  21
TORSDOF 4
ENDMDL
