MODEL 1
REMARK VINA RESULT:     -10.5      0.000      0.000
REMARK  11 active torsions:
REMARK  status: ('A' for Active; 'I' for Inactive)
REMARK    1  A    between atoms: C_8  and  C_9 
REMARK    2  A    between atoms: C_9  and  C_10 
REMARK    3  A    between atoms: N_14  and  C_15 
REMARK    4  A    between atoms: C_15  and  C_16 
REMARK    5  A    between atoms: C_16  and  C_17 
REMARK    6  A    between atoms: C_20  and  O_21 
REMARK    7  A    between atoms: C_27  and  N_28 
REMARK    8  A    between atoms: N_28  and  C_29 
REMARK    9  A    between atoms: C_29  and  C_30 
REMARK   10  A    between atoms: C_30  and  O_31 
REMARK   11  A    between atoms: C_30  and  C_32 
ROOT
HETATM    1  C   UNL     1       4.649  26.699  48.629  1.00  0.00     0.052 C 
HETATM    2  C   UNL     1       3.999  27.682  49.552  1.00  0.00    -0.015 A 
HETATM    3  C   UNL     1       4.454  27.696  50.988  1.00  0.00     0.144 A 
HETATM    4  N   UNL     1       5.345  26.843  51.378  1.00  0.00    -0.217 NA
HETATM    5  N   UNL     1       3.884  28.645  51.819  1.00  0.00    -0.272 N 
HETATM    6  C   UNL     1       4.319  28.752  53.129  1.00  0.00     0.266 C 
HETATM    7  O   UNL     1       3.982  29.661  53.894  1.00  0.00    -0.267 OA
HETATM    8  C   UNL     1       5.267  27.695  53.602  1.00  0.00     0.074 C 
HETATM    9  C   UNL     1       5.740  26.819  52.688  1.00  0.00     0.121 C 
HETATM   10  C   UNL     1       2.907  29.517  51.356  1.00  0.00     0.102 A 
HETATM   11  C   UNL     1       2.473  29.482  50.091  1.00  0.00     0.018 A 
HETATM   12  C   UNL     1       3.044  28.541  49.165  1.00  0.00     0.012 A 
ENDROOT
BRANCH   8  13
HETATM   13  C   UNL     1       5.589  27.647  55.022  1.00  0.00     0.045 C 
BRANCH  13  14
HETATM   14  C   UNL     1       6.634  28.245  55.612  1.00  0.00     0.077 A 
HETATM   15  S   UNL     1       8.183  28.546  54.942  1.00  0.00    -0.055 SA
HETATM   16  C   UNL     1       8.790  29.238  56.437  1.00  0.00     0.148 A 
HETATM   17  S   UNL     1      10.378  29.738  56.586  1.00  0.00    -0.052 SA
HETATM   18  N   UNL     1       7.783  29.293  57.390  1.00  0.00    -0.298 N 
HETATM   19  C   UNL     1       6.569  28.743  57.013  1.00  0.00     0.266 A 
HETATM   20  O   UNL     1       5.555  28.650  57.691  1.00  0.00    -0.266 OA
BRANCH  18  21
HETATM   21  C   UNL     1       8.024  29.896  58.713  1.00  0.00     0.138 C 
BRANCH  21  22
HETATM   22  C   UNL     1       7.427  31.275  59.021  1.00  0.00     0.059 C 
BRANCH  22  23
HETATM   23  C   UNL     1       7.531  31.753  60.458  1.00  0.00    -0.057 A 
HETATM   24  C   UNL     1       8.520  31.335  61.354  1.00  0.00     0.010 A 
HETATM   25  C   UNL     1       8.576  31.863  62.649  1.00  0.00     0.037 A 
HETATM   26  C   UNL     1       7.653  32.816  63.076  1.00  0.00     0.068 A 
HETATM   27  C   UNL     1       6.653  33.228  62.199  1.00  0.00     0.037 A 
HETATM   28  C   UNL     1       6.595  32.702  60.903  1.00  0.00     0.010 A 
BRANCH  26  29
HETATM   29  O   UNL     1       7.835  33.259  64.357  1.00  0.00    -0.356 OA
HETATM   30  C   UNL     1       6.682  33.731  65.041  1.00  0.00     0.210 C 
ENDBRANCH  26  29
ENDBRANCH  22  23
ENDBRANCH  21  22
ENDBRANCH  18  21
ENDBRANCH  13  14
ENDBRANCH   8  13
BRANCH   9  31
HETATM   31  N   UNL     1       6.615  25.783  53.006  1.00  0.00    -0.274 NA
HETATM   32  H   UNL     1       7.123  26.121  53.834  1.00  0.00     0.129 HD
BRANCH  31  33
HETATM   33  C   UNL     1       6.130  24.434  53.349  1.00  0.00     0.130 C 
BRANCH  33  34
HETATM   34  C   UNL     1       6.870  23.865  54.585  1.00  0.00     0.164 C 
BRANCH  34  35
HETATM   35  O   UNL     1       7.847  24.811  55.047  1.00  0.00    -0.390 OA
HETATM   36  H   UNL     1       8.304  25.154  54.260  1.00  0.00     0.210 HD
ENDBRANCH  34  35
BRANCH  34  37
HETATM   37  C   UNL     1       7.515  22.510  54.366  1.00  0.00    -0.029 A 
HETATM   38  C   UNL     1       7.796  21.680  55.461  1.00  0.00     0.010 A 
HETATM   39  C   UNL     1       8.400  20.435  55.274  1.00  0.00     0.001 A 
HETATM   40  C   UNL     1       8.733  20.005  53.992  1.00  0.00     0.000 A 
HETATM   41  C   UNL     1       8.461  20.818  52.894  1.00  0.00     0.001 A 
HETATM   42  C   UNL     1       7.856  22.062  53.080  1.00  0.00     0.010 A 
ENDBRANCH  34  37
ENDBRANCH  33  34
ENDBRANCH  31  33
ENDBRANCH   9  31
TORSDOF 11
ENDMDL
MODEL 2
REMARK VINA RESULT:     -10.4      2.259      5.812
REMARK  11 active torsions:
REMARK  status: ('A' for Active; 'I' for Inactive)
REMARK    1  A    between atoms: C_8  and  C_9 
REMARK    2  A    between atoms: C_9  and  C_10 
REMARK    3  A    between atoms: N_14  and  C_15 
REMARK    4  A    between atoms: C_15  and  C_16 
REMARK    5  A    between atoms: C_16  and  C_17 
REMARK    6  A    between atoms: C_20  and  O_21 
REMARK    7  A    between atoms: C_27  and  N_28 
REMARK    8  A    between atoms: N_28  and  C_29 
REMARK    9  A    between atoms: C_29  and  C_30 
REMARK   10  A    between atoms: C_30  and  O_31 
REMARK   11  A    between atoms: C_30  and  C_32 
ROOT
HETATM    1  C   UNL     1       6.826  23.544  53.302  1.00  0.00     0.052 C 
HETATM    2  C   UNL     1       7.390  23.868  54.650  1.00  0.00    -0.015 A 
HETATM    3  C   UNL     1       7.450  25.318  55.052  1.00  0.00     0.144 A 
HETATM    4  N   UNL     1       7.057  26.223  54.214  1.00  0.00    -0.217 NA
HETATM    5  N   UNL     1       7.924  25.600  56.320  1.00  0.00    -0.272 N 
HETATM    6  C   UNL     1       7.930  26.910  56.769  1.00  0.00     0.266 C 
HETATM    7  O   UNL     1       8.189  27.238  57.931  1.00  0.00    -0.267 OA
HETATM    8  C   UNL     1       7.580  27.959  55.761  1.00  0.00     0.074 C 
HETATM    9  C   UNL     1       7.141  27.546  54.551  1.00  0.00     0.121 C 
HETATM   10  C   UNL     1       8.362  24.591  57.168  1.00  0.00     0.102 A 
HETATM   11  C   UNL     1       8.347  23.305  56.801  1.00  0.00     0.018 A 
HETATM   12  C   UNL     1       7.838  22.937  55.507  1.00  0.00     0.012 A 
ENDROOT
BRANCH   8  13
HETATM   13  C   UNL     1       7.772  29.356  56.127  1.00  0.00     0.045 C 
BRANCH  13  14
HETATM   14  C   UNL     1       7.055  30.037  57.032  1.00  0.00     0.077 A 
HETATM   15  S   UNL     1       5.350  30.183  57.122  1.00  0.00    -0.055 SA
HETATM   16  C   UNL     1       5.429  31.266  58.502  1.00  0.00     0.148 A 
HETATM   17  S   UNL     1       4.050  31.941  59.163  1.00  0.00    -0.052 SA
HETATM   18  N   UNL     1       6.745  31.434  58.911  1.00  0.00    -0.298 N 
HETATM   19  C   UNL     1       7.701  30.802  58.133  1.00  0.00     0.266 A 
HETATM   20  O   UNL     1       8.914  30.835  58.280  1.00  0.00    -0.266 OA
BRANCH  18  21
HETATM   21  C   UNL     1       7.071  32.248  60.096  1.00  0.00     0.138 C 
BRANCH  21  22
HETATM   22  C   UNL     1       7.464  31.539  61.398  1.00  0.00     0.059 C 
BRANCH  22  23
HETATM   23  C   UNL     1       7.047  32.218  62.690  1.00  0.00    -0.057 A 
HETATM   24  C   UNL     1       7.940  32.813  63.588  1.00  0.00     0.010 A 
HETATM   25  C   UNL     1       7.469  33.463  64.734  1.00  0.00     0.037 A 
HETATM   26  C   UNL     1       6.104  33.537  65.008  1.00  0.00     0.068 A 
HETATM   27  C   UNL     1       5.206  32.934  64.131  1.00  0.00     0.037 A 
HETATM   28  C   UNL     1       5.674  32.283  62.984  1.00  0.00     0.010 A 
BRANCH  26  29
HETATM   29  O   UNL     1       5.784  34.217  66.150  1.00  0.00    -0.356 OA
HETATM   30  C   UNL     1       4.441  34.105  66.606  1.00  0.00     0.210 C 
ENDBRANCH  26  29
ENDBRANCH  22  23
ENDBRANCH  21  22
ENDBRANCH  18  21
ENDBRANCH  13  14
ENDBRANCH   8  13
BRANCH   9  31
HETATM   31  N   UNL     1       6.798  28.424  53.524  1.00  0.00    -0.274 NA
HETATM   32  H   UNL     1       7.653  28.504  52.959  1.00  0.00     0.129 HD
BRANCH  31  33
HETATM   33  C   UNL     1       5.710  28.124  52.576  1.00  0.00     0.130 C 
BRANCH  33  34
HETATM   34  C   UNL     1       5.871  28.925  51.260  1.00  0.00     0.164 C 
BRANCH  34  35
HETATM   35  O   UNL     1       5.244  30.210  51.391  1.00  0.00    -0.390 OA
HETATM   36  H   UNL     1       5.606  30.775  50.687  1.00  0.00     0.210 HD
ENDBRANCH  34  35
BRANCH  34  37
HETATM   37  C   UNL     1       5.359  28.213  50.022  1.00  0.00    -0.029 A 
HETATM   38  C   UNL     1       4.806  26.929  50.128  1.00  0.00     0.010 A 
HETATM   39  C   UNL     1       4.342  26.258  48.995  1.00  0.00     0.001 A 
HETATM   40  C   UNL     1       4.428  26.861  47.742  1.00  0.00     0.000 A 
HETATM   41  C   UNL     1       4.974  28.136  47.621  1.00  0.00     0.001 A 
HETATM   42  C   UNL     1       5.437  28.808  48.753  1.00  0.00     0.010 A 
ENDBRANCH  34  37
ENDBRANCH  33  34
ENDBRANCH  31  33
ENDBRANCH   9  31
TORSDOF 11
ENDMDL
MODEL 3
REMARK VINA RESULT:     -10.3      1.743      5.642
REMARK  11 active torsions:
REMARK  status: ('A' for Active; 'I' for Inactive)
REMARK    1  A    between atoms: C_8  and  C_9 
REMARK    2  A    between atoms: C_9  and  C_10 
REMARK    3  A    between atoms: N_14  and  C_15 
REMARK    4  A    between atoms: C_15  and  C_16 
REMARK    5  A    between atoms: C_16  and  C_17 
REMARK    6  A    between atoms: C_20  and  O_21 
REMARK    7  A    between atoms: C_27  and  N_28 
REMARK    8  A    between atoms: N_28  and  C_29 
REMARK    9  A    between atoms: C_29  and  C_30 
REMARK   10  A    between atoms: C_30  and  O_31 
REMARK   11  A    between atoms: C_30  and  C_32 
ROOT
HETATM    1  C   UNL     1       7.930  22.344  52.860  1.00  0.00     0.052 C 
HETATM    2  C   UNL     1       8.030  22.702  54.310  1.00  0.00    -0.015 A 
HETATM    3  C   UNL     1       7.588  24.081  54.720  1.00  0.00     0.144 A 
HETATM    4  N   UNL     1       7.184  24.912  53.814  1.00  0.00    -0.217 NA
HETATM    5  N   UNL     1       7.635  24.382  56.070  1.00  0.00    -0.272 N 
HETATM    6  C   UNL     1       7.170  25.609  56.511  1.00  0.00     0.266 C 
HETATM    7  O   UNL     1       7.030  25.906  57.701  1.00  0.00    -0.267 OA
HETATM    8  C   UNL     1       6.808  26.602  55.451  1.00  0.00     0.074 C 
HETATM    9  C   UNL     1       6.815  26.182  54.167  1.00  0.00     0.121 C 
HETATM   10  C   UNL     1       8.107  23.463  56.998  1.00  0.00     0.102 A 
HETATM   11  C   UNL     1       8.537  22.250  56.633  1.00  0.00     0.018 A 
HETATM   12  C   UNL     1       8.488  21.860  55.250  1.00  0.00     0.012 A 
ENDROOT
BRANCH   8  13
HETATM   13  C   UNL     1       6.512  27.968  55.861  1.00  0.00     0.045 C 
BRANCH  13  14
HETATM   14  C   UNL     1       7.363  28.809  56.465  1.00  0.00     0.077 A 
HETATM   15  S   UNL     1       9.021  29.055  56.110  1.00  0.00    -0.055 SA
HETATM   16  C   UNL     1       9.222  30.203  57.423  1.00  0.00     0.148 A 
HETATM   17  S   UNL     1      10.711  30.878  57.775  1.00  0.00    -0.052 SA
HETATM   18  N   UNL     1       8.008  30.431  58.057  1.00  0.00    -0.298 N 
HETATM   19  C   UNL     1       6.939  29.680  57.596  1.00  0.00     0.266 A 
HETATM   20  O   UNL     1       5.792  29.688  58.018  1.00  0.00    -0.266 OA
BRANCH  18  21
HETATM   21  C   UNL     1       7.899  31.410  59.154  1.00  0.00     0.138 C 
BRANCH  21  22
HETATM   22  C   UNL     1       8.147  30.942  60.593  1.00  0.00     0.059 C 
BRANCH  22  23
HETATM   23  C   UNL     1       7.564  31.806  61.696  1.00  0.00    -0.057 A 
HETATM   24  C   UNL     1       6.240  32.256  61.724  1.00  0.00     0.010 A 
HETATM   25  C   UNL     1       5.765  33.007  62.805  1.00  0.00     0.037 A 
HETATM   26  C   UNL     1       6.597  33.323  63.879  1.00  0.00     0.068 A 
HETATM   27  C   UNL     1       7.922  32.896  63.855  1.00  0.00     0.037 A 
HETATM   28  C   UNL     1       8.398  32.144  62.776  1.00  0.00     0.010 A 
BRANCH  26  29
HETATM   29  O   UNL     1       5.999  34.047  64.873  1.00  0.00    -0.356 OA
HETATM   30  C   UNL     1       4.649  33.722  65.178  1.00  0.00     0.210 C 
ENDBRANCH  26  29
ENDBRANCH  22  23
ENDBRANCH  21  22
ENDBRANCH  18  21
ENDBRANCH  13  14
ENDBRANCH   8  13
BRANCH   9  31
HETATM   31  N   UNL     1       6.512  27.012  53.090  1.00  0.00    -0.274 NA
HETATM   32  H   UNL     1       7.207  26.768  52.374  1.00  0.00     0.129 HD
BRANCH  31  33
HETATM   33  C   UNL     1       5.201  26.967  52.418  1.00  0.00     0.130 C 
BRANCH  33  34
HETATM   34  C   UNL     1       5.275  26.171  51.091  1.00  0.00     0.164 C 
BRANCH  34  35
HETATM   35  O   UNL     1       6.579  25.587  50.944  1.00  0.00    -0.390 OA
HETATM   36  H   UNL     1       6.466  24.623  50.997  1.00  0.00     0.210 HD
ENDBRANCH  34  35
BRANCH  34  37
HETATM   37  C   UNL     1       4.915  26.971  49.854  1.00  0.00    -0.029 A 
HETATM   38  C   UNL     1       4.171  26.377  48.824  1.00  0.00     0.010 A 
HETATM   39  C   UNL     1       3.843  27.099  47.675  1.00  0.00     0.001 A 
HETATM   40  C   UNL     1       4.257  28.422  47.539  1.00  0.00     0.000 A 
HETATM   41  C   UNL     1       4.995  29.026  48.553  1.00  0.00     0.001 A 
HETATM   42  C   UNL     1       5.322  28.306  49.704  1.00  0.00     0.010 A 
ENDBRANCH  34  37
ENDBRANCH  33  34
ENDBRANCH  31  33
ENDBRANCH   9  31
TORSDOF 11
ENDMDL
MODEL 4
REMARK VINA RESULT:     -10.3      2.041      2.793
REMARK  11 active torsions:
REMARK  status: ('A' for Active; 'I' for Inactive)
REMARK    1  A    between atoms: C_8  and  C_9 
REMARK    2  A    between atoms: C_9  and  C_10 
REMARK    3  A    between atoms: N_14  and  C_15 
REMARK    4  A    between atoms: C_15  and  C_16 
REMARK    5  A    between atoms: C_16  and  C_17 
REMARK    6  A    between atoms: C_20  and  O_21 
REMARK    7  A    between atoms: C_27  and  N_28 
REMARK    8  A    between atoms: N_28  and  C_29 
REMARK    9  A    between atoms: C_29  and  C_30 
REMARK   10  A    between atoms: C_30  and  O_31 
REMARK   11  A    between atoms: C_30  and  C_32 
ROOT
HETATM    1  C   UNL     1       2.907  24.663  47.772  1.00  0.00     0.052 C 
HETATM    2  C   UNL     1       2.719  26.116  48.077  1.00  0.00    -0.015 A 
HETATM    3  C   UNL     1       3.637  26.740  49.095  1.00  0.00     0.144 A 
HETATM    4  N   UNL     1       4.515  26.001  49.692  1.00  0.00    -0.217 NA
HETATM    5  N   UNL     1       3.488  28.095  49.330  1.00  0.00    -0.272 N 
HETATM    6  C   UNL     1       4.354  28.735  50.199  1.00  0.00     0.266 C 
HETATM    7  O   UNL     1       4.396  29.959  50.353  1.00  0.00    -0.267 OA
HETATM    8  C   UNL     1       5.293  27.857  50.966  1.00  0.00     0.074 C 
HETATM    9  C   UNL     1       5.331  26.545  50.646  1.00  0.00     0.121 C 
HETATM   10  C   UNL     1       2.507  28.836  48.683  1.00  0.00     0.102 A 
HETATM   11  C   UNL     1       1.664  28.277  47.807  1.00  0.00     0.018 A 
HETATM   12  C   UNL     1       1.782  26.879  47.493  1.00  0.00     0.012 A 
ENDROOT
BRANCH   8  13
HETATM   13  C   UNL     1       6.076  28.459  52.037  1.00  0.00     0.045 C 
BRANCH  13  14
HETATM   14  C   UNL     1       5.649  28.698  53.285  1.00  0.00     0.077 A 
HETATM   15  S   UNL     1       4.087  29.201  53.778  1.00  0.00    -0.055 SA
HETATM   16  C   UNL     1       4.557  29.303  55.466  1.00  0.00     0.148 A 
HETATM   17  S   UNL     1       3.492  29.838  56.639  1.00  0.00    -0.052 SA
HETATM   18  N   UNL     1       5.869  28.881  55.630  1.00  0.00    -0.298 N 
HETATM   19  C   UNL     1       6.543  28.551  54.466  1.00  0.00     0.266 A 
HETATM   20  O   UNL     1       7.706  28.188  54.361  1.00  0.00    -0.266 OA
BRANCH  18  21
HETATM   21  C   UNL     1       6.480  28.810  56.969  1.00  0.00     0.138 C 
BRANCH  21  22
HETATM   22  C   UNL     1       7.683  29.708  57.285  1.00  0.00     0.059 C 
BRANCH  22  23
HETATM   23  C   UNL     1       7.579  30.563  58.535  1.00  0.00    -0.057 A 
HETATM   24  C   UNL     1       6.630  31.574  58.717  1.00  0.00     0.010 A 
HETATM   25  C   UNL     1       6.568  32.284  59.921  1.00  0.00     0.037 A 
HETATM   26  C   UNL     1       7.447  32.002  60.966  1.00  0.00     0.068 A 
HETATM   27  C   UNL     1       8.408  31.010  60.791  1.00  0.00     0.037 A 
HETATM   28  C   UNL     1       8.471  30.297  59.588  1.00  0.00     0.010 A 
BRANCH  26  29
HETATM   29  O   UNL     1       7.264  32.759  62.091  1.00  0.00    -0.356 OA
HETATM   30  C   UNL     1       7.944  32.334  63.265  1.00  0.00     0.210 C 
ENDBRANCH  26  29
ENDBRANCH  22  23
ENDBRANCH  21  22
ENDBRANCH  18  21
ENDBRANCH  13  14
ENDBRANCH   8  13
BRANCH   9  31
HETATM   31  N   UNL     1       6.150  25.625  51.296  1.00  0.00    -0.274 NA
HETATM   32  H   UNL     1       7.009  26.149  51.506  1.00  0.00     0.129 HD
BRANCH  31  33
HETATM   33  C   UNL     1       5.748  24.981  52.559  1.00  0.00     0.130 C 
BRANCH  33  34
HETATM   34  C   UNL     1       6.941  24.868  53.540  1.00  0.00     0.164 C 
BRANCH  34  35
HETATM   35  O   UNL     1       8.057  25.620  53.040  1.00  0.00    -0.390 OA
HETATM   36  H   UNL     1       8.664  24.984  52.623  1.00  0.00     0.210 HD
ENDBRANCH  34  35
BRANCH  34  37
HETATM   37  C   UNL     1       7.365  23.446  53.856  1.00  0.00    -0.029 A 
HETATM   38  C   UNL     1       7.329  22.979  55.178  1.00  0.00     0.010 A 
HETATM   39  C   UNL     1       7.728  21.676  55.484  1.00  0.00     0.001 A 
HETATM   40  C   UNL     1       8.170  20.826  54.473  1.00  0.00     0.000 A 
HETATM   41  C   UNL     1       8.212  21.275  53.156  1.00  0.00     0.001 A 
HETATM   42  C   UNL     1       7.812  22.576  52.849  1.00  0.00     0.010 A 
ENDBRANCH  34  37
ENDBRANCH  33  34
ENDBRANCH  31  33
ENDBRANCH   9  31
TORSDOF 11
ENDMDL
MODEL 5
REMARK VINA RESULT:     -10.2      2.010      5.972
REMARK  11 active torsions:
REMARK  status: ('A' for Active; 'I' for Inactive)
REMARK    1  A    between atoms: C_8  and  C_9 
REMARK    2  A    between atoms: C_9  and  C_10 
REMARK    3  A    between atoms: N_14  and  C_15 
REMARK    4  A    between atoms: C_15  and  C_16 
REMARK    5  A    between atoms: C_16  and  C_17 
REMARK    6  A    between atoms: C_20  and  O_21 
REMARK    7  A    between atoms: C_27  and  N_28 
REMARK    8  A    between atoms: N_28  and  C_29 
REMARK    9  A    between atoms: C_29  and  C_30 
REMARK   10  A    between atoms: C_30  and  O_31 
REMARK   11  A    between atoms: C_30  and  C_32 
ROOT
HETATM    1  C   UNL     1       7.654  20.703  52.982  1.00  0.00     0.052 C 
HETATM    2  C   UNL     1       7.922  21.419  54.268  1.00  0.00    -0.015 A 
HETATM    3  C   UNL     1       7.788  22.919  54.273  1.00  0.00     0.144 A 
HETATM    4  N   UNL     1       7.492  23.531  53.172  1.00  0.00    -0.217 NA
HETATM    5  N   UNL     1       7.987  23.565  55.480  1.00  0.00    -0.272 N 
HETATM    6  C   UNL     1       7.802  24.935  55.558  1.00  0.00     0.266 C 
HETATM    7  O   UNL     1       7.806  25.571  56.616  1.00  0.00    -0.267 OA
HETATM    8  C   UNL     1       7.568  25.648  54.264  1.00  0.00     0.074 C 
HETATM    9  C   UNL     1       7.404  24.897  53.152  1.00  0.00     0.121 C 
HETATM   10  C   UNL     1       8.333  22.862  56.627  1.00  0.00     0.102 A 
HETATM   11  C   UNL     1       8.491  21.533  56.618  1.00  0.00     0.018 A 
HETATM   12  C   UNL     1       8.271  20.795  55.404  1.00  0.00     0.012 A 
ENDROOT
BRANCH   8  13
HETATM   13  C   UNL     1       7.574  27.105  54.270  1.00  0.00     0.045 C 
BRANCH  13  14
HETATM   14  C   UNL     1       6.968  27.889  55.172  1.00  0.00     0.077 A 
HETATM   15  S   UNL     1       5.295  27.966  55.536  1.00  0.00    -0.055 SA
HETATM   16  C   UNL     1       5.519  29.263  56.699  1.00  0.00     0.148 A 
HETATM   17  S   UNL     1       4.222  29.969  57.481  1.00  0.00    -0.052 SA
HETATM   18  N   UNL     1       6.868  29.559  56.840  1.00  0.00    -0.298 N 
HETATM   19  C   UNL     1       7.727  28.855  56.012  1.00  0.00     0.266 A 
HETATM   20  O   UNL     1       8.942  28.970  55.938  1.00  0.00    -0.266 OA
BRANCH  18  21
HETATM   21  C   UNL     1       7.323  30.571  57.810  1.00  0.00     0.138 C 
BRANCH  21  22
HETATM   22  C   UNL     1       8.359  30.171  58.869  1.00  0.00     0.059 C 
BRANCH  22  23
HETATM   23  C   UNL     1       8.260  30.872  60.212  1.00  0.00    -0.057 A 
HETATM   24  C   UNL     1       8.957  30.475  61.358  1.00  0.00     0.010 A 
HETATM   25  C   UNL     1       8.850  31.207  62.545  1.00  0.00     0.037 A 
HETATM   26  C   UNL     1       8.051  32.348  62.615  1.00  0.00     0.068 A 
HETATM   27  C   UNL     1       7.339  32.744  61.487  1.00  0.00     0.037 A 
HETATM   28  C   UNL     1       7.445  32.013  60.297  1.00  0.00     0.010 A 
BRANCH  26  29
HETATM   29  O   UNL     1       8.052  32.976  63.830  1.00  0.00    -0.356 OA
HETATM   30  C   UNL     1       6.783  33.271  64.399  1.00  0.00     0.210 C 
ENDBRANCH  26  29
ENDBRANCH  22  23
ENDBRANCH  21  22
ENDBRANCH  18  21
ENDBRANCH  13  14
ENDBRANCH   8  13
BRANCH   9  31
HETATM   31  N   UNL     1       7.195  25.441  51.887  1.00  0.00    -0.274 NA
HETATM   32  H   UNL     1       7.758  24.855  51.259  1.00  0.00     0.129 HD
BRANCH  31  33
HETATM   33  C   UNL     1       5.852  25.511  51.283  1.00  0.00     0.130 C 
BRANCH  33  34
HETATM   34  C   UNL     1       5.327  26.968  51.242  1.00  0.00     0.164 C 
BRANCH  34  35
HETATM   35  O   UNL     1       4.221  27.114  52.147  1.00  0.00    -0.390 OA
HETATM   36  H   UNL     1       4.476  27.789  52.800  1.00  0.00     0.210 HD
ENDBRANCH  34  35
BRANCH  34  37
HETATM   37  C   UNL     1       4.943  27.461  49.860  1.00  0.00    -0.029 A 
HETATM   38  C   UNL     1       5.348  28.733  49.430  1.00  0.00     0.010 A 
HETATM   39  C   UNL     1       4.991  29.205  48.165  1.00  0.00     0.001 A 
HETATM   40  C   UNL     1       4.223  28.412  47.316  1.00  0.00     0.000 A 
HETATM   41  C   UNL     1       3.812  27.147  47.728  1.00  0.00     0.001 A 
HETATM   42  C   UNL     1       4.170  26.674  48.992  1.00  0.00     0.010 A 
ENDBRANCH  34  37
ENDBRANCH  33  34
ENDBRANCH  31  33
ENDBRANCH   9  31
TORSDOF 11
ENDMDL
MODEL 6
REMARK VINA RESULT:     -10.0      2.979      9.293
REMARK  11 active torsions:
REMARK  status: ('A' for Active; 'I' for Inactive)
REMARK    1  A    between atoms: C_8  and  C_9 
REMARK    2  A    between atoms: C_9  and  C_10 
REMARK    3  A    between atoms: N_14  and  C_15 
REMARK    4  A    between atoms: C_15  and  C_16 
REMARK    5  A    between atoms: C_16  and  C_17 
REMARK    6  A    between atoms: C_20  and  O_21 
REMARK    7  A    between atoms: C_27  and  N_28 
REMARK    8  A    between atoms: N_28  and  C_29 
REMARK    9  A    between atoms: C_29  and  C_30 
REMARK   10  A    between atoms: C_30  and  O_31 
REMARK   11  A    between atoms: C_30  and  C_32 
ROOT
HETATM    1  C   UNL     1      10.717  29.429  56.874  1.00  0.00     0.052 C 
HETATM    2  C   UNL     1       9.530  29.963  57.612  1.00  0.00    -0.015 A 
HETATM    3  C   UNL     1       8.171  29.746  57.001  1.00  0.00     0.144 A 
HETATM    4  N   UNL     1       8.081  29.153  55.855  1.00  0.00    -0.217 NA
HETATM    5  N   UNL     1       7.078  30.199  57.719  1.00  0.00    -0.272 N 
HETATM    6  C   UNL     1       5.802  29.959  57.239  1.00  0.00     0.266 C 
HETATM    7  O   UNL     1       4.772  30.187  57.880  1.00  0.00    -0.267 OA
HETATM    8  C   UNL     1       5.709  29.372  55.866  1.00  0.00     0.074 C 
HETATM    9  C   UNL     1       6.856  28.982  55.269  1.00  0.00     0.121 C 
HETATM   10  C   UNL     1       7.234  30.858  58.931  1.00  0.00     0.102 A 
HETATM   11  C   UNL     1       8.442  31.087  59.459  1.00  0.00     0.018 A 
HETATM   12  C   UNL     1       9.619  30.618  58.781  1.00  0.00     0.012 A 
ENDROOT
BRANCH   8  13
HETATM   13  C   UNL     1       4.396  29.294  55.239  1.00  0.00     0.045 C 
BRANCH  13  14
HETATM   14  C   UNL     1       3.850  30.221  54.440  1.00  0.00     0.077 A 
HETATM   15  S   UNL     1       3.021  31.647  54.904  1.00  0.00    -0.055 SA
HETATM   16  C   UNL     1       2.661  32.083  53.242  1.00  0.00     0.148 A 
HETATM   17  S   UNL     1       1.744  33.431  52.871  1.00  0.00    -0.052 SA
HETATM   18  N   UNL     1       3.242  31.176  52.367  1.00  0.00    -0.298 N 
HETATM   19  C   UNL     1       3.897  30.107  52.956  1.00  0.00     0.266 A 
HETATM   20  O   UNL     1       4.451  29.175  52.391  1.00  0.00    -0.266 OA
BRANCH  18  21
HETATM   21  C   UNL     1       3.140  31.361  50.908  1.00  0.00     0.138 C 
BRANCH  21  22
HETATM   22  C   UNL     1       1.993  30.679  50.151  1.00  0.00     0.059 C 
BRANCH  22  23
HETATM   23  C   UNL     1       2.358  29.462  49.321  1.00  0.00    -0.057 A 
HETATM   24  C   UNL     1       1.496  28.387  49.082  1.00  0.00     0.010 A 
HETATM   25  C   UNL     1       1.892  27.325  48.262  1.00  0.00     0.037 A 
HETATM   26  C   UNL     1       3.151  27.313  47.662  1.00  0.00     0.068 A 
HETATM   27  C   UNL     1       4.025  28.369  47.905  1.00  0.00     0.037 A 
HETATM   28  C   UNL     1       3.631  29.433  48.724  1.00  0.00     0.010 A 
BRANCH  26  29
HETATM   29  O   UNL     1       3.400  26.224  46.872  1.00  0.00    -0.356 OA
HETATM   30  C   UNL     1       3.053  24.954  47.407  1.00  0.00     0.210 C 
ENDBRANCH  26  29
ENDBRANCH  22  23
ENDBRANCH  21  22
ENDBRANCH  18  21
ENDBRANCH  13  14
ENDBRANCH   8  13
BRANCH   9  31
HETATM   31  N   UNL     1       6.903  28.436  53.988  1.00  0.00    -0.274 NA
HETATM   32  H   UNL     1       7.312  29.179  53.406  1.00  0.00     0.129 HD
BRANCH  31  33
HETATM   33  C   UNL     1       7.674  27.216  53.690  1.00  0.00     0.130 C 
BRANCH  33  34
HETATM   34  C   UNL     1       6.766  26.100  53.116  1.00  0.00     0.164 C 
BRANCH  34  35
HETATM   35  O   UNL     1       5.392  26.380  53.429  1.00  0.00    -0.390 OA
HETATM   36  H   UNL     1       4.936  26.540  52.585  1.00  0.00     0.210 HD
ENDBRANCH  34  35
BRANCH  34  37
HETATM   37  C   UNL     1       7.131  24.697  53.563  1.00  0.00    -0.029 A 
HETATM   38  C   UNL     1       7.660  23.782  52.642  1.00  0.00     0.010 A 
HETATM   39  C   UNL     1       7.990  22.483  53.037  1.00  0.00     0.001 A 
HETATM   40  C   UNL     1       7.792  22.084  54.356  1.00  0.00     0.000 A 
HETATM   41  C   UNL     1       7.267  22.981  55.283  1.00  0.00     0.001 A 
HETATM   42  C   UNL     1       6.939  24.280  54.889  1.00  0.00     0.010 A 
ENDBRANCH  34  37
ENDBRANCH  33  34
ENDBRANCH  31  33
ENDBRANCH   9  31
TORSDOF 11
ENDMDL
MODEL 7
REMARK VINA RESULT:     -10.0      3.177      4.418
REMARK  11 active torsions:
REMARK  status: ('A' for Active; 'I' for Inactive)
REMARK    1  A    between atoms: C_8  and  C_9 
REMARK    2  A    between atoms: C_9  and  C_10 
REMARK    3  A    between atoms: N_14  and  C_15 
REMARK    4  A    between atoms: C_15  and  C_16 
REMARK    5  A    between atoms: C_16  and  C_17 
REMARK    6  A    between atoms: C_20  and  O_21 
REMARK    7  A    between atoms: C_27  and  N_28 
REMARK    8  A    between atoms: N_28  and  C_29 
REMARK    9  A    between atoms: C_29  and  C_30 
REMARK   10  A    between atoms: C_30  and  O_31 
REMARK   11  A    between atoms: C_30  and  C_32 
ROOT
HETATM    1  C   UNL     1       3.086  24.617  47.911  1.00  0.00     0.052 C 
HETATM    2  C   UNL     1       2.688  26.057  47.829  1.00  0.00    -0.015 A 
HETATM    3  C   UNL     1       3.373  27.024  48.758  1.00  0.00     0.144 A 
HETATM    4  N   UNL     1       4.238  26.578  49.611  1.00  0.00    -0.217 NA
HETATM    5  N   UNL     1       3.035  28.360  48.636  1.00  0.00    -0.272 N 
HETATM    6  C   UNL     1       3.689  29.302  49.413  1.00  0.00     0.266 C 
HETATM    7  O   UNL     1       3.565  30.521  49.266  1.00  0.00    -0.267 OA
HETATM    8  C   UNL     1       4.605  28.770  50.470  1.00  0.00     0.074 C 
HETATM    9  C   UNL     1       4.840  27.439  50.487  1.00  0.00     0.121 C 
HETATM   10  C   UNL     1       2.077  28.782  47.724  1.00  0.00     0.102 A 
HETATM   11  C   UNL     1       1.438  27.921  46.924  1.00  0.00     0.018 A 
HETATM   12  C   UNL     1       1.762  26.521  46.976  1.00  0.00     0.012 A 
ENDROOT
BRANCH   8  13
HETATM   13  C   UNL     1       5.152  29.708  51.441  1.00  0.00     0.045 C 
BRANCH  13  14
HETATM   14  C   UNL     1       4.569  30.081  52.589  1.00  0.00     0.077 A 
HETATM   15  S   UNL     1       3.660  31.502  52.888  1.00  0.00    -0.055 SA
HETATM   16  C   UNL     1       3.437  31.108  54.584  1.00  0.00     0.148 A 
HETATM   17  S   UNL     1       2.641  32.145  55.625  1.00  0.00    -0.052 SA
HETATM   18  N   UNL     1       3.993  29.869  54.870  1.00  0.00    -0.298 N 
HETATM   19  C   UNL     1       4.655  29.251  53.822  1.00  0.00     0.266 A 
HETATM   20  O   UNL     1       5.244  28.180  53.847  1.00  0.00    -0.266 OA
BRANCH  18  21
HETATM   21  C   UNL     1       3.879  29.280  56.217  1.00  0.00     0.138 C 
BRANCH  21  22
HETATM   22  C   UNL     1       4.964  28.307  56.696  1.00  0.00     0.059 C 
BRANCH  22  23
HETATM   23  C   UNL     1       6.274  28.924  57.150  1.00  0.00    -0.057 A 
HETATM   24  C   UNL     1       6.370  30.117  57.875  1.00  0.00     0.010 A 
HETATM   25  C   UNL     1       7.616  30.593  58.301  1.00  0.00     0.037 A 
HETATM   26  C   UNL     1       8.787  29.892  58.016  1.00  0.00     0.068 A 
HETATM   27  C   UNL     1       8.706  28.713  57.281  1.00  0.00     0.037 A 
HETATM   28  C   UNL     1       7.462  28.234  56.854  1.00  0.00     0.010 A 
BRANCH  26  29
HETATM   29  O   UNL     1       9.930  30.461  58.507  1.00  0.00    -0.356 OA
HETATM   30  C   UNL     1       9.812  31.772  59.044  1.00  0.00     0.210 C 
ENDBRANCH  26  29
ENDBRANCH  22  23
ENDBRANCH  21  22
ENDBRANCH  18  21
ENDBRANCH  13  14
ENDBRANCH   8  13
BRANCH   9  31
HETATM   31  N   UNL     1       5.661  26.822  51.428  1.00  0.00    -0.274 NA
HETATM   32  H   UNL     1       5.221  27.036  52.332  1.00  0.00     0.129 HD
BRANCH  31  33
HETATM   33  C   UNL     1       5.890  25.366  51.424  1.00  0.00     0.130 C 
BRANCH  33  34
HETATM   34  C   UNL     1       5.299  24.697  52.690  1.00  0.00     0.164 C 
BRANCH  34  35
HETATM   35  O   UNL     1       4.257  25.521  53.235  1.00  0.00    -0.390 OA
HETATM   36  H   UNL     1       3.414  25.175  52.894  1.00  0.00     0.210 HD
ENDBRANCH  34  35
BRANCH  34  37
HETATM   37  C   UNL     1       6.319  24.362  53.761  1.00  0.00    -0.029 A 
HETATM   38  C   UNL     1       7.326  23.421  53.503  1.00  0.00     0.010 A 
HETATM   39  C   UNL     1       8.264  23.095  54.485  1.00  0.00     0.001 A 
HETATM   40  C   UNL     1       8.205  23.703  55.737  1.00  0.00     0.000 A 
HETATM   41  C   UNL     1       7.211  24.639  56.008  1.00  0.00     0.001 A 
HETATM   42  C   UNL     1       6.274  24.967  55.027  1.00  0.00     0.010 A 
ENDBRANCH  34  37
ENDBRANCH  33  34
ENDBRANCH  31  33
ENDBRANCH   9  31
TORSDOF 11
ENDMDL
MODEL 8
REMARK VINA RESULT:     -10.0      2.605     10.472
REMARK  11 active torsions:
REMARK  status: ('A' for Active; 'I' for Inactive)
REMARK    1  A    between atoms: C_8  and  C_9 
REMARK    2  A    between atoms: C_9  and  C_10 
REMARK    3  A    between atoms: N_14  and  C_15 
REMARK    4  A    between atoms: C_15  and  C_16 
REMARK    5  A    between atoms: C_16  and  C_17 
REMARK    6  A    between atoms: C_20  and  O_21 
REMARK    7  A    between atoms: C_27  and  N_28 
REMARK    8  A    between atoms: N_28  and  C_29 
REMARK    9  A    between atoms: C_29  and  C_30 
REMARK   10  A    between atoms: C_30  and  O_31 
REMARK   11  A    between atoms: C_30  and  C_32 
ROOT
HETATM    1  C   UNL     1       8.476  32.675  60.161  1.00  0.00     0.052 C 
HETATM    2  C   UNL     1       8.922  31.683  59.133  1.00  0.00    -0.015 A 
HETATM    3  C   UNL     1       7.856  30.937  58.375  1.00  0.00     0.144 A 
HETATM    4  N   UNL     1       6.612  31.144  58.664  1.00  0.00    -0.217 NA
HETATM    5  N   UNL     1       8.280  30.062  57.390  1.00  0.00    -0.272 N 
HETATM    6  C   UNL     1       7.341  29.406  56.612  1.00  0.00     0.266 C 
HETATM    7  O   UNL     1       7.622  28.730  55.618  1.00  0.00    -0.267 OA
HETATM    8  C   UNL     1       5.911  29.565  57.023  1.00  0.00     0.074 C 
HETATM    9  C   UNL     1       5.634  30.445  58.010  1.00  0.00     0.121 C 
HETATM   10  C   UNL     1       9.630  29.854  57.141  1.00  0.00     0.102 A 
HETATM   11  C   UNL     1      10.581  30.486  57.839  1.00  0.00     0.018 A 
HETATM   12  C   UNL     1      10.211  31.432  58.857  1.00  0.00     0.012 A 
ENDROOT
BRANCH   8  13
HETATM   13  C   UNL     1       4.910  28.734  56.366  1.00  0.00     0.045 C 
BRANCH  13  14
HETATM   14  C   UNL     1       4.963  28.291  55.102  1.00  0.00     0.077 A 
HETATM   15  S   UNL     1       4.701  29.189  53.666  1.00  0.00    -0.055 SA
HETATM   16  C   UNL     1       4.902  27.777  52.643  1.00  0.00     0.148 A 
HETATM   17  S   UNL     1       4.705  27.864  50.985  1.00  0.00    -0.052 SA
HETATM   18  N   UNL     1       5.237  26.668  53.407  1.00  0.00    -0.298 N 
HETATM   19  C   UNL     1       5.269  26.871  54.777  1.00  0.00     0.266 A 
HETATM   20  O   UNL     1       5.505  26.041  55.643  1.00  0.00    -0.266 OA
BRANCH  18  21
HETATM   21  C   UNL     1       5.525  25.369  52.773  1.00  0.00     0.138 C 
BRANCH  21  22
HETATM   22  C   UNL     1       6.978  25.016  52.432  1.00  0.00     0.059 C 
BRANCH  22  23
HETATM   23  C   UNL     1       7.621  23.920  53.262  1.00  0.00    -0.057 A 
HETATM   24  C   UNL     1       8.012  24.073  54.596  1.00  0.00     0.010 A 
HETATM   25  C   UNL     1       8.552  22.996  55.308  1.00  0.00     0.037 A 
HETATM   26  C   UNL     1       8.710  21.747  54.709  1.00  0.00     0.068 A 
HETATM   27  C   UNL     1       8.341  21.586  53.377  1.00  0.00     0.037 A 
HETATM   28  C   UNL     1       7.800  22.661  52.662  1.00  0.00     0.010 A 
BRANCH  26  29
HETATM   29  O   UNL     1       9.233  20.782  55.524  1.00  0.00    -0.356 OA
HETATM   30  C   UNL     1       8.701  20.699  56.840  1.00  0.00     0.210 C 
ENDBRANCH  26  29
ENDBRANCH  22  23
ENDBRANCH  21  22
ENDBRANCH  18  21
ENDBRANCH  13  14
ENDBRANCH   8  13
BRANCH   9  31
HETATM   31  N   UNL     1       4.346  30.671  58.491  1.00  0.00    -0.274 NA
HETATM   32  H   UNL     1       4.286  30.101  59.344  1.00  0.00     0.129 HD
BRANCH  31  33
HETATM   33  C   UNL     1       3.883  32.019  58.870  1.00  0.00     0.130 C 
BRANCH  33  34
HETATM   34  C   UNL     1       3.463  32.074  60.360  1.00  0.00     0.164 C 
BRANCH  34  35
HETATM   35  O   UNL     1       2.205  32.754  60.488  1.00  0.00    -0.390 OA
HETATM   36  H   UNL     1       1.586  32.129  60.904  1.00  0.00     0.210 HD
ENDBRANCH  34  35
BRANCH  34  37
HETATM   37  C   UNL     1       4.493  32.696  61.282  1.00  0.00    -0.029 A 
HETATM   38  C   UNL     1       5.062  31.937  62.316  1.00  0.00     0.010 A 
HETATM   39  C   UNL     1       6.002  32.502  63.180  1.00  0.00     0.001 A 
HETATM   40  C   UNL     1       6.384  33.832  63.023  1.00  0.00     0.000 A 
HETATM   41  C   UNL     1       5.829  34.599  62.002  1.00  0.00     0.001 A 
HETATM   42  C   UNL     1       4.890  34.035  61.137  1.00  0.00     0.010 A 
ENDBRANCH  34  37
ENDBRANCH  33  34
ENDBRANCH  31  33
ENDBRANCH   9  31
TORSDOF 11
ENDMDL
MODEL 9
REMARK VINA RESULT:      -9.9      3.439      9.543
REMARK  11 active torsions:
REMARK  status: ('A' for Active; 'I' for Inactive)
REMARK    1  A    between atoms: C_8  and  C_9 
REMARK    2  A    between atoms: C_9  and  C_10 
REMARK    3  A    between atoms: N_14  and  C_15 
REMARK    4  A    between atoms: C_15  and  C_16 
REMARK    5  A    between atoms: C_16  and  C_17 
REMARK    6  A    between atoms: C_20  and  O_21 
REMARK    7  A    between atoms: C_27  and  N_28 
REMARK    8  A    between atoms: N_28  and  C_29 
REMARK    9  A    between atoms: C_29  and  C_30 
REMARK   10  A    between atoms: C_30  and  O_31 
REMARK   11  A    between atoms: C_30  and  C_32 
ROOT
HETATM    1  C   UNL     1       8.458  26.851  57.353  1.00  0.00     0.052 C 
HETATM    2  C   UNL     1       7.612  28.085  57.307  1.00  0.00    -0.015 A 
HETATM    3  C   UNL     1       6.526  28.148  56.265  1.00  0.00     0.144 A 
HETATM    4  N   UNL     1       6.392  27.168  55.431  1.00  0.00    -0.217 NA
HETATM    5  N   UNL     1       5.717  29.270  56.267  1.00  0.00    -0.272 N 
HETATM    6  C   UNL     1       4.657  29.346  55.380  1.00  0.00     0.266 C 
HETATM    7  O   UNL     1       3.795  30.231  55.411  1.00  0.00    -0.267 OA
HETATM    8  C   UNL     1       4.574  28.264  54.350  1.00  0.00     0.074 C 
HETATM    9  C   UNL     1       5.435  27.228  54.455  1.00  0.00     0.121 C 
HETATM   10  C   UNL     1       5.924  30.309  57.166  1.00  0.00     0.102 A 
HETATM   11  C   UNL     1       6.912  30.274  58.067  1.00  0.00     0.018 A 
HETATM   12  C   UNL     1       7.772  29.124  58.141  1.00  0.00     0.012 A 
ENDROOT
BRANCH   8  13
HETATM   13  C   UNL     1       3.603  28.412  53.274  1.00  0.00     0.045 C 
BRANCH  13  14
HETATM   14  C   UNL     1       3.777  29.123  52.150  1.00  0.00     0.077 A 
HETATM   15  S   UNL     1       3.211  30.705  51.814  1.00  0.00    -0.055 SA
HETATM   16  C   UNL     1       3.846  30.679  50.178  1.00  0.00     0.148 A 
HETATM   17  S   UNL     1       3.603  31.955  49.125  1.00  0.00    -0.052 SA
HETATM   18  N   UNL     1       4.539  29.499  49.946  1.00  0.00    -0.298 N 
HETATM   19  C   UNL     1       4.526  28.581  50.984  1.00  0.00     0.266 A 
HETATM   20  O   UNL     1       5.036  27.470  50.995  1.00  0.00    -0.266 OA
BRANCH  18  21
HETATM   21  C   UNL     1       5.227  29.263  48.663  1.00  0.00     0.138 C 
BRANCH  21  22
HETATM   22  C   UNL     1       4.841  28.035  47.830  1.00  0.00     0.059 C 
BRANCH  22  23
HETATM   23  C   UNL     1       3.373  27.893  47.472  1.00  0.00    -0.057 A 
HETATM   24  C   UNL     1       2.628  26.724  47.663  1.00  0.00     0.010 A 
HETATM   25  C   UNL     1       1.264  26.691  47.354  1.00  0.00     0.037 A 
HETATM   26  C   UNL     1       0.615  27.818  46.852  1.00  0.00     0.068 A 
HETATM   27  C   UNL     1       1.348  28.982  46.641  1.00  0.00     0.037 A 
HETATM   28  C   UNL     1       2.713  29.018  46.950  1.00  0.00     0.010 A 
BRANCH  26  29
HETATM   29  O   UNL     1      -0.721  27.651  46.610  1.00  0.00    -0.356 OA
HETATM   30  C   UNL     1      -1.402  28.741  46.002  1.00  0.00     0.210 C 
ENDBRANCH  26  29
ENDBRANCH  22  23
ENDBRANCH  21  22
ENDBRANCH  18  21
ENDBRANCH  13  14
ENDBRANCH   8  13
BRANCH   9  31
HETATM   31  N   UNL     1       5.468  26.169  53.551  1.00  0.00    -0.274 NA
HETATM   32  H   UNL     1       6.209  26.421  52.886  1.00  0.00     0.129 HD
BRANCH  31  33
HETATM   33  C   UNL     1       5.760  24.789  53.981  1.00  0.00     0.130 C 
BRANCH  33  34
HETATM   34  C   UNL     1       7.184  24.355  53.554  1.00  0.00     0.164 C 
BRANCH  34  35
HETATM   35  O   UNL     1       7.358  24.568  52.144  1.00  0.00    -0.390 OA
HETATM   36  H   UNL     1       6.697  24.017  51.690  1.00  0.00     0.210 HD
ENDBRANCH  34  35
BRANCH  34  37
HETATM   37  C   UNL     1       7.544  22.927  53.917  1.00  0.00    -0.029 A 
HETATM   38  C   UNL     1       7.905  22.016  52.913  1.00  0.00     0.010 A 
HETATM   39  C   UNL     1       8.226  20.695  53.232  1.00  0.00     0.001 A 
HETATM   40  C   UNL     1       8.188  20.268  54.557  1.00  0.00     0.000 A 
HETATM   41  C   UNL     1       7.831  21.160  55.565  1.00  0.00     0.001 A 
HETATM   42  C   UNL     1       7.511  22.481  55.247  1.00  0.00     0.010 A 
ENDBRANCH  34  37
ENDBRANCH  33  34
ENDBRANCH  31  33
ENDBRANCH   9  31
TORSDOF 11
ENDMDL
MODEL 10
REMARK VINA RESULT:      -9.9      3.184      9.868
REMARK  11 active torsions:
REMARK  status: ('A' for Active; 'I' for Inactive)
REMARK    1  A    between atoms: C_8  and  C_9 
REMARK    2  A    between atoms: C_9  and  C_10 
REMARK    3  A    between atoms: N_14  and  C_15 
REMARK    4  A    between atoms: C_15  and  C_16 
REMARK    5  A    between atoms: C_16  and  C_17 
REMARK    6  A    between atoms: C_20  and  O_21 
REMARK    7  A    between atoms: C_27  and  N_28 
REMARK    8  A    between atoms: N_28  and  C_29 
REMARK    9  A    between atoms: C_29  and  C_30 
REMARK   10  A    between atoms: C_30  and  O_31 
REMARK   11  A    between atoms: C_30  and  C_32 
ROOT
HETATM    1  C   UNL     1       8.739  24.767  57.438  1.00  0.00     0.052 C 
HETATM    2  C   UNL     1       8.222  24.233  56.139  1.00  0.00    -0.015 A 
HETATM    3  C   UNL     1       7.203  25.060  55.401  1.00  0.00     0.144 A 
HETATM    4  N   UNL     1       6.783  26.165  55.927  1.00  0.00    -0.217 NA
HETATM    5  N   UNL     1       6.772  24.582  54.176  1.00  0.00    -0.272 N 
HETATM    6  C   UNL     1       5.893  25.339  53.421  1.00  0.00     0.266 C 
HETATM    7  O   UNL     1       5.575  25.069  52.258  1.00  0.00    -0.267 OA
HETATM    8  C   UNL     1       5.329  26.557  54.081  1.00  0.00     0.074 C 
HETATM    9  C   UNL     1       5.829  26.908  55.287  1.00  0.00     0.121 C 
HETATM   10  C   UNL     1       7.233  23.373  53.670  1.00  0.00     0.102 A 
HETATM   11  C   UNL     1       8.109  22.617  54.341  1.00  0.00     0.018 A 
HETATM   12  C   UNL     1       8.621  23.068  55.606  1.00  0.00     0.012 A 
ENDROOT
BRANCH   8  13
HETATM   13  C   UNL     1       4.249  27.267  53.408  1.00  0.00     0.045 C 
BRANCH  13  14
HETATM   14  C   UNL     1       4.326  28.497  52.880  1.00  0.00     0.077 A 
HETATM   15  S   UNL     1       3.579  29.929  53.451  1.00  0.00    -0.055 SA
HETATM   16  C   UNL     1       4.191  30.886  52.112  1.00  0.00     0.148 A 
HETATM   17  S   UNL     1       3.790  32.499  51.935  1.00  0.00    -0.052 SA
HETATM   18  N   UNL     1       5.010  30.113  51.300  1.00  0.00    -0.298 N 
HETATM   19  C   UNL     1       5.115  28.777  51.650  1.00  0.00     0.266 A 
HETATM   20  O   UNL     1       5.748  27.907  51.069  1.00  0.00    -0.266 OA
BRANCH  18  21
HETATM   21  C   UNL     1       5.701  30.705  50.140  1.00  0.00     0.138 C 
BRANCH  21  22
HETATM   22  C   UNL     1       4.976  30.754  48.789  1.00  0.00     0.059 C 
BRANCH  22  23
HETATM   23  C   UNL     1       4.493  29.427  48.232  1.00  0.00    -0.057 A 
HETATM   24  C   UNL     1       5.341  28.403  47.798  1.00  0.00     0.010 A 
HETATM   25  C   UNL     1       4.816  27.188  47.344  1.00  0.00     0.037 A 
HETATM   26  C   UNL     1       3.439  26.968  47.316  1.00  0.00     0.068 A 
HETATM   27  C   UNL     1       2.584  27.985  47.728  1.00  0.00     0.037 A 
HETATM   28  C   UNL     1       3.107  29.201  48.184  1.00  0.00     0.010 A 
BRANCH  26  29
HETATM   29  O   UNL     1       3.065  25.731  46.866  1.00  0.00    -0.356 OA
HETATM   30  C   UNL     1       2.973  24.698  47.839  1.00  0.00     0.210 C 
ENDBRANCH  26  29
ENDBRANCH  22  23
ENDBRANCH  21  22
ENDBRANCH  18  21
ENDBRANCH  13  14
ENDBRANCH   8  13
BRANCH   9  31
HETATM   31  N   UNL     1       5.378  28.010  56.009  1.00  0.00    -0.274 NA
HETATM   32  H   UNL     1       5.239  27.654  56.963  1.00  0.00     0.129 HD
BRANCH  31  33
HETATM   33  C   UNL     1       6.187  29.235  56.146  1.00  0.00     0.130 C 
BRANCH  33  34
HETATM   34  C   UNL     1       6.851  29.319  57.543  1.00  0.00     0.164 C 
BRANCH  34  35
HETATM   35  O   UNL     1       6.102  30.207  58.386  1.00  0.00    -0.390 OA
HETATM   36  H   UNL     1       5.170  29.934  58.329  1.00  0.00     0.210 HD
ENDBRANCH  34  35
BRANCH  34  37
HETATM   37  C   UNL     1       8.313  29.722  57.523  1.00  0.00    -0.029 A 
HETATM   38  C   UNL     1       9.225  29.021  56.720  1.00  0.00     0.010 A 
HETATM   39  C   UNL     1      10.576  29.373  56.701  1.00  0.00     0.001 A 
HETATM   40  C   UNL     1      11.033  30.429  57.487  1.00  0.00     0.000 A 
HETATM   41  C   UNL     1      10.140  31.135  58.290  1.00  0.00     0.001 A 
HETATM   42  C   UNL     1       8.789  30.784  58.308  1.00  0.00     0.010 A 
ENDBRANCH  34  37
ENDBRANCH  33  34
ENDBRANCH  31  33
ENDBRANCH   9  31
TORSDOF 11
ENDMDL
