MODEL 1
REMARK VINA RESULT:      -9.4      0.000      0.000
REMARK  4 active torsions:
REMARK  status: ('A' for Active; 'I' for Inactive)
REMARK    1  A    between atoms: C_6  and  C_7 
REMARK    2  A    between atoms: C_7  and  C_8 
REMARK    3  A    between atoms: N_10  and  C_11 
REMARK    4  A    between atoms: C_19  and  C_20 
ROOT
HETATM    1  C   UNL     1       7.773  26.599  56.399  1.00  0.00     0.149 C 
HETATM    2  N   UNL     1       7.984  25.327  56.730  1.00  0.00    -0.150 NA
HETATM    3  N   UNL     1       7.701  24.654  55.582  1.00  0.00    -0.218 N 
HETATM    4  C   UNL     1       7.163  25.559  54.661  1.00  0.00     0.136 C 
HETATM    5  N   UNL     1       7.268  26.783  55.149  1.00  0.00    -0.216 NA
ENDROOT
BRANCH   1   6
HETATM    6  C   UNL     1       7.996  27.715  57.358  1.00  0.00     0.087 C 
BRANCH   6   7
HETATM    7  C   UNL     1       8.068  29.113  56.696  1.00  0.00    -0.004 C 
HETATM    8  C   UNL     1       9.476  29.735  56.677  1.00  0.00     0.032 C 
HETATM    9  C   UNL     1       9.966  30.139  58.060  1.00  0.00     0.234 C 
HETATM   10  N   UNL     1       8.978  31.104  58.672  1.00  0.00    -0.075 N 
HETATM   11  C   UNL     1       9.463  31.619  60.004  1.00  0.00     0.269 C 
HETATM   12  H   UNL     1       8.932  31.926  58.054  1.00  0.00     0.279 HD
HETATM   13  C   UNL     1       7.584  30.539  58.770  1.00  0.00     0.234 C 
HETATM   14  C   UNL     1       7.106  30.097  57.390  1.00  0.00     0.032 C 
ENDBRANCH   6   7
ENDBRANCH   1   6
BRANCH   3  15
HETATM   15  C   UNL     1       7.963  23.256  55.510  1.00  0.00     0.062 A 
HETATM   16  C   UNL     1       8.031  22.569  54.293  1.00  0.00     0.058 A 
HETATM   17  C   UNL     1       8.290  21.192  54.278  1.00  0.00     0.074 A 
HETATM   18 CL   UNL     1       8.349  20.378  52.763  1.00  0.00    -0.081 Cl
HETATM   19  C   UNL     1       8.498  20.501  55.467  1.00  0.00     0.138 A 
HETATM   20  F   UNL     1       8.744  19.186  55.464  1.00  0.00    -0.204 F 
HETATM   21  C   UNL     1       8.462  21.176  56.681  1.00  0.00     0.046 A 
HETATM   22  C   UNL     1       8.203  22.550  56.705  1.00  0.00     0.035 A 
ENDBRANCH   3  15
BRANCH   4  23
HETATM   23  C   UNL     1       6.448  25.245  53.387  1.00  0.00     0.084 C 
HETATM   24  C   UNL     1       7.325  25.501  52.152  1.00  0.00     0.244 C 
HETATM   25  N   UNL     1       6.346  25.728  51.029  1.00  0.00    -0.074 N 
HETATM   26  H   UNL     1       6.645  26.531  50.456  1.00  0.00     0.277 HD
HETATM   27  H   UNL     1       6.320  24.921  50.388  1.00  0.00     0.277 HD
HETATM   28  C   UNL     1       4.995  25.972  51.625  1.00  0.00     0.233 C 
HETATM   29  C   UNL     1       5.265  26.169  53.108  1.00  0.00     0.041 C 
ENDBRANCH   4  23
TORSDOF 4
ENDMDL
MODEL 2
REMARK VINA RESULT:      -9.2      4.070      7.591
REMARK  4 active torsions:
REMARK  status: ('A' for Active; 'I' for Inactive)
REMARK    1  A    between atoms: C_6  and  C_7 
REMARK    2  A    between atoms: C_7  and  C_8 
REMARK    3  A    between atoms: N_10  and  C_11 
REMARK    4  A    between atoms: C_19  and  C_20 
ROOT
HETATM    1  C   UNL     1       7.381  25.328  56.485  1.00  0.00     0.149 C 
HETATM    2  N   UNL     1       8.181  26.131  57.181  1.00  0.00    -0.150 NA
HETATM    3  N   UNL     1       7.948  27.355  56.635  1.00  0.00    -0.218 N 
HETATM    4  C   UNL     1       7.135  27.188  55.509  1.00  0.00     0.136 C 
HETATM    5  N   UNL     1       6.730  25.932  55.454  1.00  0.00    -0.216 NA
ENDROOT
BRANCH   1   6
HETATM    6  C   UNL     1       7.279  23.870  56.767  1.00  0.00     0.087 C 
BRANCH   6   7
HETATM    7  C   UNL     1       8.613  23.101  56.612  1.00  0.00    -0.004 C 
HETATM    8  C   UNL     1       9.320  23.321  55.262  1.00  0.00     0.032 C 
HETATM    9  C   UNL     1       8.581  22.685  54.093  1.00  0.00     0.234 C 
HETATM   10  N   UNL     1       8.413  21.208  54.359  1.00  0.00    -0.075 N 
HETATM   11  C   UNL     1       7.777  20.504  53.187  1.00  0.00     0.269 C 
HETATM   12  H   UNL     1       9.357  20.805  54.448  1.00  0.00     0.279 HD
HETATM   13  C   UNL     1       7.681  20.918  55.644  1.00  0.00     0.234 C 
HETATM   14  C   UNL     1       8.399  21.588  56.813  1.00  0.00     0.032 C 
ENDBRANCH   6   7
ENDBRANCH   1   6
BRANCH   3  15
HETATM   15  C   UNL     1       8.527  28.509  57.235  1.00  0.00     0.062 A 
HETATM   16  C   UNL     1       7.897  29.211  58.269  1.00  0.00     0.058 A 
HETATM   17  C   UNL     1       8.509  30.342  58.825  1.00  0.00     0.074 A 
HETATM   18 CL   UNL     1       7.696  31.190  60.082  1.00  0.00    -0.081 Cl
HETATM   19  C   UNL     1       9.753  30.767  58.367  1.00  0.00     0.138 A 
HETATM   20  F   UNL     1      10.345  31.847  58.889  1.00  0.00    -0.204 F 
HETATM   21  C   UNL     1      10.403  30.063  57.361  1.00  0.00     0.046 A 
HETATM   22  C   UNL     1       9.798  28.934  56.800  1.00  0.00     0.035 A 
ENDBRANCH   3  15
BRANCH   4  23
HETATM   23  C   UNL     1       6.850  28.188  54.435  1.00  0.00     0.084 C 
HETATM   24  C   UNL     1       5.579  29.000  54.722  1.00  0.00     0.244 C 
HETATM   25  N   UNL     1       5.116  29.475  53.369  1.00  0.00    -0.074 N 
HETATM   26  H   UNL     1       4.096  29.356  53.282  1.00  0.00     0.277 HD
HETATM   27  H   UNL     1       5.292  30.484  53.246  1.00  0.00     0.277 HD
HETATM   28  C   UNL     1       5.836  28.684  52.321  1.00  0.00     0.233 C 
HETATM   29  C   UNL     1       6.501  27.555  53.090  1.00  0.00     0.041 C 
ENDBRANCH   4  23
TORSDOF 4
ENDMDL
MODEL 3
REMARK VINA RESULT:      -9.0      1.413      1.904
REMARK  4 active torsions:
REMARK  status: ('A' for Active; 'I' for Inactive)
REMARK    1  A    between atoms: C_6  and  C_7 
REMARK    2  A    between atoms: C_7  and  C_8 
REMARK    3  A    between atoms: N_10  and  C_11 
REMARK    4  A    between atoms: C_19  and  C_20 
ROOT
HETATM    1  C   UNL     1       7.297  27.125  56.392  1.00  0.00     0.149 C 
HETATM    2  N   UNL     1       7.654  25.844  56.365  1.00  0.00    -0.150 NA
HETATM    3  N   UNL     1       7.196  25.416  55.157  1.00  0.00    -0.218 N 
HETATM    4  C   UNL     1       6.427  26.438  54.590  1.00  0.00     0.136 C 
HETATM    5  N   UNL     1       6.543  27.525  55.332  1.00  0.00    -0.216 NA
ENDROOT
BRANCH   1   6
HETATM    6  C   UNL     1       7.628  28.017  57.536  1.00  0.00     0.087 C 
BRANCH   6   7
HETATM    7  C   UNL     1       8.184  29.400  57.119  1.00  0.00    -0.004 C 
HETATM    8  C   UNL     1       9.264  29.961  58.063  1.00  0.00     0.032 C 
HETATM    9  C   UNL     1       8.713  30.365  59.424  1.00  0.00     0.234 C 
HETATM   10  N   UNL     1       7.611  31.380  59.229  1.00  0.00    -0.075 N 
HETATM   11  C   UNL     1       7.095  31.894  60.550  1.00  0.00     0.269 C 
HETATM   12  H   UNL     1       8.027  32.194  58.755  1.00  0.00     0.279 HD
HETATM   13  C   UNL     1       6.492  30.877  58.354  1.00  0.00     0.234 C 
HETATM   14  C   UNL     1       7.048  30.435  57.003  1.00  0.00     0.032 C 
ENDBRANCH   6   7
ENDBRANCH   1   6
BRANCH   3  15
HETATM   15  C   UNL     1       7.533  24.108  54.706  1.00  0.00     0.062 A 
HETATM   16  C   UNL     1       7.385  22.976  55.516  1.00  0.00     0.058 A 
HETATM   17  C   UNL     1       7.734  21.712  55.025  1.00  0.00     0.074 A 
HETATM   18 CL   UNL     1       7.555  20.345  56.056  1.00  0.00    -0.081 Cl
HETATM   19  C   UNL     1       8.213  21.567  53.727  1.00  0.00     0.138 A 
HETATM   20  F   UNL     1       8.551  20.364  53.249  1.00  0.00    -0.204 F 
HETATM   21  C   UNL     1       8.339  22.678  52.902  1.00  0.00     0.046 A 
HETATM   22  C   UNL     1       7.994  23.944  53.385  1.00  0.00     0.035 A 
ENDBRANCH   3  15
BRANCH   4  23
HETATM   23  C   UNL     1       5.498  26.338  53.424  1.00  0.00     0.084 C 
HETATM   24  C   UNL     1       4.836  24.956  53.326  1.00  0.00     0.244 C 
HETATM   25  N   UNL     1       4.456  24.816  51.875  1.00  0.00    -0.074 N 
HETATM   26  H   UNL     1       4.699  23.874  51.534  1.00  0.00     0.277 HD
HETATM   27  H   UNL     1       3.438  24.907  51.744  1.00  0.00     0.277 HD
HETATM   28  C   UNL     1       5.183  25.868  51.095  1.00  0.00     0.233 C 
HETATM   29  C   UNL     1       6.204  26.426  52.073  1.00  0.00     0.041 C 
ENDBRANCH   4  23
TORSDOF 4
ENDMDL
MODEL 4
REMARK VINA RESULT:      -8.8      2.371      6.344
REMARK  4 active torsions:
REMARK  status: ('A' for Active; 'I' for Inactive)
REMARK    1  A    between atoms: C_6  and  C_7 
REMARK    2  A    between atoms: C_7  and  C_8 
REMARK    3  A    between atoms: N_10  and  C_11 
REMARK    4  A    between atoms: C_19  and  C_20 
ROOT
HETATM    1  C   UNL     1       5.439  26.025  52.740  1.00  0.00     0.149 C 
HETATM    2  N   UNL     1       5.978  24.818  52.586  1.00  0.00    -0.150 NA
HETATM    3  N   UNL     1       6.673  24.637  53.743  1.00  0.00    -0.218 N 
HETATM    4  C   UNL     1       6.650  25.835  54.463  1.00  0.00     0.136 C 
HETATM    5  N   UNL     1       5.827  26.680  53.867  1.00  0.00    -0.216 NA
ENDROOT
BRANCH   1   6
HETATM    6  C   UNL     1       4.551  26.633  51.712  1.00  0.00     0.087 C 
BRANCH   6   7
HETATM    7  C   UNL     1       5.287  27.094  50.431  1.00  0.00    -0.004 C 
HETATM    8  C   UNL     1       5.389  28.623  50.272  1.00  0.00     0.032 C 
HETATM    9  C   UNL     1       4.046  29.280  49.983  1.00  0.00     0.234 C 
HETATM   10  N   UNL     1       3.452  28.664  48.739  1.00  0.00    -0.075 N 
HETATM   11  C   UNL     1       2.167  29.348  48.344  1.00  0.00     0.269 C 
HETATM   12  H   UNL     1       4.111  28.841  47.967  1.00  0.00     0.279 HD
HETATM   13  C   UNL     1       3.276  27.171  48.844  1.00  0.00     0.234 C 
HETATM   14  C   UNL     1       4.614  26.513  49.173  1.00  0.00     0.032 C 
ENDBRANCH   6   7
ENDBRANCH   1   6
BRANCH   3  15
HETATM   15  C   UNL     1       7.270  23.371  54.007  1.00  0.00     0.062 A 
HETATM   16  C   UNL     1       7.437  22.878  55.306  1.00  0.00     0.058 A 
HETATM   17  C   UNL     1       8.032  21.627  55.511  1.00  0.00     0.074 A 
HETATM   18 CL   UNL     1       8.237  21.062  57.124  1.00  0.00    -0.081 Cl
HETATM   19  C   UNL     1       8.447  20.858  54.428  1.00  0.00     0.138 A 
HETATM   20  F   UNL     1       9.018  19.662  54.614  1.00  0.00    -0.204 F 
HETATM   21  C   UNL     1       8.262  21.321  53.132  1.00  0.00     0.046 A 
HETATM   22  C   UNL     1       7.669  22.570  52.919  1.00  0.00     0.035 A 
ENDBRANCH   3  15
BRANCH   4  23
HETATM   23  C   UNL     1       7.498  26.208  55.637  1.00  0.00     0.084 C 
HETATM   24  C   UNL     1       6.748  26.051  56.967  1.00  0.00     0.244 C 
HETATM   25  N   UNL     1       7.453  26.984  57.916  1.00  0.00    -0.074 N 
HETATM   26  H   UNL     1       6.763  27.511  58.473  1.00  0.00     0.277 HD
HETATM   27  H   UNL     1       8.024  26.463  58.598  1.00  0.00     0.277 HD
HETATM   28  C   UNL     1       8.309  27.913  57.112  1.00  0.00     0.233 C 
HETATM   29  C   UNL     1       7.866  27.690  55.676  1.00  0.00     0.041 C 
ENDBRANCH   4  23
TORSDOF 4
ENDMDL
MODEL 5
REMARK VINA RESULT:      -8.7      2.684      6.650
REMARK  4 active torsions:
REMARK  status: ('A' for Active; 'I' for Inactive)
REMARK    1  A    between atoms: C_6  and  C_7 
REMARK    2  A    between atoms: C_7  and  C_8 
REMARK    3  A    between atoms: N_10  and  C_11 
REMARK    4  A    between atoms: C_19  and  C_20 
ROOT
HETATM    1  C   UNL     1       5.635  26.286  51.574  1.00  0.00     0.149 C 
HETATM    2  N   UNL     1       6.075  25.048  51.785  1.00  0.00    -0.150 NA
HETATM    3  N   UNL     1       6.600  25.113  53.040  1.00  0.00    -0.218 N 
HETATM    4  C   UNL     1       6.598  26.450  53.450  1.00  0.00     0.136 C 
HETATM    5  N   UNL     1       5.937  27.171  52.562  1.00  0.00    -0.216 NA
ENDROOT
BRANCH   1   6
HETATM    6  C   UNL     1       4.942  26.678  50.316  1.00  0.00     0.087 C 
BRANCH   6   7
HETATM    7  C   UNL     1       5.021  28.189  49.994  1.00  0.00    -0.004 C 
HETATM    8  C   UNL     1       3.729  28.971  50.294  1.00  0.00     0.032 C 
HETATM    9  C   UNL     1       2.590  28.621  49.347  1.00  0.00     0.234 C 
HETATM   10  N   UNL     1       3.034  28.872  47.925  1.00  0.00    -0.075 N 
HETATM   11  C   UNL     1       1.910  28.639  46.946  1.00  0.00     0.269 C 
HETATM   12  H   UNL     1       3.267  29.872  47.851  1.00  0.00     0.279 HD
HETATM   13  C   UNL     1       4.269  28.096  47.546  1.00  0.00     0.234 C 
HETATM   14  C   UNL     1       5.402  28.416  48.518  1.00  0.00     0.032 C 
ENDBRANCH   6   7
ENDBRANCH   1   6
BRANCH   3  15
HETATM   15  C   UNL     1       7.039  23.916  53.674  1.00  0.00     0.062 A 
HETATM   16  C   UNL     1       7.521  22.819  52.951  1.00  0.00     0.058 A 
HETATM   17  C   UNL     1       7.939  21.664  53.624  1.00  0.00     0.074 A 
HETATM   18 CL   UNL     1       8.510  20.328  52.699  1.00  0.00    -0.081 Cl
HETATM   19  C   UNL     1       7.895  21.602  55.013  1.00  0.00     0.138 A 
HETATM   20  F   UNL     1       8.289  20.502  55.665  1.00  0.00    -0.204 F 
HETATM   21  C   UNL     1       7.445  22.693  55.745  1.00  0.00     0.046 A 
HETATM   22  C   UNL     1       7.025  23.850  55.081  1.00  0.00     0.035 A 
ENDBRANCH   3  15
BRANCH   4  23
HETATM   23  C   UNL     1       7.322  27.046  54.614  1.00  0.00     0.084 C 
HETATM   24  C   UNL     1       6.360  27.564  55.692  1.00  0.00     0.244 C 
HETATM   25  N   UNL     1       7.147  28.612  56.436  1.00  0.00    -0.074 N 
HETATM   26  H   UNL     1       6.561  29.443  56.602  1.00  0.00     0.277 HD
HETATM   27  H   UNL     1       7.429  28.276  57.368  1.00  0.00     0.277 HD
HETATM   28  C   UNL     1       8.351  28.964  55.617  1.00  0.00     0.233 C 
HETATM   29  C   UNL     1       8.092  28.318  54.266  1.00  0.00     0.041 C 
ENDBRANCH   4  23
TORSDOF 4
ENDMDL
MODEL 6
REMARK VINA RESULT:      -8.5      3.970      7.890
REMARK  4 active torsions:
REMARK  status: ('A' for Active; 'I' for Inactive)
REMARK    1  A    between atoms: C_6  and  C_7 
REMARK    2  A    between atoms: C_7  and  C_8 
REMARK    3  A    between atoms: N_10  and  C_11 
REMARK    4  A    between atoms: C_19  and  C_20 
ROOT
HETATM    1  C   UNL     1       5.552  27.247  51.976  1.00  0.00     0.149 C 
HETATM    2  N   UNL     1       5.710  27.968  53.083  1.00  0.00    -0.150 NA
HETATM    3  N   UNL     1       6.653  27.273  53.777  1.00  0.00    -0.218 N 
HETATM    4  C   UNL     1       6.886  26.064  53.113  1.00  0.00     0.136 C 
HETATM    5  N   UNL     1       6.247  26.077  51.957  1.00  0.00    -0.216 NA
ENDROOT
BRANCH   1   6
HETATM    6  C   UNL     1       4.621  27.656  50.889  1.00  0.00     0.087 C 
BRANCH   6   7
HETATM    7  C   UNL     1       5.102  27.276  49.468  1.00  0.00    -0.004 C 
HETATM    8  C   UNL     1       5.337  28.477  48.534  1.00  0.00     0.032 C 
HETATM    9  C   UNL     1       4.048  29.179  48.132  1.00  0.00     0.234 C 
HETATM   10  N   UNL     1       3.126  28.180  47.474  1.00  0.00    -0.075 N 
HETATM   11  C   UNL     1       1.871  28.842  46.962  1.00  0.00     0.269 C 
HETATM   12  H   UNL     1       3.612  27.819  46.641  1.00  0.00     0.279 HD
HETATM   13  C   UNL     1       2.810  26.999  48.355  1.00  0.00     0.234 C 
HETATM   14  C   UNL     1       4.104  26.316  48.791  1.00  0.00     0.032 C 
ENDBRANCH   6   7
ENDBRANCH   1   6
BRANCH   3  15
HETATM   15  C   UNL     1       7.195  27.833  54.969  1.00  0.00     0.062 A 
HETATM   16  C   UNL     1       8.391  28.560  54.978  1.00  0.00     0.058 A 
HETATM   17  C   UNL     1       8.882  29.088  56.178  1.00  0.00     0.074 A 
HETATM   18 CL   UNL     1      10.365  29.962  56.153  1.00  0.00    -0.081 Cl
HETATM   19  C   UNL     1       8.181  28.909  57.366  1.00  0.00     0.138 A 
HETATM   20  F   UNL     1       8.643  29.407  58.519  1.00  0.00    -0.204 F 
HETATM   21  C   UNL     1       6.978  28.213  57.368  1.00  0.00     0.046 A 
HETATM   22  C   UNL     1       6.482  27.682  56.174  1.00  0.00     0.035 A 
ENDBRANCH   3  15
BRANCH   4  23
HETATM   23  C   UNL     1       7.612  24.865  53.634  1.00  0.00     0.084 C 
HETATM   24  C   UNL     1       7.842  23.809  52.544  1.00  0.00     0.244 C 
HETATM   25  N   UNL     1       8.001  22.512  53.297  1.00  0.00    -0.074 N 
HETATM   26  H   UNL     1       7.465  21.765  52.831  1.00  0.00     0.277 HD
HETATM   27  H   UNL     1       8.982  22.197  53.295  1.00  0.00     0.277 HD
HETATM   28  C   UNL     1       7.517  22.721  54.698  1.00  0.00     0.233 C 
HETATM   29  C   UNL     1       6.812  24.067  54.660  1.00  0.00     0.041 C 
ENDBRANCH   4  23
TORSDOF 4
ENDMDL
MODEL 7
REMARK VINA RESULT:      -8.5      1.591      2.316
REMARK  4 active torsions:
REMARK  status: ('A' for Active; 'I' for Inactive)
REMARK    1  A    between atoms: C_6  and  C_7 
REMARK    2  A    between atoms: C_7  and  C_8 
REMARK    3  A    between atoms: N_10  and  C_11 
REMARK    4  A    between atoms: C_19  and  C_20 
ROOT
HETATM    1  C   UNL     1       7.688  27.048  55.661  1.00  0.00     0.149 C 
HETATM    2  N   UNL     1       7.836  25.832  56.179  1.00  0.00    -0.150 NA
HETATM    3  N   UNL     1       7.641  25.011  55.111  1.00  0.00    -0.218 N 
HETATM    4  C   UNL     1       7.211  25.788  54.031  1.00  0.00     0.136 C 
HETATM    5  N   UNL     1       7.302  27.065  54.356  1.00  0.00    -0.216 NA
ENDROOT
BRANCH   1   6
HETATM    6  C   UNL     1       7.851  28.283  56.475  1.00  0.00     0.087 C 
BRANCH   6   7
HETATM    7  C   UNL     1       6.763  28.476  57.559  1.00  0.00    -0.004 C 
HETATM    8  C   UNL     1       5.337  28.126  57.096  1.00  0.00     0.032 C 
HETATM    9  C   UNL     1       4.785  29.111  56.075  1.00  0.00     0.234 C 
HETATM   10  N   UNL     1       4.816  30.502  56.664  1.00  0.00    -0.075 N 
HETATM   11  C   UNL     1       4.185  31.509  55.735  1.00  0.00     0.269 C 
HETATM   12  H   UNL     1       4.223  30.489  57.506  1.00  0.00     0.279 HD
HETATM   13  C   UNL     1       6.195  30.931  57.094  1.00  0.00     0.234 C 
HETATM   14  C   UNL     1       6.766  29.923  58.087  1.00  0.00     0.032 C 
ENDBRANCH   6   7
ENDBRANCH   1   6
BRANCH   3  15
HETATM   15  C   UNL     1       7.874  23.613  55.255  1.00  0.00     0.062 A 
HETATM   16  C   UNL     1       7.915  22.745  54.158  1.00  0.00     0.058 A 
HETATM   17  C   UNL     1       8.146  21.378  54.354  1.00  0.00     0.074 A 
HETATM   18 CL   UNL     1       8.173  20.338  52.982  1.00  0.00    -0.081 Cl
HETATM   19  C   UNL     1       8.351  20.874  55.634  1.00  0.00     0.138 A 
HETATM   20  F   UNL     1       8.569  19.568  55.832  1.00  0.00    -0.204 F 
HETATM   21  C   UNL     1       8.340  21.727  56.730  1.00  0.00     0.046 A 
HETATM   22  C   UNL     1       8.109  23.094  56.542  1.00  0.00     0.035 A 
ENDBRANCH   3  15
BRANCH   4  23
HETATM   23  C   UNL     1       6.606  25.310  52.750  1.00  0.00     0.084 C 
HETATM   24  C   UNL     1       6.532  26.422  51.694  1.00  0.00     0.244 C 
HETATM   25  N   UNL     1       5.422  25.997  50.768  1.00  0.00    -0.074 N 
HETATM   26  H   UNL     1       4.818  26.802  50.546  1.00  0.00     0.277 HD
HETATM   27  H   UNL     1       5.794  25.668  49.865  1.00  0.00     0.277 HD
HETATM   28  C   UNL     1       4.638  24.913  51.441  1.00  0.00     0.233 C 
HETATM   29  C   UNL     1       5.135  24.923  52.877  1.00  0.00     0.041 C 
ENDBRANCH   4  23
TORSDOF 4
ENDMDL
MODEL 8
REMARK VINA RESULT:      -8.4      3.584      5.576
REMARK  4 active torsions:
REMARK  status: ('A' for Active; 'I' for Inactive)
REMARK    1  A    between atoms: C_6  and  C_7 
REMARK    2  A    between atoms: C_7  and  C_8 
REMARK    3  A    between atoms: N_10  and  C_11 
REMARK    4  A    between atoms: C_19  and  C_20 
ROOT
HETATM    1  C   UNL     1       7.341  27.982  54.600  1.00  0.00     0.149 C 
HETATM    2  N   UNL     1       6.882  28.330  53.401  1.00  0.00    -0.150 NA
HETATM    3  N   UNL     1       6.427  27.154  52.887  1.00  0.00    -0.218 N 
HETATM    4  C   UNL     1       6.800  26.121  53.753  1.00  0.00     0.136 C 
HETATM    5  N   UNL     1       7.314  26.645  54.851  1.00  0.00    -0.216 NA
ENDROOT
BRANCH   1   6
HETATM    6  C   UNL     1       7.915  28.975  55.549  1.00  0.00     0.087 C 
BRANCH   6   7
HETATM    7  C   UNL     1       8.657  28.346  56.752  1.00  0.00    -0.004 C 
HETATM    8  C   UNL     1       7.920  28.484  58.097  1.00  0.00     0.032 C 
HETATM    9  C   UNL     1       7.880  29.917  58.609  1.00  0.00     0.234 C 
HETATM   10  N   UNL     1       9.293  30.436  58.733  1.00  0.00    -0.075 N 
HETATM   11  C   UNL     1       9.323  31.820  59.333  1.00  0.00     0.269 C 
HETATM   12  H   UNL     1       9.783  29.829  59.405  1.00  0.00     0.279 HD
HETATM   13  C   UNL     1      10.061  30.378  57.436  1.00  0.00     0.234 C 
HETATM   14  C   UNL     1      10.067  28.948  56.901  1.00  0.00     0.032 C 
ENDBRANCH   6   7
ENDBRANCH   1   6
BRANCH   3  15
HETATM   15  C   UNL     1       5.716  27.161  51.653  1.00  0.00     0.062 A 
HETATM   16  C   UNL     1       5.505  28.333  50.917  1.00  0.00     0.058 A 
HETATM   17  C   UNL     1       4.797  28.286  49.710  1.00  0.00     0.074 A 
HETATM   18 CL   UNL     1       4.543  29.750  48.841  1.00  0.00    -0.081 Cl
HETATM   19  C   UNL     1       4.311  27.075  49.225  1.00  0.00     0.138 A 
HETATM   20  F   UNL     1       3.631  27.020  48.074  1.00  0.00    -0.204 F 
HETATM   21  C   UNL     1       4.537  25.900  49.930  1.00  0.00     0.046 A 
HETATM   22  C   UNL     1       5.242  25.940  51.137  1.00  0.00     0.035 A 
ENDBRANCH   3  15
BRANCH   4  23
HETATM   23  C   UNL     1       6.777  24.652  53.479  1.00  0.00     0.084 C 
HETATM   24  C   UNL     1       6.911  23.821  54.763  1.00  0.00     0.244 C 
HETATM   25  N   UNL     1       7.462  22.495  54.306  1.00  0.00    -0.074 N 
HETATM   26  H   UNL     1       8.212  22.185  54.941  1.00  0.00     0.277 HD
HETATM   27  H   UNL     1       6.742  21.759  54.341  1.00  0.00     0.277 HD
HETATM   28  C   UNL     1       7.981  22.659  52.910  1.00  0.00     0.233 C 
HETATM   29  C   UNL     1       7.983  24.161  52.681  1.00  0.00     0.041 C 
ENDBRANCH   4  23
TORSDOF 4
ENDMDL
MODEL 9
REMARK VINA RESULT:      -8.4      3.949      7.490
REMARK  4 active torsions:
REMARK  status: ('A' for Active; 'I' for Inactive)
REMARK    1  A    between atoms: C_6  and  C_7 
REMARK    2  A    between atoms: C_7  and  C_8 
REMARK    3  A    between atoms: N_10  and  C_11 
REMARK    4  A    between atoms: C_19  and  C_20 
ROOT
HETATM    1  C   UNL     1       6.678  25.859  55.064  1.00  0.00     0.149 C 
HETATM    2  N   UNL     1       7.605  26.454  55.811  1.00  0.00    -0.150 NA
HETATM    3  N   UNL     1       7.141  27.728  55.929  1.00  0.00    -0.218 N 
HETATM    4  C   UNL     1       6.031  27.872  55.090  1.00  0.00     0.136 C 
HETATM    5  N   UNL     1       5.705  26.689  54.601  1.00  0.00    -0.216 NA
ENDROOT
BRANCH   1   6
HETATM    6  C   UNL     1       6.757  24.418  54.702  1.00  0.00     0.087 C 
BRANCH   6   7
HETATM    7  C   UNL     1       8.180  23.936  54.328  1.00  0.00    -0.004 C 
HETATM    8  C   UNL     1       8.211  22.738  53.360  1.00  0.00     0.032 C 
HETATM    9  C   UNL     1       7.719  21.446  53.997  1.00  0.00     0.234 C 
HETATM   10  N   UNL     1       8.554  21.150  55.221  1.00  0.00    -0.075 N 
HETATM   11  C   UNL     1       8.179  19.826  55.838  1.00  0.00     0.269 C 
HETATM   12  H   UNL     1       9.529  21.046  54.907  1.00  0.00     0.279 HD
HETATM   13  C   UNL     1       8.527  22.263  56.238  1.00  0.00     0.234 C 
HETATM   14  C   UNL     1       8.983  23.568  55.590  1.00  0.00     0.032 C 
ENDBRANCH   6   7
ENDBRANCH   1   6
BRANCH   3  15
HETATM   15  C   UNL     1       7.807  28.635  56.801  1.00  0.00     0.062 A 
HETATM   16  C   UNL     1       9.173  28.921  56.683  1.00  0.00     0.058 A 
HETATM   17  C   UNL     1       9.780  29.820  57.569  1.00  0.00     0.074 A 
HETATM   18 CL   UNL     1      11.465  30.133  57.404  1.00  0.00    -0.081 Cl
HETATM   19  C   UNL     1       9.032  30.447  58.560  1.00  0.00     0.138 A 
HETATM   20  F   UNL     1       9.604  31.306  59.413  1.00  0.00    -0.204 F 
HETATM   21  C   UNL     1       7.671  30.195  58.671  1.00  0.00     0.046 A 
HETATM   22  C   UNL     1       7.057  29.298  57.791  1.00  0.00     0.035 A 
ENDBRANCH   3  15
BRANCH   4  23
HETATM   23  C   UNL     1       5.367  29.144  54.668  1.00  0.00     0.084 C 
HETATM   24  C   UNL     1       4.144  29.475  55.535  1.00  0.00     0.244 C 
HETATM   25  N   UNL     1       3.289  30.360  54.666  1.00  0.00    -0.074 N 
HETATM   26  H   UNL     1       2.300  30.076  54.735  1.00  0.00     0.277 HD
HETATM   27  H   UNL     1       3.321  31.340  54.985  1.00  0.00     0.277 HD
HETATM   28  C   UNL     1       3.778  30.249  53.255  1.00  0.00     0.233 C 
HETATM   29  C   UNL     1       4.737  29.070  53.279  1.00  0.00     0.041 C 
ENDBRANCH   4  23
TORSDOF 4
ENDMDL
MODEL 10
REMARK VINA RESULT:      -8.3      2.781      4.573
REMARK  4 active torsions:
REMARK  status: ('A' for Active; 'I' for Inactive)
REMARK    1  A    between atoms: C_6  and  C_7 
REMARK    2  A    between atoms: C_7  and  C_8 
REMARK    3  A    between atoms: N_10  and  C_11 
REMARK    4  A    between atoms: C_19  and  C_20 
ROOT
HETATM    1  C   UNL     1       7.608  27.044  56.670  1.00  0.00     0.149 C 
HETATM    2  N   UNL     1       7.158  27.320  55.448  1.00  0.00    -0.150 NA
HETATM    3  N   UNL     1       6.889  26.091  54.929  1.00  0.00    -0.218 N 
HETATM    4  C   UNL     1       7.360  25.123  55.822  1.00  0.00     0.136 C 
HETATM    5  N   UNL     1       7.750  25.717  56.935  1.00  0.00    -0.216 NA
ENDROOT
BRANCH   1   6
HETATM    6  C   UNL     1       8.000  28.112  57.631  1.00  0.00     0.087 C 
BRANCH   6   7
HETATM    7  C   UNL     1       8.076  29.527  57.009  1.00  0.00    -0.004 C 
HETATM    8  C   UNL     1       9.486  30.144  57.004  1.00  0.00     0.032 C 
HETATM    9  C   UNL     1       9.981  30.507  58.397  1.00  0.00     0.234 C 
HETATM   10  N   UNL     1       8.997  31.458  59.038  1.00  0.00    -0.075 N 
HETATM   11  C   UNL     1       9.486  31.934  60.383  1.00  0.00     0.269 C 
HETATM   12  H   UNL     1       8.953  32.297  58.443  1.00  0.00     0.279 HD
HETATM   13  C   UNL     1       7.601  30.896  59.123  1.00  0.00     0.234 C 
HETATM   14  C   UNL     1       7.119  30.494  57.731  1.00  0.00     0.032 C 
ENDBRANCH   6   7
ENDBRANCH   1   6
BRANCH   3  15
HETATM   15  C   UNL     1       6.238  25.995  53.667  1.00  0.00     0.062 A 
HETATM   16  C   UNL     1       6.292  27.021  52.716  1.00  0.00     0.058 A 
HETATM   17  C   UNL     1       5.632  26.877  51.489  1.00  0.00     0.074 A 
HETATM   18 CL   UNL     1       5.707  28.167  50.352  1.00  0.00    -0.081 Cl
HETATM   19  C   UNL     1       4.931  25.710  51.199  1.00  0.00     0.138 A 
HETATM   20  F   UNL     1       4.295  25.564  50.031  1.00  0.00    -0.204 F 
HETATM   21  C   UNL     1       4.892  24.672  52.121  1.00  0.00     0.046 A 
HETATM   22  C   UNL     1       5.548  24.809  53.349  1.00  0.00     0.035 A 
ENDBRANCH   3  15
BRANCH   4  23
HETATM   23  C   UNL     1       7.547  23.662  55.565  1.00  0.00     0.084 C 
HETATM   24  C   UNL     1       8.132  22.930  56.781  1.00  0.00     0.244 C 
HETATM   25  N   UNL     1       8.797  21.706  56.206  1.00  0.00    -0.074 N 
HETATM   26  H   UNL     1       9.720  21.565  56.644  1.00  0.00     0.277 HD
HETATM   27  H   UNL     1       8.256  20.854  56.415  1.00  0.00     0.277 HD
HETATM   28  C   UNL     1       8.932  21.895  54.727  1.00  0.00     0.233 C 
HETATM   29  C   UNL     1       8.600  23.361  54.501  1.00  0.00     0.041 C 
ENDBRANCH   4  23
TORSDOF 4
ENDMDL
