MODEL 1
REMARK VINA RESULT:      -9.4      0.000      0.000
REMARK  9 active torsions:
REMARK  status: ('A' for Active; 'I' for Inactive)
REMARK    1  A    between atoms: C_4  and  S_5 
REMARK    2  A    between atoms: S_5  and  C_6 
REMARK    3  A    between atoms: C_6  and  C_7 
REMARK       I    between atoms: C_7  and  N_8 
REMARK    4  A    between atoms: N_8  and  C_9 
REMARK    5  A    between atoms: N_11  and  C_12 
REMARK    6  A    between atoms: C_12  and  C_13 
REMARK       I    between atoms: C_13  and  N_14 
REMARK    7  A    between atoms: N_14  and  C_15 
REMARK    8  A    between atoms: C_15  and  C_16 
REMARK    9  A    between atoms: C_16  and  N_17 
ROOT
HETATM    1  C   UNL     1       8.424  28.518  57.223  1.00  0.00     0.253 C 
ENDROOT
BRANCH   1   2
HETATM    2  N   UNL     1       7.279  29.416  57.288  1.00  0.00    -0.270 N 
HETATM    3  C   UNL     1       7.006  30.237  58.346  1.00  0.00     0.144 A 
HETATM    4  C   UNL     1       5.753  30.752  58.136  1.00  0.00     0.071 A 
HETATM    5  C   UNL     1       5.363  30.214  56.890  1.00  0.00     0.169 A 
HETATM    6  N   UNL     1       6.269  29.367  56.381  1.00  0.00    -0.183 NA
BRANCH   4   7
HETATM    7  N   UNL     1       5.013  31.569  58.970  1.00  0.00    -0.324 N 
HETATM    8  C   UNL     1       5.031  32.953  58.938  1.00  0.00     0.231 C 
HETATM    9  O   UNL     1       5.539  33.637  58.051  1.00  0.00    -0.272 OA
HETATM   10  H   UNL     1       4.559  31.133  59.766  1.00  0.00     0.169 HD
BRANCH   8  11
HETATM   11  C   UNL     1       4.326  33.626  60.107  1.00  0.00     0.182 C 
BRANCH  11  12
HETATM   12  S   UNL     1       4.044  32.509  61.525  1.00  0.00    -0.121 SA
BRANCH  12  13
HETATM   13  C   UNL     1       5.499  32.705  62.553  1.00  0.00     0.001 A 
HETATM   14  C   UNL     1       5.543  33.347  63.795  1.00  0.00     0.018 A 
HETATM   15  C   UNL     1       6.749  33.468  64.495  1.00  0.00     0.001 A 
HETATM   16  C   UNL     1       7.924  32.937  63.970  1.00  0.00     0.000 A 
HETATM   17  C   UNL     1       7.895  32.284  62.743  1.00  0.00     0.001 A 
HETATM   18  C   UNL     1       6.692  32.172  62.041  1.00  0.00     0.018 A 
ENDBRANCH  12  13
ENDBRANCH  11  12
ENDBRANCH   8  11
ENDBRANCH   4   7
ENDBRANCH   1   2
BRANCH   1  19
HETATM   19  C   UNL     1       8.138  27.031  57.186  1.00  0.00     0.237 C 
HETATM   20  N   UNL     1       7.759  26.483  55.978  1.00  0.00    -0.357 N 
HETATM   21  H   UNL     1       8.082  27.016  55.160  1.00  0.00     0.162 HD
HETATM   22  O   UNL     1       8.102  26.365  58.220  1.00  0.00    -0.272 OA
BRANCH  20  23
HETATM   23  C   UNL     1       7.511  25.062  55.832  1.00  0.00     0.161 C 
BRANCH  23  24
HETATM   24  C   UNL     1       7.074  24.591  54.401  1.00  0.00     0.143 C 
HETATM   25  C   UNL     1       7.850  25.329  53.278  1.00  0.00     0.041 C 
HETATM   26  C   UNL     1       7.338  25.030  51.868  1.00  0.00     0.002 C 
HETATM   27  C   UNL     1       5.852  25.345  51.735  1.00  0.00     0.000 C 
HETATM   28  C   UNL     1       5.021  24.661  52.816  1.00  0.00     0.002 C 
HETATM   29  C   UNL     1       5.568  24.949  54.215  1.00  0.00     0.041 C 
BRANCH  24  30
HETATM   30  N   UNL     1       7.243  23.035  54.224  1.00  0.00    -0.057 N 
HETATM   31  H   UNL     1       6.324  22.689  53.932  1.00  0.00     0.281 HD
HETATM   32  C   UNL     1       8.204  22.570  53.115  1.00  0.00     0.262 C 
HETATM   33  C   UNL     1       8.090  21.047  52.950  1.00  0.00     0.195 C 
HETATM   34  O   UNL     1       8.400  20.372  54.171  1.00  0.00    -0.388 OA
HETATM   35  C   UNL     1       7.517  20.753  55.228  1.00  0.00     0.195 C 
HETATM   36  C   UNL     1       7.599  22.260  55.502  1.00  0.00     0.262 C 
ENDBRANCH  24  30
ENDBRANCH  23  24
ENDBRANCH  20  23
ENDBRANCH   1  19
TORSDOF 9
ENDMDL
MODEL 2
REMARK VINA RESULT:      -9.2      2.873     11.634
REMARK  9 active torsions:
REMARK  status: ('A' for Active; 'I' for Inactive)
REMARK    1  A    between atoms: C_4  and  S_5 
REMARK    2  A    between atoms: S_5  and  C_6 
REMARK    3  A    between atoms: C_6  and  C_7 
REMARK       I    between atoms: C_7  and  N_8 
REMARK    4  A    between atoms: N_8  and  C_9 
REMARK    5  A    between atoms: N_11  and  C_12 
REMARK    6  A    between atoms: C_12  and  C_13 
REMARK       I    between atoms: C_13  and  N_14 
REMARK    7  A    between atoms: N_14  and  C_15 
REMARK    8  A    between atoms: C_15  and  C_16 
REMARK    9  A    between atoms: C_16  and  N_17 
ROOT
HETATM    1  C   UNL     1       3.809  31.331  57.908  1.00  0.00     0.253 C 
ENDROOT
BRANCH   1   2
HETATM    2  N   UNL     1       5.115  30.694  57.811  1.00  0.00    -0.270 N 
HETATM    3  C   UNL     1       5.303  29.363  57.559  1.00  0.00     0.144 A 
HETATM    4  C   UNL     1       6.635  29.106  57.758  1.00  0.00     0.071 A 
HETATM    5  C   UNL     1       7.185  30.364  58.087  1.00  0.00     0.169 A 
HETATM    6  N   UNL     1       6.261  31.333  58.161  1.00  0.00    -0.183 NA
BRANCH   4   7
HETATM    7  N   UNL     1       7.289  27.890  57.703  1.00  0.00    -0.324 N 
HETATM    8  C   UNL     1       7.715  27.274  56.538  1.00  0.00     0.231 C 
HETATM    9  O   UNL     1       7.753  27.804  55.428  1.00  0.00    -0.272 OA
HETATM   10  H   UNL     1       7.308  27.331  58.551  1.00  0.00     0.169 HD
BRANCH   8  11
HETATM   11  C   UNL     1       8.186  25.838  56.712  1.00  0.00     0.182 C 
BRANCH  11  12
HETATM   12  S   UNL     1       6.843  24.609  56.555  1.00  0.00    -0.121 SA
BRANCH  12  13
HETATM   13  C   UNL     1       7.324  23.586  55.164  1.00  0.00     0.001 A 
HETATM   14  C   UNL     1       7.491  24.022  53.846  1.00  0.00     0.018 A 
HETATM   15  C   UNL     1       7.839  23.121  52.833  1.00  0.00     0.001 A 
HETATM   16  C   UNL     1       8.038  21.775  53.126  1.00  0.00     0.000 A 
HETATM   17  C   UNL     1       7.889  21.327  54.434  1.00  0.00     0.001 A 
HETATM   18  C   UNL     1       7.532  22.226  55.443  1.00  0.00     0.018 A 
ENDBRANCH  12  13
ENDBRANCH  11  12
ENDBRANCH   8  11
ENDBRANCH   4   7
ENDBRANCH   1   2
BRANCH   1  19
HETATM   19  C   UNL     1       3.499  32.080  59.188  1.00  0.00     0.237 C 
HETATM   20  N   UNL     1       4.000  31.569  60.366  1.00  0.00    -0.357 N 
HETATM   21  H   UNL     1       4.839  30.987  60.243  1.00  0.00     0.162 HD
HETATM   22  O   UNL     1       2.710  33.025  59.195  1.00  0.00    -0.272 OA
BRANCH  20  23
HETATM   23  C   UNL     1       3.798  32.242  61.635  1.00  0.00     0.161 C 
BRANCH  23  24
HETATM   24  C   UNL     1       5.048  32.989  62.216  1.00  0.00     0.143 C 
HETATM   25  C   UNL     1       6.327  32.734  61.375  1.00  0.00     0.041 C 
HETATM   26  C   UNL     1       7.604  33.299  61.999  1.00  0.00     0.002 C 
HETATM   27  C   UNL     1       7.822  32.763  63.409  1.00  0.00     0.000 C 
HETATM   28  C   UNL     1       6.599  32.967  64.296  1.00  0.00     0.002 C 
HETATM   29  C   UNL     1       5.329  32.422  63.641  1.00  0.00     0.041 C 
BRANCH  24  30
HETATM   30  N   UNL     1       4.796  34.539  62.336  1.00  0.00    -0.057 N 
HETATM   31  H   UNL     1       5.674  34.935  62.685  1.00  0.00     0.281 HD
HETATM   32  C   UNL     1       4.524  35.294  61.022  1.00  0.00     0.262 C 
HETATM   33  C   UNL     1       4.506  36.805  61.299  1.00  0.00     0.195 C 
HETATM   34  O   UNL     1       3.506  37.140  62.264  1.00  0.00    -0.388 OA
HETATM   35  C   UNL     1       3.730  36.480  63.512  1.00  0.00     0.195 C 
HETATM   36  C   UNL     1       3.715  34.956  63.344  1.00  0.00     0.262 C 
ENDBRANCH  24  30
ENDBRANCH  23  24
ENDBRANCH  20  23
ENDBRANCH   1  19
TORSDOF 9
ENDMDL
MODEL 3
REMARK VINA RESULT:      -9.2      1.723      2.366
REMARK  9 active torsions:
REMARK  status: ('A' for Active; 'I' for Inactive)
REMARK    1  A    between atoms: C_4  and  S_5 
REMARK    2  A    between atoms: S_5  and  C_6 
REMARK    3  A    between atoms: C_6  and  C_7 
REMARK       I    between atoms: C_7  and  N_8 
REMARK    4  A    between atoms: N_8  and  C_9 
REMARK    5  A    between atoms: N_11  and  C_12 
REMARK    6  A    between atoms: C_12  and  C_13 
REMARK       I    between atoms: C_13  and  N_14 
REMARK    7  A    between atoms: N_14  and  C_15 
REMARK    8  A    between atoms: C_15  and  C_16 
REMARK    9  A    between atoms: C_16  and  N_17 
ROOT
HETATM    1  C   UNL     1       8.672  28.697  57.122  1.00  0.00     0.253 C 
ENDROOT
BRANCH   1   2
HETATM    2  N   UNL     1       7.862  29.765  57.692  1.00  0.00    -0.270 N 
HETATM    3  C   UNL     1       8.315  30.661  58.618  1.00  0.00     0.144 A 
HETATM    4  C   UNL     1       7.222  31.359  59.064  1.00  0.00     0.071 A 
HETATM    5  C   UNL     1       6.148  30.838  58.310  1.00  0.00     0.169 A 
HETATM    6  N   UNL     1       6.519  29.838  57.497  1.00  0.00    -0.183 NA
BRANCH   4   7
HETATM    7  N   UNL     1       7.166  32.315  60.060  1.00  0.00    -0.324 N 
HETATM    8  C   UNL     1       7.312  32.056  61.413  1.00  0.00     0.231 C 
HETATM    9  O   UNL     1       7.708  30.995  61.893  1.00  0.00    -0.272 OA
HETATM   10  H   UNL     1       6.827  33.237  59.803  1.00  0.00     0.169 HD
BRANCH   8  11
HETATM   11  C   UNL     1       6.969  33.224  62.326  1.00  0.00     0.182 C 
BRANCH  11  12
HETATM   12  S   UNL     1       7.680  33.068  64.002  1.00  0.00    -0.121 SA
BRANCH  12  13
HETATM   13  C   UNL     1       6.368  33.594  65.103  1.00  0.00     0.001 A 
HETATM   14  C   UNL     1       5.011  33.680  64.777  1.00  0.00     0.018 A 
HETATM   15  C   UNL     1       4.078  34.137  65.714  1.00  0.00     0.001 A 
HETATM   16  C   UNL     1       4.486  34.501  66.994  1.00  0.00     0.000 A 
HETATM   17  C   UNL     1       5.830  34.409  67.339  1.00  0.00     0.001 A 
HETATM   18  C   UNL     1       6.762  33.961  66.399  1.00  0.00     0.018 A 
ENDBRANCH  12  13
ENDBRANCH  11  12
ENDBRANCH   8  11
ENDBRANCH   4   7
ENDBRANCH   1   2
BRANCH   1  19
HETATM   19  C   UNL     1       8.085  27.300  57.137  1.00  0.00     0.237 C 
HETATM   20  N   UNL     1       7.490  26.844  55.979  1.00  0.00    -0.357 N 
HETATM   21  H   UNL     1       7.837  27.301  55.126  1.00  0.00     0.162 HD
HETATM   22  O   UNL     1       8.012  26.653  58.181  1.00  0.00    -0.272 OA
BRANCH  20  23
HETATM   23  C   UNL     1       6.945  25.504  55.881  1.00  0.00     0.161 C 
BRANCH  23  24
HETATM   24  C   UNL     1       6.768  24.946  54.425  1.00  0.00     0.143 C 
HETATM   25  C   UNL     1       7.616  25.731  53.389  1.00  0.00     0.041 C 
HETATM   26  C   UNL     1       7.344  25.337  51.937  1.00  0.00     0.002 C 
HETATM   27  C   UNL     1       5.868  25.483  51.585  1.00  0.00     0.000 C 
HETATM   28  C   UNL     1       4.968  24.744  52.569  1.00  0.00     0.002 C 
HETATM   29  C   UNL     1       5.276  25.131  54.017  1.00  0.00     0.041 C 
BRANCH  24  30
HETATM   30  N   UNL     1       7.123  23.414  54.343  1.00  0.00    -0.057 N 
HETATM   31  H   UNL     1       6.262  22.947  54.040  1.00  0.00     0.281 HD
HETATM   32  C   UNL     1       8.175  23.007  53.296  1.00  0.00     0.262 C 
HETATM   33  C   UNL     1       8.244  21.474  53.214  1.00  0.00     0.195 C 
HETATM   34  O   UNL     1       8.580  20.906  54.482  1.00  0.00    -0.388 OA
HETATM   35  C   UNL     1       7.616  21.235  55.484  1.00  0.00     0.195 C 
HETATM   36  C   UNL     1       7.513  22.754  55.674  1.00  0.00     0.262 C 
ENDBRANCH  24  30
ENDBRANCH  23  24
ENDBRANCH  20  23
ENDBRANCH   1  19
TORSDOF 9
ENDMDL
MODEL 4
REMARK VINA RESULT:      -9.1      3.082     11.562
REMARK  9 active torsions:
REMARK  status: ('A' for Active; 'I' for Inactive)
REMARK    1  A    between atoms: C_4  and  S_5 
REMARK    2  A    between atoms: S_5  and  C_6 
REMARK    3  A    between atoms: C_6  and  C_7 
REMARK       I    between atoms: C_7  and  N_8 
REMARK    4  A    between atoms: N_8  and  C_9 
REMARK    5  A    between atoms: N_11  and  C_12 
REMARK    6  A    between atoms: C_12  and  C_13 
REMARK       I    between atoms: C_13  and  N_14 
REMARK    7  A    between atoms: N_14  and  C_15 
REMARK    8  A    between atoms: C_15  and  C_16 
REMARK    9  A    between atoms: C_16  and  N_17 
ROOT
HETATM    1  C   UNL     1       8.564  30.341  59.667  1.00  0.00     0.253 C 
ENDROOT
BRANCH   1   2
HETATM    2  N   UNL     1       8.553  29.633  58.395  1.00  0.00    -0.270 N 
HETATM    3  C   UNL     1       7.783  28.534  58.134  1.00  0.00     0.144 A 
HETATM    4  C   UNL     1       8.204  28.031  56.931  1.00  0.00     0.071 A 
HETATM    5  C   UNL     1       9.212  28.927  56.514  1.00  0.00     0.169 A 
HETATM    6  N   UNL     1       9.462  29.887  57.417  1.00  0.00    -0.183 NA
BRANCH   4   7
HETATM    7  N   UNL     1       7.782  26.881  56.289  1.00  0.00    -0.324 N 
HETATM    8  C   UNL     1       6.619  26.775  55.545  1.00  0.00     0.231 C 
HETATM    9  O   UNL     1       5.916  27.719  55.187  1.00  0.00    -0.272 OA
HETATM   10  H   UNL     1       8.263  26.017  56.517  1.00  0.00     0.169 HD
BRANCH   8  11
HETATM   11  C   UNL     1       6.247  25.354  55.145  1.00  0.00     0.182 C 
BRANCH  11  12
HETATM   12  S   UNL     1       7.045  24.076  56.179  1.00  0.00    -0.121 SA
BRANCH  12  13
HETATM   13  C   UNL     1       7.499  22.780  55.028  1.00  0.00     0.001 A 
HETATM   14  C   UNL     1       7.641  22.926  53.645  1.00  0.00     0.018 A 
HETATM   15  C   UNL     1       7.970  21.828  52.840  1.00  0.00     0.001 A 
HETATM   16  C   UNL     1       8.174  20.575  53.408  1.00  0.00     0.000 A 
HETATM   17  C   UNL     1       8.050  20.415  54.784  1.00  0.00     0.001 A 
HETATM   18  C   UNL     1       7.713  21.509  55.586  1.00  0.00     0.018 A 
ENDBRANCH  12  13
ENDBRANCH  11  12
ENDBRANCH   8  11
ENDBRANCH   4   7
ENDBRANCH   1   2
BRANCH   1  19
HETATM   19  C   UNL     1       7.891  31.698  59.710  1.00  0.00     0.237 C 
HETATM   20  N   UNL     1       6.514  31.726  59.781  1.00  0.00    -0.357 N 
HETATM   21  H   UNL     1       6.101  30.879  60.192  1.00  0.00     0.162 HD
HETATM   22  O   UNL     1       8.535  32.732  59.543  1.00  0.00    -0.272 OA
BRANCH  20  23
HETATM   23  C   UNL     1       5.782  32.975  59.876  1.00  0.00     0.161 C 
BRANCH  23  24
HETATM   24  C   UNL     1       5.390  33.425  61.327  1.00  0.00     0.143 C 
HETATM   25  C   UNL     1       6.533  34.207  62.027  1.00  0.00     0.041 C 
HETATM   26  C   UNL     1       6.264  34.515  63.501  1.00  0.00     0.002 C 
HETATM   27  C   UNL     1       5.972  33.246  64.293  1.00  0.00     0.000 C 
HETATM   28  C   UNL     1       4.862  32.415  63.657  1.00  0.00     0.002 C 
HETATM   29  C   UNL     1       5.137  32.144  62.177  1.00  0.00     0.041 C 
BRANCH  24  30
HETATM   30  N   UNL     1       4.077  34.295  61.331  1.00  0.00    -0.057 N 
HETATM   31  H   UNL     1       3.868  34.474  62.318  1.00  0.00     0.281 HD
HETATM   32  C   UNL     1       4.177  35.694  60.695  1.00  0.00     0.262 C 
HETATM   33  C   UNL     1       2.880  36.470  60.968  1.00  0.00     0.195 C 
HETATM   34  O   UNL     1       1.746  35.779  60.439  1.00  0.00    -0.388 OA
HETATM   35  C   UNL     1       1.596  34.481  61.019  1.00  0.00     0.195 C 
HETATM   36  C   UNL     1       2.830  33.610  60.753  1.00  0.00     0.262 C 
ENDBRANCH  24  30
ENDBRANCH  23  24
ENDBRANCH  20  23
ENDBRANCH   1  19
TORSDOF 9
ENDMDL
MODEL 5
REMARK VINA RESULT:      -9.0      2.984     11.470
REMARK  9 active torsions:
REMARK  status: ('A' for Active; 'I' for Inactive)
REMARK    1  A    between atoms: C_4  and  S_5 
REMARK    2  A    between atoms: S_5  and  C_6 
REMARK    3  A    between atoms: C_6  and  C_7 
REMARK       I    between atoms: C_7  and  N_8 
REMARK    4  A    between atoms: N_8  and  C_9 
REMARK    5  A    between atoms: N_11  and  C_12 
REMARK    6  A    between atoms: C_12  and  C_13 
REMARK       I    between atoms: C_13  and  N_14 
REMARK    7  A    between atoms: N_14  and  C_15 
REMARK    8  A    between atoms: C_15  and  C_16 
REMARK    9  A    between atoms: C_16  and  N_17 
ROOT
HETATM    1  C   UNL     1       8.592  30.287  59.220  1.00  0.00     0.253 C 
ENDROOT
BRANCH   1   2
HETATM    2  N   UNL     1       7.516  29.745  58.402  1.00  0.00    -0.270 N 
HETATM    3  C   UNL     1       7.607  28.587  57.682  1.00  0.00     0.144 A 
HETATM    4  C   UNL     1       6.493  28.525  56.885  1.00  0.00     0.071 A 
HETATM    5  C   UNL     1       5.758  29.681  57.229  1.00  0.00     0.169 A 
HETATM    6  N   UNL     1       6.390  30.453  58.125  1.00  0.00    -0.183 NA
BRANCH   4   7
HETATM    7  N   UNL     1       6.179  27.582  55.925  1.00  0.00    -0.324 N 
HETATM    8  C   UNL     1       5.633  26.338  56.191  1.00  0.00     0.231 C 
HETATM    9  O   UNL     1       5.170  25.982  57.274  1.00  0.00    -0.272 OA
HETATM   10  H   UNL     1       6.527  27.740  54.985  1.00  0.00     0.169 HD
BRANCH   8  11
HETATM   11  C   UNL     1       5.604  25.388  55.002  1.00  0.00     0.182 C 
BRANCH  11  12
HETATM   12  S   UNL     1       7.229  25.196  54.188  1.00  0.00    -0.121 SA
BRANCH  12  13
HETATM   13  C   UNL     1       7.532  23.430  54.190  1.00  0.00     0.001 A 
HETATM   14  C   UNL     1       7.808  22.645  53.066  1.00  0.00     0.018 A 
HETATM   15  C   UNL     1       7.997  21.263  53.187  1.00  0.00     0.001 A 
HETATM   16  C   UNL     1       7.925  20.650  54.434  1.00  0.00     0.000 A 
HETATM   17  C   UNL     1       7.665  21.418  55.564  1.00  0.00     0.001 A 
HETATM   18  C   UNL     1       7.468  22.796  55.441  1.00  0.00     0.018 A 
ENDBRANCH  12  13
ENDBRANCH  11  12
ENDBRANCH   8  11
ENDBRANCH   4   7
ENDBRANCH   1   2
BRANCH   1  19
HETATM   19  C   UNL     1       8.311  31.572  59.971  1.00  0.00     0.237 C 
HETATM   20  N   UNL     1       7.337  31.541  60.948  1.00  0.00    -0.357 N 
HETATM   21  H   UNL     1       7.180  30.608  61.349  1.00  0.00     0.162 HD
HETATM   22  O   UNL     1       8.826  32.635  59.627  1.00  0.00    -0.272 OA
BRANCH  20  23
HETATM   23  C   UNL     1       7.031  32.707  61.755  1.00  0.00     0.161 C 
BRANCH  23  24
HETATM   24  C   UNL     1       5.540  33.191  61.713  1.00  0.00     0.143 C 
HETATM   25  C   UNL     1       4.555  32.032  61.408  1.00  0.00     0.041 C 
HETATM   26  C   UNL     1       3.111  32.484  61.187  1.00  0.00     0.002 C 
HETATM   27  C   UNL     1       3.016  33.522  60.075  1.00  0.00     0.000 C 
HETATM   28  C   UNL     1       3.967  34.693  60.299  1.00  0.00     0.002 C 
HETATM   29  C   UNL     1       5.399  34.217  60.548  1.00  0.00     0.041 C 
BRANCH  24  30
HETATM   30  N   UNL     1       5.121  33.900  63.056  1.00  0.00    -0.057 N 
HETATM   31  H   UNL     1       4.114  34.070  62.976  1.00  0.00     0.281 HD
HETATM   32  C   UNL     1       5.274  33.073  64.346  1.00  0.00     0.262 C 
HETATM   33  C   UNL     1       4.634  33.835  65.516  1.00  0.00     0.195 C 
HETATM   34  O   UNL     1       5.242  35.117  65.690  1.00  0.00    -0.388 OA
HETATM   35  C   UNL     1       5.104  35.933  64.524  1.00  0.00     0.195 C 
HETATM   36  C   UNL     1       5.762  35.273  63.306  1.00  0.00     0.262 C 
ENDBRANCH  24  30
ENDBRANCH  23  24
ENDBRANCH  20  23
ENDBRANCH   1  19
TORSDOF 9
ENDMDL
MODEL 6
REMARK VINA RESULT:      -8.9      2.963     11.542
REMARK  9 active torsions:
REMARK  status: ('A' for Active; 'I' for Inactive)
REMARK    1  A    between atoms: C_4  and  S_5 
REMARK    2  A    between atoms: S_5  and  C_6 
REMARK    3  A    between atoms: C_6  and  C_7 
REMARK       I    between atoms: C_7  and  N_8 
REMARK    4  A    between atoms: N_8  and  C_9 
REMARK    5  A    between atoms: N_11  and  C_12 
REMARK    6  A    between atoms: C_12  and  C_13 
REMARK       I    between atoms: C_13  and  N_14 
REMARK    7  A    between atoms: N_14  and  C_15 
REMARK    8  A    between atoms: C_15  and  C_16 
REMARK    9  A    between atoms: C_16  and  N_17 
ROOT
HETATM    1  C   UNL     1       3.493  30.927  57.849  1.00  0.00     0.253 C 
ENDROOT
BRANCH   1   2
HETATM    2  N   UNL     1       4.727  30.293  57.406  1.00  0.00    -0.270 N 
HETATM    3  C   UNL     1       4.781  29.251  56.523  1.00  0.00     0.144 A 
HETATM    4  C   UNL     1       6.074  28.796  56.524  1.00  0.00     0.071 A 
HETATM    5  C   UNL     1       6.744  29.662  57.416  1.00  0.00     0.169 A 
HETATM    6  N   UNL     1       5.925  30.555  57.990  1.00  0.00    -0.183 NA
BRANCH   4   7
HETATM    7  N   UNL     1       6.598  27.707  55.853  1.00  0.00    -0.324 N 
HETATM    8  C   UNL     1       6.393  26.385  56.210  1.00  0.00     0.231 C 
HETATM    9  O   UNL     1       5.567  25.993  57.034  1.00  0.00    -0.272 OA
HETATM   10  H   UNL     1       7.316  27.890  55.159  1.00  0.00     0.169 HD
BRANCH   8  11
HETATM   11  C   UNL     1       7.266  25.383  55.471  1.00  0.00     0.182 C 
BRANCH  11  12
HETATM   12  S   UNL     1       7.744  23.945  56.493  1.00  0.00    -0.121 SA
BRANCH  12  13
HETATM   13  C   UNL     1       7.877  22.587  55.332  1.00  0.00     0.001 A 
HETATM   14  C   UNL     1       8.096  21.246  55.662  1.00  0.00     0.018 A 
HETATM   15  C   UNL     1       8.214  20.273  54.663  1.00  0.00     0.001 A 
HETATM   16  C   UNL     1       8.102  20.625  53.321  1.00  0.00     0.000 A 
HETATM   17  C   UNL     1       7.871  21.953  52.976  1.00  0.00     0.001 A 
HETATM   18  C   UNL     1       7.762  22.924  53.974  1.00  0.00     0.018 A 
ENDBRANCH  12  13
ENDBRANCH  11  12
ENDBRANCH   8  11
ENDBRANCH   4   7
ENDBRANCH   1   2
BRANCH   1  19
HETATM   19  C   UNL     1       3.593  31.910  58.997  1.00  0.00     0.237 C 
HETATM   20  N   UNL     1       4.083  31.444  60.198  1.00  0.00    -0.357 N 
HETATM   21  H   UNL     1       4.692  30.620  60.107  1.00  0.00     0.162 HD
HETATM   22  O   UNL     1       3.121  33.043  58.905  1.00  0.00    -0.272 OA
BRANCH  20  23
HETATM   23  C   UNL     1       4.262  32.321  61.340  1.00  0.00     0.161 C 
BRANCH  23  24
HETATM   24  C   UNL     1       5.748  32.655  61.714  1.00  0.00     0.143 C 
HETATM   25  C   UNL     1       6.672  32.699  60.468  1.00  0.00     0.041 C 
HETATM   26  C   UNL     1       8.157  32.850  60.800  1.00  0.00     0.002 C 
HETATM   27  C   UNL     1       8.636  31.744  61.734  1.00  0.00     0.000 C 
HETATM   28  C   UNL     1       7.767  31.631  62.982  1.00  0.00     0.002 C 
HETATM   29  C   UNL     1       6.283  31.512  62.629  1.00  0.00     0.041 C 
BRANCH  24  30
HETATM   30  N   UNL     1       5.857  34.016  62.500  1.00  0.00    -0.057 N 
HETATM   31  H   UNL     1       6.861  34.192  62.609  1.00  0.00     0.281 HD
HETATM   32  C   UNL     1       5.320  35.268  61.784  1.00  0.00     0.262 C 
HETATM   33  C   UNL     1       5.690  36.517  62.598  1.00  0.00     0.195 C 
HETATM   34  O   UNL     1       5.152  36.449  63.920  1.00  0.00    -0.388 OA
HETATM   35  C   UNL     1       5.642  35.313  64.636  1.00  0.00     0.195 C 
HETATM   36  C   UNL     1       5.274  34.006  63.921  1.00  0.00     0.262 C 
ENDBRANCH  24  30
ENDBRANCH  23  24
ENDBRANCH  20  23
ENDBRANCH   1  19
TORSDOF 9
ENDMDL
MODEL 7
REMARK VINA RESULT:      -8.9      3.384     11.578
REMARK  9 active torsions:
REMARK  status: ('A' for Active; 'I' for Inactive)
REMARK    1  A    between atoms: C_4  and  S_5 
REMARK    2  A    between atoms: S_5  and  C_6 
REMARK    3  A    between atoms: C_6  and  C_7 
REMARK       I    between atoms: C_7  and  N_8 
REMARK    4  A    between atoms: N_8  and  C_9 
REMARK    5  A    between atoms: N_11  and  C_12 
REMARK    6  A    between atoms: C_12  and  C_13 
REMARK       I    between atoms: C_13  and  N_14 
REMARK    7  A    between atoms: N_14  and  C_15 
REMARK    8  A    between atoms: C_15  and  C_16 
REMARK    9  A    between atoms: C_16  and  N_17 
ROOT
HETATM    1  C   UNL     1       9.296  32.298  61.057  1.00  0.00     0.253 C 
ENDROOT
BRANCH   1   2
HETATM    2  N   UNL     1       9.346  31.631  59.762  1.00  0.00    -0.270 N 
HETATM    3  C   UNL     1       8.662  30.487  59.461  1.00  0.00     0.144 A 
HETATM    4  C   UNL     1       9.127  30.054  58.246  1.00  0.00     0.071 A 
HETATM    5  C   UNL     1      10.068  31.036  57.867  1.00  0.00     0.169 A 
HETATM    6  N   UNL     1      10.240  31.982  58.802  1.00  0.00    -0.183 NA
BRANCH   4   7
HETATM    7  N   UNL     1       8.795  28.898  57.566  1.00  0.00    -0.324 N 
HETATM    8  C   UNL     1       7.847  28.818  56.560  1.00  0.00     0.231 C 
HETATM    9  O   UNL     1       7.323  29.780  56.000  1.00  0.00    -0.272 OA
HETATM   10  H   UNL     1       9.143  28.021  57.941  1.00  0.00     0.169 HD
BRANCH   8  11
HETATM   11  C   UNL     1       7.486  27.402  56.136  1.00  0.00     0.182 C 
BRANCH  11  12
HETATM   12  S   UNL     1       7.273  27.217  54.331  1.00  0.00    -0.121 SA
BRANCH  12  13
HETATM   13  C   UNL     1       7.509  25.467  54.023  1.00  0.00     0.001 A 
HETATM   14  C   UNL     1       7.832  24.889  52.792  1.00  0.00     0.018 A 
HETATM   15  C   UNL     1       7.960  23.501  52.665  1.00  0.00     0.001 A 
HETATM   16  C   UNL     1       7.779  22.674  53.769  1.00  0.00     0.000 A 
HETATM   17  C   UNL     1       7.471  23.234  55.004  1.00  0.00     0.001 A 
HETATM   18  C   UNL     1       7.335  24.619  55.128  1.00  0.00     0.018 A 
ENDBRANCH  12  13
ENDBRANCH  11  12
ENDBRANCH   8  11
ENDBRANCH   4   7
ENDBRANCH   1   2
BRANCH   1  19
HETATM   19  C   UNL     1       8.046  32.102  61.888  1.00  0.00     0.237 C 
HETATM   20  N   UNL     1       6.974  32.932  61.638  1.00  0.00    -0.357 N 
HETATM   21  H   UNL     1       6.962  33.320  60.685  1.00  0.00     0.162 HD
HETATM   22  O   UNL     1       8.035  31.330  62.847  1.00  0.00    -0.272 OA
BRANCH  20  23
HETATM   23  C   UNL     1       5.717  32.789  62.348  1.00  0.00     0.161 C 
BRANCH  23  24
HETATM   24  C   UNL     1       5.025  34.127  62.783  1.00  0.00     0.143 C 
HETATM   25  C   UNL     1       6.015  35.321  62.803  1.00  0.00     0.041 C 
HETATM   26  C   UNL     1       5.428  36.607  63.385  1.00  0.00     0.002 C 
HETATM   27  C   UNL     1       4.886  36.387  64.793  1.00  0.00     0.000 C 
HETATM   28  C   UNL     1       3.909  35.218  64.856  1.00  0.00     0.002 C 
HETATM   29  C   UNL     1       4.506  33.950  64.242  1.00  0.00     0.041 C 
BRANCH  24  30
HETATM   30  N   UNL     1       3.799  34.475  61.856  1.00  0.00    -0.057 N 
HETATM   31  H   UNL     1       3.757  35.499  61.826  1.00  0.00     0.281 HD
HETATM   32  C   UNL     1       3.911  34.049  60.380  1.00  0.00     0.262 C 
HETATM   33  C   UNL     1       2.735  34.643  59.590  1.00  0.00     0.195 C 
HETATM   34  O   UNL     1       1.483  34.208  60.125  1.00  0.00    -0.388 OA
HETATM   35  C   UNL     1       1.322  34.603  61.489  1.00  0.00     0.195 C 
HETATM   36  C   UNL     1       2.429  34.012  62.371  1.00  0.00     0.262 C 
ENDBRANCH  24  30
ENDBRANCH  23  24
ENDBRANCH  20  23
ENDBRANCH   1  19
TORSDOF 9
ENDMDL
MODEL 8
REMARK VINA RESULT:      -8.8      5.932     10.088
REMARK  9 active torsions:
REMARK  status: ('A' for Active; 'I' for Inactive)
REMARK    1  A    between atoms: C_4  and  S_5 
REMARK    2  A    between atoms: S_5  and  C_6 
REMARK    3  A    between atoms: C_6  and  C_7 
REMARK       I    between atoms: C_7  and  N_8 
REMARK    4  A    between atoms: N_8  and  C_9 
REMARK    5  A    between atoms: N_11  and  C_12 
REMARK    6  A    between atoms: C_12  and  C_13 
REMARK       I    between atoms: C_13  and  N_14 
REMARK    7  A    between atoms: N_14  and  C_15 
REMARK    8  A    between atoms: C_15  and  C_16 
REMARK    9  A    between atoms: C_16  and  N_17 
ROOT
HETATM    1  C   UNL     1       3.862  30.047  52.891  1.00  0.00     0.253 C 
ENDROOT
BRANCH   1   2
HETATM    2  N   UNL     1       4.537  28.786  53.166  1.00  0.00    -0.270 N 
HETATM    3  C   UNL     1       4.309  28.018  54.273  1.00  0.00     0.144 A 
HETATM    4  C   UNL     1       5.272  27.042  54.285  1.00  0.00     0.071 A 
HETATM    5  C   UNL     1       6.017  27.277  53.109  1.00  0.00     0.169 A 
HETATM    6  N   UNL     1       5.603  28.362  52.438  1.00  0.00    -0.183 NA
BRANCH   4   7
HETATM    7  N   UNL     1       5.501  26.078  55.249  1.00  0.00    -0.324 N 
HETATM    8  C   UNL     1       6.684  25.934  55.955  1.00  0.00     0.231 C 
HETATM    9  O   UNL     1       7.605  26.749  55.971  1.00  0.00    -0.272 OA
HETATM   10  H   UNL     1       4.825  25.324  55.324  1.00  0.00     0.169 HD
BRANCH   8  11
HETATM   11  C   UNL     1       6.782  24.658  56.779  1.00  0.00     0.182 C 
BRANCH  11  12
HETATM   12  S   UNL     1       8.410  23.838  56.655  1.00  0.00    -0.121 SA
BRANCH  12  13
HETATM   13  C   UNL     1       8.238  22.690  55.291  1.00  0.00     0.001 A 
HETATM   14  C   UNL     1       7.999  23.033  53.957  1.00  0.00     0.018 A 
HETATM   15  C   UNL     1       7.850  22.043  52.978  1.00  0.00     0.001 A 
HETATM   16  C   UNL     1       7.951  20.698  53.318  1.00  0.00     0.000 A 
HETATM   17  C   UNL     1       8.201  20.339  54.638  1.00  0.00     0.001 A 
HETATM   18  C   UNL     1       8.341  21.328  55.616  1.00  0.00     0.018 A 
ENDBRANCH  12  13
ENDBRANCH  11  12
ENDBRANCH   8  11
ENDBRANCH   4   7
ENDBRANCH   1   2
BRANCH   1  19
HETATM   19  C   UNL     1       3.030  30.126  51.628  1.00  0.00     0.237 C 
HETATM   20  N   UNL     1       2.590  28.941  51.077  1.00  0.00    -0.357 N 
HETATM   21  H   UNL     1       2.516  28.170  51.754  1.00  0.00     0.162 HD
HETATM   22  O   UNL     1       2.875  31.193  51.036  1.00  0.00    -0.272 OA
BRANCH  20  23
HETATM   23  C   UNL     1       1.746  28.917  49.897  1.00  0.00     0.161 C 
BRANCH  23  24
HETATM   24  C   UNL     1       2.354  28.201  48.641  1.00  0.00     0.143 C 
HETATM   25  C   UNL     1       1.363  27.190  48.005  1.00  0.00     0.041 C 
HETATM   26  C   UNL     1       1.971  26.344  46.886  1.00  0.00     0.002 C 
HETATM   27  C   UNL     1       3.209  25.594  47.362  1.00  0.00     0.000 C 
HETATM   28  C   UNL     1       4.229  26.523  48.011  1.00  0.00     0.002 C 
HETATM   29  C   UNL     1       3.594  27.381  49.107  1.00  0.00     0.041 C 
BRANCH  24  30
HETATM   30  N   UNL     1       2.821  29.237  47.550  1.00  0.00    -0.057 N 
HETATM   31  H   UNL     1       3.096  28.677  46.738  1.00  0.00     0.281 HD
HETATM   32  C   UNL     1       1.747  30.201  47.013  1.00  0.00     0.262 C 
HETATM   33  C   UNL     1       2.321  30.990  45.827  1.00  0.00     0.195 C 
HETATM   34  O   UNL     1       3.482  31.729  46.213  1.00  0.00    -0.388 OA
HETATM   35  C   UNL     1       4.519  30.873  46.697  1.00  0.00     0.195 C 
HETATM   36  C   UNL     1       4.053  30.075  47.921  1.00  0.00     0.262 C 
ENDBRANCH  24  30
ENDBRANCH  23  24
ENDBRANCH  20  23
ENDBRANCH   1  19
TORSDOF 9
ENDMDL
MODEL 9
REMARK VINA RESULT:      -8.8      2.983     11.110
REMARK  9 active torsions:
REMARK  status: ('A' for Active; 'I' for Inactive)
REMARK    1  A    between atoms: C_4  and  S_5 
REMARK    2  A    between atoms: S_5  and  C_6 
REMARK    3  A    between atoms: C_6  and  C_7 
REMARK       I    between atoms: C_7  and  N_8 
REMARK    4  A    between atoms: N_8  and  C_9 
REMARK    5  A    between atoms: N_11  and  C_12 
REMARK    6  A    between atoms: C_12  and  C_13 
REMARK       I    between atoms: C_13  and  N_14 
REMARK    7  A    between atoms: N_14  and  C_15 
REMARK    8  A    between atoms: C_15  and  C_16 
REMARK    9  A    between atoms: C_16  and  N_17 
ROOT
HETATM    1  C   UNL     1       4.034  30.455  57.988  1.00  0.00     0.253 C 
ENDROOT
BRANCH   1   2
HETATM    2  N   UNL     1       5.191  29.738  57.471  1.00  0.00    -0.270 N 
HETATM    3  C   UNL     1       5.160  28.442  57.039  1.00  0.00     0.144 A 
HETATM    4  C   UNL     1       6.461  28.059  56.837  1.00  0.00     0.071 A 
HETATM    5  C   UNL     1       7.212  29.217  57.135  1.00  0.00     0.169 A 
HETATM    6  N   UNL     1       6.451  30.236  57.561  1.00  0.00    -0.183 NA
BRANCH   4   7
HETATM    7  N   UNL     1       6.940  26.813  56.478  1.00  0.00    -0.324 N 
HETATM    8  C   UNL     1       7.664  25.976  57.310  1.00  0.00     0.231 C 
HETATM    9  O   UNL     1       7.804  26.128  58.523  1.00  0.00    -0.272 OA
HETATM   10  H   UNL     1       6.909  26.568  55.493  1.00  0.00     0.169 HD
BRANCH   8  11
HETATM   11  C   UNL     1       8.288  24.773  56.617  1.00  0.00     0.182 C 
BRANCH  11  12
HETATM   12  S   UNL     1       7.691  24.530  54.907  1.00  0.00    -0.121 SA
BRANCH  12  13
HETATM   13  C   UNL     1       7.930  22.783  54.587  1.00  0.00     0.001 A 
HETATM   14  C   UNL     1       8.097  21.789  55.556  1.00  0.00     0.018 A 
HETATM   15  C   UNL     1       8.309  20.456  55.183  1.00  0.00     0.001 A 
HETATM   16  C   UNL     1       8.343  20.098  53.839  1.00  0.00     0.000 A 
HETATM   17  C   UNL     1       8.165  21.072  52.863  1.00  0.00     0.001 A 
HETATM   18  C   UNL     1       7.962  22.404  53.236  1.00  0.00     0.018 A 
ENDBRANCH  12  13
ENDBRANCH  11  12
ENDBRANCH   8  11
ENDBRANCH   4   7
ENDBRANCH   1   2
BRANCH   1  19
HETATM   19  C   UNL     1       4.261  31.867  58.487  1.00  0.00     0.237 C 
HETATM   20  N   UNL     1       4.879  32.022  59.710  1.00  0.00    -0.357 N 
HETATM   21  H   UNL     1       5.472  31.227  59.979  1.00  0.00     0.162 HD
HETATM   22  O   UNL     1       3.785  32.835  57.894  1.00  0.00    -0.272 OA
BRANCH  20  23
HETATM   23  C   UNL     1       5.184  33.334  60.248  1.00  0.00     0.161 C 
BRANCH  23  24
HETATM   24  C   UNL     1       5.736  33.356  61.716  1.00  0.00     0.143 C 
HETATM   25  C   UNL     1       4.753  32.702  62.723  1.00  0.00     0.041 C 
HETATM   26  C   UNL     1       5.169  32.854  64.186  1.00  0.00     0.002 C 
HETATM   27  C   UNL     1       5.365  34.318  64.563  1.00  0.00     0.000 C 
HETATM   28  C   UNL     1       6.314  35.034  63.608  1.00  0.00     0.002 C 
HETATM   29  C   UNL     1       5.896  34.845  62.148  1.00  0.00     0.041 C 
BRANCH  24  30
HETATM   30  N   UNL     1       7.142  32.652  61.818  1.00  0.00    -0.057 N 
HETATM   31  H   UNL     1       7.664  33.179  62.525  1.00  0.00     0.281 HD
HETATM   32  C   UNL     1       7.148  31.201  62.334  1.00  0.00     0.262 C 
HETATM   33  C   UNL     1       8.598  30.750  62.562  1.00  0.00     0.195 C 
HETATM   34  O   UNL     1       9.360  30.836  61.356  1.00  0.00    -0.388 OA
HETATM   35  C   UNL     1       9.405  32.172  60.850  1.00  0.00     0.195 C 
HETATM   36  C   UNL     1       7.996  32.695  60.543  1.00  0.00     0.262 C 
ENDBRANCH  24  30
ENDBRANCH  23  24
ENDBRANCH  20  23
ENDBRANCH   1  19
TORSDOF 9
ENDMDL
MODEL 10
REMARK VINA RESULT:      -8.7      3.172     11.788
REMARK  9 active torsions:
REMARK  status: ('A' for Active; 'I' for Inactive)
REMARK    1  A    between atoms: C_4  and  S_5 
REMARK    2  A    between atoms: S_5  and  C_6 
REMARK    3  A    between atoms: C_6  and  C_7 
REMARK       I    between atoms: C_7  and  N_8 
REMARK    4  A    between atoms: N_8  and  C_9 
REMARK    5  A    between atoms: N_11  and  C_12 
REMARK    6  A    between atoms: C_12  and  C_13 
REMARK       I    between atoms: C_13  and  N_14 
REMARK    7  A    between atoms: N_14  and  C_15 
REMARK    8  A    between atoms: C_15  and  C_16 
REMARK    9  A    between atoms: C_16  and  N_17 
ROOT
HETATM    1  C   UNL     1       4.807  31.437  57.650  1.00  0.00     0.253 C 
ENDROOT
BRANCH   1   2
HETATM    2  N   UNL     1       5.587  30.243  57.356  1.00  0.00    -0.270 N 
HETATM    3  C   UNL     1       5.157  29.224  56.553  1.00  0.00     0.144 A 
HETATM    4  C   UNL     1       6.059  28.200  56.694  1.00  0.00     0.071 A 
HETATM    5  C   UNL     1       7.032  28.716  57.578  1.00  0.00     0.169 A 
HETATM    6  N   UNL     1       6.735  29.947  58.020  1.00  0.00    -0.183 NA
BRANCH   4   7
HETATM    7  N   UNL     1       6.007  26.933  56.144  1.00  0.00    -0.324 N 
HETATM    8  C   UNL     1       6.628  26.559  54.965  1.00  0.00     0.231 C 
HETATM    9  O   UNL     1       7.463  27.229  54.358  1.00  0.00    -0.272 OA
HETATM   10  H   UNL     1       5.335  26.281  56.537  1.00  0.00     0.169 HD
BRANCH   8  11
HETATM   11  C   UNL     1       6.227  25.188  54.441  1.00  0.00     0.182 C 
BRANCH  11  12
HETATM   12  S   UNL     1       7.422  24.488  53.249  1.00  0.00    -0.121 SA
BRANCH  12  13
HETATM   13  C   UNL     1       7.720  22.819  53.831  1.00  0.00     0.001 A 
HETATM   14  C   UNL     1       7.961  21.702  53.026  1.00  0.00     0.018 A 
HETATM   15  C   UNL     1       8.148  20.437  53.595  1.00  0.00     0.001 A 
HETATM   16  C   UNL     1       8.111  20.274  54.977  1.00  0.00     0.000 A 
HETATM   17  C   UNL     1       7.886  21.378  55.793  1.00  0.00     0.001 A 
HETATM   18  C   UNL     1       7.690  22.639  55.223  1.00  0.00     0.018 A 
ENDBRANCH  12  13
ENDBRANCH  11  12
ENDBRANCH   8  11
ENDBRANCH   4   7
ENDBRANCH   1   2
BRANCH   1  19
HETATM   19  C   UNL     1       4.120  31.501  58.998  1.00  0.00     0.237 C 
HETATM   20  N   UNL     1       4.847  31.985  60.065  1.00  0.00    -0.357 N 
HETATM   21  H   UNL     1       5.615  32.613  59.794  1.00  0.00     0.162 HD
HETATM   22  O   UNL     1       3.006  31.005  59.168  1.00  0.00    -0.272 OA
BRANCH  20  23
HETATM   23  C   UNL     1       4.260  32.130  61.384  1.00  0.00     0.161 C 
BRANCH  23  24
HETATM   24  C   UNL     1       4.295  33.576  61.989  1.00  0.00     0.143 C 
HETATM   25  C   UNL     1       2.916  34.010  62.552  1.00  0.00     0.041 C 
HETATM   26  C   UNL     1       2.856  35.473  62.994  1.00  0.00     0.002 C 
HETATM   27  C   UNL     1       3.249  36.415  61.861  1.00  0.00     0.000 C 
HETATM   28  C   UNL     1       4.594  36.044  61.247  1.00  0.00     0.002 C 
HETATM   29  C   UNL     1       4.642  34.570  60.840  1.00  0.00     0.041 C 
BRANCH  24  30
HETATM   30  N   UNL     1       5.389  33.710  63.114  1.00  0.00    -0.057 N 
HETATM   31  H   UNL     1       5.729  34.675  63.055  1.00  0.00     0.281 HD
HETATM   32  C   UNL     1       4.904  33.557  64.567  1.00  0.00     0.262 C 
HETATM   33  C   UNL     1       6.049  33.918  65.525  1.00  0.00     0.195 C 
HETATM   34  O   UNL     1       7.187  33.080  65.306  1.00  0.00    -0.388 OA
HETATM   35  C   UNL     1       7.690  33.206  63.974  1.00  0.00     0.195 C 
HETATM   36  C   UNL     1       6.626  32.816  62.940  1.00  0.00     0.262 C 
ENDBRANCH  24  30
ENDBRANCH  23  24
ENDBRANCH  20  23
ENDBRANCH   1  19
TORSDOF 9
ENDMDL
