MODEL 1
REMARK VINA RESULT:      -8.2      0.000      0.000
REMARK  3 active torsions:
REMARK  status: ('A' for Active; 'I' for Inactive)
REMARK    1  A    between atoms: C_11  and  N_12 
REMARK       I    between atoms: N_12  and  C_13 
REMARK       I    between atoms: C_13  and  N_14 
REMARK    2  A    between atoms: N_14  and  C_15 
REMARK    3  A    between atoms: C_16  and  O_17 
ROOT
HETATM    1  N   UNL     1       6.062  25.898  52.632  1.00  0.00    -0.338 N 
HETATM    2  C   UNL     1       6.943  24.863  52.819  1.00  0.00     0.321 C 
HETATM    3  N   UNL     1       6.519  23.896  53.691  1.00  0.00    -0.306 N 
HETATM    4  O   UNL     1       7.985  24.885  52.176  1.00  0.00    -0.247 OA
HETATM    5  H   UNL     1       6.445  26.504  51.918  1.00  0.00     0.164 HD
HETATM    6  H   UNL     1       5.558  23.627  53.529  1.00  0.00     0.171 HD
ENDROOT
BRANCH   1   7
HETATM    7  C   UNL     1       5.135  26.411  53.628  1.00  0.00     0.091 C 
HETATM    8  C   UNL     1       4.194  27.481  53.070  1.00  0.00     0.063 C 
HETATM    9  C   UNL     1       4.766  28.903  52.950  1.00  0.00     0.121 C 
HETATM   10  N   UNL     1       5.559  29.263  54.186  1.00  0.00    -0.059 N 
HETATM   11  C   UNL     1       5.615  29.132  51.695  1.00  0.00     0.046 C 
HETATM   12  C   UNL     1       3.592  29.907  52.890  1.00  0.00     0.046 C 
HETATM   13  C   UNL     1       6.505  28.263  54.822  1.00  0.00     0.121 C 
HETATM   14  H   UNL     1       4.881  29.533  54.914  1.00  0.00     0.279 HD
HETATM   15  H   UNL     1       6.081  30.134  54.003  1.00  0.00     0.279 HD
HETATM   16  C   UNL     1       7.846  28.247  54.080  1.00  0.00     0.046 C 
HETATM   17  C   UNL     1       6.778  28.789  56.248  1.00  0.00     0.046 C 
HETATM   18  C   UNL     1       5.821  26.893  54.912  1.00  0.00     0.063 C 
ENDBRANCH   1   7
BRANCH   3  19
HETATM   19  C   UNL     1       7.372  22.864  54.155  1.00  0.00     0.072 A 
HETATM   20  C   UNL     1       7.857  22.809  55.479  1.00  0.00     0.095 A 
HETATM   21  C   UNL     1       8.729  21.773  55.845  1.00  0.00     0.042 A 
HETATM   22  C   UNL     1       9.096  20.797  54.916  1.00  0.00     0.045 A 
HETATM   23  C   UNL     1       8.570  20.839  53.633  1.00  0.00     0.118 A 
HETATM   24  F   UNL     1       8.907  19.891  52.749  1.00  0.00    -0.206 F 
HETATM   25  C   UNL     1       7.702  21.852  53.247  1.00  0.00     0.074 A 
BRANCH  20  26
HETATM   26  O   UNL     1       7.351  23.724  56.370  1.00  0.00    -0.354 OA
HETATM   27  C   UNL     1       8.254  24.723  56.834  1.00  0.00     0.210 C 
ENDBRANCH  20  26
ENDBRANCH   3  19
TORSDOF 3
ENDMDL
MODEL 2
REMARK VINA RESULT:      -8.1      1.687      2.107
REMARK  3 active torsions:
REMARK  status: ('A' for Active; 'I' for Inactive)
REMARK    1  A    between atoms: C_11  and  N_12 
REMARK       I    between atoms: N_12  and  C_13 
REMARK       I    between atoms: C_13  and  N_14 
REMARK    2  A    between atoms: N_14  and  C_15 
REMARK    3  A    between atoms: C_16  and  O_17 
ROOT
HETATM    1  N   UNL     1       6.537  25.734  51.214  1.00  0.00    -0.338 N 
HETATM    2  C   UNL     1       7.332  24.969  52.031  1.00  0.00     0.321 C 
HETATM    3  N   UNL     1       6.743  23.824  52.499  1.00  0.00    -0.306 N 
HETATM    4  O   UNL     1       8.477  25.355  52.228  1.00  0.00    -0.247 OA
HETATM    5  H   UNL     1       7.098  26.504  50.872  1.00  0.00     0.164 HD
HETATM    6  H   UNL     1       6.250  23.322  51.774  1.00  0.00     0.171 HD
ENDROOT
BRANCH   1   7
HETATM    7  C   UNL     1       5.091  25.846  51.306  1.00  0.00     0.091 C 
HETATM    8  C   UNL     1       4.471  26.554  50.099  1.00  0.00     0.063 C 
HETATM    9  C   UNL     1       4.535  28.090  50.097  1.00  0.00     0.121 C 
HETATM   10  N   UNL     1       4.193  28.638  51.464  1.00  0.00    -0.059 N 
HETATM   11  C   UNL     1       5.876  28.660  49.621  1.00  0.00     0.046 C 
HETATM   12  C   UNL     1       3.450  28.630  49.138  1.00  0.00     0.046 C 
HETATM   13  C   UNL     1       4.745  27.994  52.721  1.00  0.00     0.121 C 
HETATM   14  H   UNL     1       3.166  28.621  51.549  1.00  0.00     0.279 HD
HETATM   15  H   UNL     1       4.424  29.644  51.486  1.00  0.00     0.279 HD
HETATM   16  C   UNL     1       6.174  28.477  52.987  1.00  0.00     0.046 C 
HETATM   17  C   UNL     1       3.865  28.509  53.879  1.00  0.00     0.046 C 
HETATM   18  C   UNL     1       4.606  26.470  52.621  1.00  0.00     0.063 C 
ENDBRANCH   1   7
BRANCH   3  19
HETATM   19  C   UNL     1       7.337  23.021  53.503  1.00  0.00     0.072 A 
HETATM   20  C   UNL     1       7.309  23.361  54.873  1.00  0.00     0.095 A 
HETATM   21  C   UNL     1       7.956  22.529  55.798  1.00  0.00     0.042 A 
HETATM   22  C   UNL     1       8.602  21.366  55.372  1.00  0.00     0.045 A 
HETATM   23  C   UNL     1       8.577  21.021  54.029  1.00  0.00     0.118 A 
HETATM   24  F   UNL     1       9.180  19.896  53.623  1.00  0.00    -0.206 F 
HETATM   25  C   UNL     1       7.941  21.827  53.093  1.00  0.00     0.074 A 
BRANCH  20  26
HETATM   26  O   UNL     1       6.545  24.445  55.233  1.00  0.00    -0.354 OA
HETATM   27  C   UNL     1       7.251  25.599  55.675  1.00  0.00     0.210 C 
ENDBRANCH  20  26
ENDBRANCH   3  19
TORSDOF 3
ENDMDL
MODEL 3
REMARK VINA RESULT:      -8.1      1.650      2.000
REMARK  3 active torsions:
REMARK  status: ('A' for Active; 'I' for Inactive)
REMARK    1  A    between atoms: C_11  and  N_12 
REMARK       I    between atoms: N_12  and  C_13 
REMARK       I    between atoms: C_13  and  N_14 
REMARK    2  A    between atoms: N_14  and  C_15 
REMARK    3  A    between atoms: C_16  and  O_17 
ROOT
HETATM    1  N   UNL     1       6.533  26.303  54.784  1.00  0.00    -0.338 N 
HETATM    2  C   UNL     1       7.199  25.164  54.408  1.00  0.00     0.321 C 
HETATM    3  N   UNL     1       6.839  24.034  55.093  1.00  0.00    -0.306 N 
HETATM    4  O   UNL     1       8.007  25.258  53.493  1.00  0.00    -0.247 OA
HETATM    5  H   UNL     1       6.823  27.049  54.165  1.00  0.00     0.164 HD
HETATM    6  H   UNL     1       5.837  23.943  55.184  1.00  0.00     0.171 HD
ENDROOT
BRANCH   1   7
HETATM    7  C   UNL     1       6.039  26.593  56.121  1.00  0.00     0.091 C 
HETATM    8  C   UNL     1       4.772  27.450  56.114  1.00  0.00     0.063 C 
HETATM    9  C   UNL     1       4.967  28.962  55.919  1.00  0.00     0.121 C 
HETATM   10  N   UNL     1       6.128  29.460  56.749  1.00  0.00    -0.059 N 
HETATM   11  C   UNL     1       5.145  29.386  54.457  1.00  0.00     0.046 C 
HETATM   12  C   UNL     1       3.716  29.697  56.452  1.00  0.00     0.046 C 
HETATM   13  C   UNL     1       7.421  28.671  56.831  1.00  0.00     0.121 C 
HETATM   14  H   UNL     1       5.786  29.568  57.716  1.00  0.00     0.279 HD
HETATM   15  H   UNL     1       6.354  30.425  56.460  1.00  0.00     0.279 HD
HETATM   16  C   UNL     1       8.297  28.950  55.607  1.00  0.00     0.046 C 
HETATM   17  C   UNL     1       8.170  29.219  58.065  1.00  0.00     0.046 C 
HETATM   18  C   UNL     1       7.104  27.187  57.052  1.00  0.00     0.063 C 
ENDBRANCH   1   7
BRANCH   3  19
HETATM   19  C   UNL     1       7.554  22.816  54.979  1.00  0.00     0.072 A 
HETATM   20  C   UNL     1       8.305  22.266  56.041  1.00  0.00     0.095 A 
HETATM   21  C   UNL     1       9.016  21.076  55.831  1.00  0.00     0.042 A 
HETATM   22  C   UNL     1       8.965  20.431  54.592  1.00  0.00     0.045 A 
HETATM   23  C   UNL     1       8.183  20.959  53.576  1.00  0.00     0.118 A 
HETATM   24  F   UNL     1       8.119  20.330  52.396  1.00  0.00    -0.206 F 
HETATM   25  C   UNL     1       7.467  22.135  53.760  1.00  0.00     0.074 A 
BRANCH  20  26
HETATM   26  O   UNL     1       8.202  22.882  57.264  1.00  0.00    -0.354 OA
HETATM   27  C   UNL     1       8.976  24.063  57.446  1.00  0.00     0.210 C 
ENDBRANCH  20  26
ENDBRANCH   3  19
TORSDOF 3
ENDMDL
MODEL 4
REMARK VINA RESULT:      -7.9      2.476      3.391
REMARK  3 active torsions:
REMARK  status: ('A' for Active; 'I' for Inactive)
REMARK    1  A    between atoms: C_11  and  N_12 
REMARK       I    between atoms: N_12  and  C_13 
REMARK       I    between atoms: C_13  and  N_14 
REMARK    2  A    between atoms: N_14  and  C_15 
REMARK    3  A    between atoms: C_16  and  O_17 
ROOT
HETATM    1  N   UNL     1       6.479  25.634  51.161  1.00  0.00    -0.338 N 
HETATM    2  C   UNL     1       7.298  25.180  52.164  1.00  0.00     0.321 C 
HETATM    3  N   UNL     1       6.790  24.142  52.898  1.00  0.00    -0.306 N 
HETATM    4  O   UNL     1       8.396  25.711  52.280  1.00  0.00    -0.247 OA
HETATM    5  H   UNL     1       6.986  26.341  50.644  1.00  0.00     0.164 HD
HETATM    6  H   UNL     1       6.375  23.428  52.316  1.00  0.00     0.171 HD
ENDROOT
BRANCH   1   7
HETATM    7  C   UNL     1       5.025  25.628  51.189  1.00  0.00     0.091 C 
HETATM    8  C   UNL     1       4.403  26.102  49.873  1.00  0.00     0.063 C 
HETATM    9  C   UNL     1       4.338  27.622  49.652  1.00  0.00     0.121 C 
HETATM   10  N   UNL     1       3.891  28.324  50.915  1.00  0.00    -0.059 N 
HETATM   11  C   UNL     1       5.646  28.237  49.143  1.00  0.00     0.046 C 
HETATM   12  C   UNL     1       3.255  27.923  48.592  1.00  0.00     0.046 C 
HETATM   13  C   UNL     1       4.439  27.914  52.268  1.00  0.00     0.121 C 
HETATM   14  H   UNL     1       2.866  28.227  50.969  1.00  0.00     0.279 HD
HETATM   15  H   UNL     1       4.036  29.339  50.799  1.00  0.00     0.279 HD
HETATM   16  C   UNL     1       5.809  28.555  52.508  1.00  0.00     0.046 C 
HETATM   17  C   UNL     1       3.467  28.506  53.312  1.00  0.00     0.046 C 
HETATM   18  C   UNL     1       4.432  26.385  52.384  1.00  0.00     0.063 C 
ENDBRANCH   1   7
BRANCH   3  19
HETATM   19  C   UNL     1       7.404  23.681  54.088  1.00  0.00     0.072 A 
HETATM   20  C   UNL     1       8.158  22.489  54.149  1.00  0.00     0.095 A 
HETATM   21  C   UNL     1       8.700  22.085  55.378  1.00  0.00     0.042 A 
HETATM   22  C   UNL     1       8.513  22.863  56.523  1.00  0.00     0.045 A 
HETATM   23  C   UNL     1       7.812  24.056  56.434  1.00  0.00     0.118 A 
HETATM   24  F   UNL     1       7.650  24.812  57.528  1.00  0.00    -0.206 F 
HETATM   25  C   UNL     1       7.268  24.481  55.228  1.00  0.00     0.074 A 
BRANCH  20  26
HETATM   26  O   UNL     1       8.411  21.847  52.961  1.00  0.00    -0.354 OA
HETATM   27  C   UNL     1       8.235  20.434  52.955  1.00  0.00     0.210 C 
ENDBRANCH  20  26
ENDBRANCH   3  19
TORSDOF 3
ENDMDL
MODEL 5
REMARK VINA RESULT:      -7.8      1.679      3.073
REMARK  3 active torsions:
REMARK  status: ('A' for Active; 'I' for Inactive)
REMARK    1  A    between atoms: C_11  and  N_12 
REMARK       I    between atoms: N_12  and  C_13 
REMARK       I    between atoms: C_13  and  N_14 
REMARK    2  A    between atoms: N_14  and  C_15 
REMARK    3  A    between atoms: C_16  and  O_17 
ROOT
HETATM    1  N   UNL     1       7.674  26.371  56.891  1.00  0.00    -0.338 N 
HETATM    2  C   UNL     1       8.100  25.144  56.448  1.00  0.00     0.321 C 
HETATM    3  N   UNL     1       7.502  24.708  55.296  1.00  0.00    -0.306 N 
HETATM    4  O   UNL     1       8.980  24.585  57.092  1.00  0.00    -0.247 OA
HETATM    5  H   UNL     1       8.235  26.620  57.696  1.00  0.00     0.164 HD
HETATM    6  H   UNL     1       7.450  25.431  54.593  1.00  0.00     0.171 HD
ENDROOT
BRANCH   1   7
HETATM    7  C   UNL     1       6.339  26.918  56.712  1.00  0.00     0.091 C 
HETATM    8  C   UNL     1       5.930  27.019  55.241  1.00  0.00     0.063 C 
HETATM    9  C   UNL     1       6.469  28.227  54.459  1.00  0.00     0.121 C 
HETATM   10  N   UNL     1       6.365  29.487  55.289  1.00  0.00    -0.059 N 
HETATM   11  C   UNL     1       7.903  28.051  53.948  1.00  0.00     0.046 C 
HETATM   12  C   UNL     1       5.574  28.457  53.221  1.00  0.00     0.046 C 
HETATM   13  C   UNL     1       6.732  29.483  56.759  1.00  0.00     0.121 C 
HETATM   14  H   UNL     1       5.387  29.809  55.229  1.00  0.00     0.279 HD
HETATM   15  H   UNL     1       6.899  30.237  54.822  1.00  0.00     0.279 HD
HETATM   16  C   UNL     1       8.249  29.606  56.933  1.00  0.00     0.046 C 
HETATM   17  C   UNL     1       6.098  30.758  57.356  1.00  0.00     0.046 C 
HETATM   18  C   UNL     1       6.121  28.251  57.439  1.00  0.00     0.063 C 
ENDBRANCH   1   7
BRANCH   3  19
HETATM   19  C   UNL     1       7.669  23.389  54.805  1.00  0.00     0.072 A 
HETATM   20  C   UNL     1       8.000  23.107  53.462  1.00  0.00     0.095 A 
HETATM   21  C   UNL     1       8.108  21.772  53.050  1.00  0.00     0.042 A 
HETATM   22  C   UNL     1       7.912  20.732  53.963  1.00  0.00     0.045 A 
HETATM   23  C   UNL     1       7.637  21.028  55.290  1.00  0.00     0.118 A 
HETATM   24  F   UNL     1       7.469  20.031  56.169  1.00  0.00    -0.206 F 
HETATM   25  C   UNL     1       7.527  22.343  55.724  1.00  0.00     0.074 A 
BRANCH  20  26
HETATM   26  O   UNL     1       8.307  24.177  52.656  1.00  0.00    -0.354 OA
HETATM   27  C   UNL     1       7.212  24.827  52.021  1.00  0.00     0.210 C 
ENDBRANCH  20  26
ENDBRANCH   3  19
TORSDOF 3
ENDMDL
MODEL 6
REMARK VINA RESULT:      -7.7      1.823      3.310
REMARK  3 active torsions:
REMARK  status: ('A' for Active; 'I' for Inactive)
REMARK    1  A    between atoms: C_11  and  N_12 
REMARK       I    between atoms: N_12  and  C_13 
REMARK       I    between atoms: C_13  and  N_14 
REMARK    2  A    between atoms: N_14  and  C_15 
REMARK    3  A    between atoms: C_16  and  O_17 
ROOT
HETATM    1  N   UNL     1       6.143  27.034  56.164  1.00  0.00    -0.338 N 
HETATM    2  C   UNL     1       6.379  25.704  55.923  1.00  0.00     0.321 C 
HETATM    3  N   UNL     1       7.672  25.399  55.590  1.00  0.00    -0.306 N 
HETATM    4  O   UNL     1       5.440  24.930  56.060  1.00  0.00    -0.247 OA
HETATM    5  H   UNL     1       5.184  27.127  56.472  1.00  0.00     0.164 HD
HETATM    6  H   UNL     1       8.342  25.858  56.191  1.00  0.00     0.171 HD
ENDROOT
BRANCH   1   7
HETATM    7  C   UNL     1       6.834  28.144  55.528  1.00  0.00     0.091 C 
HETATM    8  C   UNL     1       6.419  29.505  56.093  1.00  0.00     0.063 C 
HETATM    9  C   UNL     1       5.101  30.095  55.565  1.00  0.00     0.121 C 
HETATM   10  N   UNL     1       5.000  29.913  54.067  1.00  0.00    -0.059 N 
HETATM   11  C   UNL     1       3.848  29.536  56.249  1.00  0.00     0.046 C 
HETATM   12  C   UNL     1       5.107  31.620  55.809  1.00  0.00     0.046 C 
HETATM   13  C   UNL     1       5.403  28.606  53.413  1.00  0.00     0.121 C 
HETATM   14  H   UNL     1       5.573  30.651  53.633  1.00  0.00     0.279 HD
HETATM   15  H   UNL     1       4.039  30.142  53.769  1.00  0.00     0.279 HD
HETATM   16  C   UNL     1       4.270  27.580  53.520  1.00  0.00     0.046 C 
HETATM   17  C   UNL     1       5.591  28.925  51.914  1.00  0.00     0.046 C 
HETATM   18  C   UNL     1       6.739  28.129  53.998  1.00  0.00     0.063 C 
ENDBRANCH   1   7
BRANCH   3  19
HETATM   19  C   UNL     1       8.052  24.119  55.117  1.00  0.00     0.072 A 
HETATM   20  C   UNL     1       8.099  23.792  53.744  1.00  0.00     0.095 A 
HETATM   21  C   UNL     1       8.449  22.488  53.364  1.00  0.00     0.042 A 
HETATM   22  C   UNL     1       8.768  21.531  54.330  1.00  0.00     0.045 A 
HETATM   23  C   UNL     1       8.766  21.884  55.671  1.00  0.00     0.118 A 
HETATM   24  F   UNL     1       9.092  20.972  56.596  1.00  0.00    -0.206 F 
HETATM   25  C   UNL     1       8.426  23.169  56.075  1.00  0.00     0.074 A 
BRANCH  20  26
HETATM   26  O   UNL     1       7.902  24.816  52.850  1.00  0.00    -0.354 OA
HETATM   27  C   UNL     1       6.620  24.882  52.235  1.00  0.00     0.210 C 
ENDBRANCH  20  26
ENDBRANCH   3  19
TORSDOF 3
ENDMDL
MODEL 7
REMARK VINA RESULT:      -7.6      4.286      7.316
REMARK  3 active torsions:
REMARK  status: ('A' for Active; 'I' for Inactive)
REMARK    1  A    between atoms: C_11  and  N_12 
REMARK       I    between atoms: N_12  and  C_13 
REMARK       I    between atoms: C_13  and  N_14 
REMARK    2  A    between atoms: N_14  and  C_15 
REMARK    3  A    between atoms: C_16  and  O_17 
ROOT
HETATM    1  N   UNL     1       5.497  27.456  51.785  1.00  0.00    -0.338 N 
HETATM    2  C   UNL     1       4.976  27.616  50.525  1.00  0.00     0.321 C 
HETATM    3  N   UNL     1       3.622  27.437  50.435  1.00  0.00    -0.306 N 
HETATM    4  O   UNL     1       5.750  27.933  49.630  1.00  0.00    -0.247 OA
HETATM    5  H   UNL     1       6.482  27.686  51.743  1.00  0.00     0.164 HD
HETATM    6  H   UNL     1       3.122  27.907  51.176  1.00  0.00     0.171 HD
ENDROOT
BRANCH   1   7
HETATM    7  C   UNL     1       4.983  26.556  52.804  1.00  0.00     0.091 C 
HETATM    8  C   UNL     1       5.222  27.069  54.226  1.00  0.00     0.063 C 
HETATM    9  C   UNL     1       6.625  26.841  54.811  1.00  0.00     0.121 C 
HETATM   10  N   UNL     1       7.113  25.446  54.494  1.00  0.00    -0.059 N 
HETATM   11  C   UNL     1       7.663  27.877  54.366  1.00  0.00     0.046 C 
HETATM   12  C   UNL     1       6.539  26.922  56.352  1.00  0.00     0.046 C 
HETATM   13  C   UNL     1       6.908  24.844  53.117  1.00  0.00     0.121 C 
HETATM   14  H   UNL     1       6.664  24.807  55.166  1.00  0.00     0.279 HD
HETATM   15  H   UNL     1       8.116  25.384  54.730  1.00  0.00     0.279 HD
HETATM   16  C   UNL     1       7.986  25.341  52.149  1.00  0.00     0.046 C 
HETATM   17  C   UNL     1       7.112  23.324  53.288  1.00  0.00     0.046 C 
HETATM   18  C   UNL     1       5.472  25.110  52.649  1.00  0.00     0.063 C 
ENDBRANCH   1   7
BRANCH   3  19
HETATM   19  C   UNL     1       2.946  27.367  49.191  1.00  0.00     0.072 A 
HETATM   20  C   UNL     1       2.086  28.387  48.728  1.00  0.00     0.095 A 
HETATM   21  C   UNL     1       1.426  28.219  47.503  1.00  0.00     0.042 A 
HETATM   22  C   UNL     1       1.633  27.068  46.739  1.00  0.00     0.045 A 
HETATM   23  C   UNL     1       2.519  26.100  47.186  1.00  0.00     0.118 A 
HETATM   24  F   UNL     1       2.733  25.005  46.444  1.00  0.00    -0.206 F 
HETATM   25  C   UNL     1       3.188  26.242  48.395  1.00  0.00     0.074 A 
BRANCH  20  26
HETATM   26  O   UNL     1       2.033  29.544  49.466  1.00  0.00    -0.354 OA
HETATM   27  C   UNL     1       2.791  30.644  48.974  1.00  0.00     0.210 C 
ENDBRANCH  20  26
ENDBRANCH   3  19
TORSDOF 3
ENDMDL
MODEL 8
REMARK VINA RESULT:      -7.6      4.650      7.694
REMARK  3 active torsions:
REMARK  status: ('A' for Active; 'I' for Inactive)
REMARK    1  A    between atoms: C_11  and  N_12 
REMARK       I    between atoms: N_12  and  C_13 
REMARK       I    between atoms: C_13  and  N_14 
REMARK    2  A    between atoms: N_14  and  C_15 
REMARK    3  A    between atoms: C_16  and  O_17 
ROOT
HETATM    1  N   UNL     1       5.519  27.395  51.690  1.00  0.00    -0.338 N 
HETATM    2  C   UNL     1       4.950  27.730  50.487  1.00  0.00     0.321 C 
HETATM    3  N   UNL     1       3.581  27.724  50.476  1.00  0.00    -0.306 N 
HETATM    4  O   UNL     1       5.704  28.031  49.570  1.00  0.00    -0.247 OA
HETATM    5  H   UNL     1       6.521  27.508  51.599  1.00  0.00     0.164 HD
HETATM    6  H   UNL     1       3.188  28.181  51.287  1.00  0.00     0.171 HD
ENDROOT
BRANCH   1   7
HETATM    7  C   UNL     1       4.957  26.474  52.664  1.00  0.00     0.091 C 
HETATM    8  C   UNL     1       5.103  26.970  54.105  1.00  0.00     0.063 C 
HETATM    9  C   UNL     1       6.472  26.751  54.770  1.00  0.00     0.121 C 
HETATM   10  N   UNL     1       6.996  25.366  54.464  1.00  0.00    -0.059 N 
HETATM   11  C   UNL     1       7.522  27.805  54.402  1.00  0.00     0.046 C 
HETATM   12  C   UNL     1       6.293  26.808  56.304  1.00  0.00     0.046 C 
HETATM   13  C   UNL     1       6.882  24.782  53.069  1.00  0.00     0.121 C 
HETATM   14  H   UNL     1       6.516  24.712  55.099  1.00  0.00     0.279 HD
HETATM   15  H   UNL     1       7.984  25.313  54.758  1.00  0.00     0.279 HD
HETATM   16  C   UNL     1       8.009  25.305  52.174  1.00  0.00     0.046 C 
HETATM   17  C   UNL     1       7.095  23.261  53.231  1.00  0.00     0.046 C 
HETATM   18  C   UNL     1       5.473  25.037  52.519  1.00  0.00     0.063 C 
ENDBRANCH   1   7
BRANCH   3  19
HETATM   19  C   UNL     1       2.830  27.849  49.281  1.00  0.00     0.072 A 
HETATM   20  C   UNL     1       2.764  26.829  48.307  1.00  0.00     0.095 A 
HETATM   21  C   UNL     1       2.029  27.050  47.134  1.00  0.00     0.042 A 
HETATM   22  C   UNL     1       1.353  28.257  46.940  1.00  0.00     0.045 A 
HETATM   23  C   UNL     1       1.387  29.229  47.930  1.00  0.00     0.118 A 
HETATM   24  F   UNL     1       0.722  30.377  47.753  1.00  0.00    -0.206 F 
HETATM   25  C   UNL     1       2.106  29.033  49.102  1.00  0.00     0.074 A 
BRANCH  20  26
HETATM   26  O   UNL     1       3.343  25.624  48.623  1.00  0.00    -0.354 OA
HETATM   27  C   UNL     1       2.924  24.499  47.858  1.00  0.00     0.210 C 
ENDBRANCH  20  26
ENDBRANCH   3  19
TORSDOF 3
ENDMDL
MODEL 9
REMARK VINA RESULT:      -7.5      3.955      7.472
REMARK  3 active torsions:
REMARK  status: ('A' for Active; 'I' for Inactive)
REMARK    1  A    between atoms: C_11  and  N_12 
REMARK       I    between atoms: N_12  and  C_13 
REMARK       I    between atoms: C_13  and  N_14 
REMARK    2  A    between atoms: N_14  and  C_15 
REMARK    3  A    between atoms: C_16  and  O_17 
ROOT
HETATM    1  N   UNL     1       7.908  26.261  56.335  1.00  0.00    -0.338 N 
HETATM    2  C   UNL     1       7.863  27.614  56.558  1.00  0.00     0.321 C 
HETATM    3  N   UNL     1       6.850  28.028  57.382  1.00  0.00    -0.306 N 
HETATM    4  O   UNL     1       8.734  28.302  56.040  1.00  0.00    -0.247 OA
HETATM    5  H   UNL     1       8.733  26.067  55.782  1.00  0.00     0.164 HD
HETATM    6  H   UNL     1       6.761  27.448  58.203  1.00  0.00     0.171 HD
ENDROOT
BRANCH   1   7
HETATM    7  C   UNL     1       6.760  25.370  56.300  1.00  0.00     0.091 C 
HETATM    8  C   UNL     1       7.127  23.915  56.598  1.00  0.00     0.063 C 
HETATM    9  C   UNL     1       7.721  23.104  55.434  1.00  0.00     0.121 C 
HETATM   10  N   UNL     1       6.958  23.372  54.156  1.00  0.00    -0.059 N 
HETATM   11  C   UNL     1       9.219  23.336  55.212  1.00  0.00     0.046 C 
HETATM   12  C   UNL     1       7.536  21.599  55.733  1.00  0.00     0.046 C 
HETATM   13  C   UNL     1       6.536  24.780  53.783  1.00  0.00     0.121 C 
HETATM   14  H   UNL     1       6.098  22.805  54.192  1.00  0.00     0.279 HD
HETATM   15  H   UNL     1       7.485  22.970  53.365  1.00  0.00     0.279 HD
HETATM   16  C   UNL     1       7.701  25.535  53.137  1.00  0.00     0.046 C 
HETATM   17  C   UNL     1       5.441  24.620  52.706  1.00  0.00     0.046 C 
HETATM   18  C   UNL     1       5.938  25.480  55.010  1.00  0.00     0.063 C 
ENDBRANCH   1   7
BRANCH   3  19
HETATM   19  C   UNL     1       6.530  29.397  57.563  1.00  0.00     0.072 A 
HETATM   20  C   UNL     1       7.168  30.212  58.523  1.00  0.00     0.095 A 
HETATM   21  C   UNL     1       6.762  31.547  58.663  1.00  0.00     0.042 A 
HETATM   22  C   UNL     1       5.754  32.069  57.849  1.00  0.00     0.045 A 
HETATM   23  C   UNL     1       5.173  31.268  56.878  1.00  0.00     0.118 A 
HETATM   24  F   UNL     1       4.220  31.775  56.085  1.00  0.00    -0.206 F 
HETATM   25  C   UNL     1       5.559  29.943  56.716  1.00  0.00     0.074 A 
BRANCH  20  26
HETATM   26  O   UNL     1       8.237  29.670  59.193  1.00  0.00    -0.354 OA
HETATM   27  C   UNL     1       8.959  30.548  60.050  1.00  0.00     0.210 C 
ENDBRANCH  20  26
ENDBRANCH   3  19
TORSDOF 3
ENDMDL
MODEL 10
REMARK VINA RESULT:      -7.5      3.062      6.657
REMARK  3 active torsions:
REMARK  status: ('A' for Active; 'I' for Inactive)
REMARK    1  A    between atoms: C_11  and  N_12 
REMARK       I    between atoms: N_12  and  C_13 
REMARK       I    between atoms: C_13  and  N_14 
REMARK    2  A    between atoms: N_14  and  C_15 
REMARK    3  A    between atoms: C_16  and  O_17 
ROOT
HETATM    1  N   UNL     1       6.308  24.110  53.260  1.00  0.00    -0.338 N 
HETATM    2  C   UNL     1       5.429  24.896  52.559  1.00  0.00     0.321 C 
HETATM    3  N   UNL     1       5.994  25.644  51.561  1.00  0.00    -0.306 N 
HETATM    4  O   UNL     1       4.244  24.828  52.862  1.00  0.00    -0.247 OA
HETATM    5  H   UNL     1       5.771  23.552  53.912  1.00  0.00     0.164 HD
HETATM    6  H   UNL     1       6.644  25.109  51.001  1.00  0.00     0.171 HD
ENDROOT
BRANCH   1   7
HETATM    7  C   UNL     1       7.703  24.426  53.521  1.00  0.00     0.091 C 
HETATM    8  C   UNL     1       8.567  23.180  53.728  1.00  0.00     0.063 C 
HETATM    9  C   UNL     1       8.512  22.530  55.120  1.00  0.00     0.121 C 
HETATM   10  N   UNL     1       8.559  23.585  56.202  1.00  0.00    -0.059 N 
HETATM   11  C   UNL     1       7.305  21.611  55.333  1.00  0.00     0.046 C 
HETATM   12  C   UNL     1       9.778  21.665  55.314  1.00  0.00     0.046 C 
HETATM   13  C   UNL     1       7.750  24.862  56.078  1.00  0.00     0.121 C 
HETATM   14  H   UNL     1       9.544  23.868  56.307  1.00  0.00     0.279 HD
HETATM   15  H   UNL     1       8.333  23.143  57.106  1.00  0.00     0.279 HD
HETATM   16  C   UNL     1       6.299  24.621  56.506  1.00  0.00     0.046 C 
HETATM   17  C   UNL     1       8.367  25.851  57.091  1.00  0.00     0.046 C 
HETATM   18  C   UNL     1       7.901  25.432  54.662  1.00  0.00     0.063 C 
ENDBRANCH   1   7
BRANCH   3  19
HETATM   19  C   UNL     1       5.280  26.654  50.870  1.00  0.00     0.072 A 
HETATM   20  C   UNL     1       5.220  27.992  51.316  1.00  0.00     0.095 A 
HETATM   21  C   UNL     1       4.457  28.920  50.594  1.00  0.00     0.042 A 
HETATM   22  C   UNL     1       3.782  28.530  49.435  1.00  0.00     0.045 A 
HETATM   23  C   UNL     1       3.892  27.224  48.983  1.00  0.00     0.118 A 
HETATM   24  F   UNL     1       3.260  26.856  47.861  1.00  0.00    -0.206 F 
HETATM   25  C   UNL     1       4.644  26.285  49.680  1.00  0.00     0.074 A 
BRANCH  20  26
HETATM   26  O   UNL     1       6.014  28.331  52.386  1.00  0.00    -0.354 OA
HETATM   27  C   UNL     1       5.345  28.578  53.618  1.00  0.00     0.210 C 
ENDBRANCH  20  26
ENDBRANCH   3  19
TORSDOF 3
ENDMDL
