MODEL 1
REMARK VINA RESULT:      -9.6      0.000      0.000
REMARK  8 active torsions:
REMARK  status: ('A' for Active; 'I' for Inactive)
REMARK    1  A    between atoms: C_2  and  C_3 
REMARK    2  A    between atoms: C_3  and  C_4 
REMARK    3  A    between atoms: C_7  and  C_8 
REMARK    4  A    between atoms: C_8  and  N_9 
REMARK    5  A    between atoms: C_8  and  C_26 
REMARK    6  A    between atoms: N_9  and  C_12 
REMARK    7  A    between atoms: C_12  and  C_13 
REMARK       I    between atoms: C_13  and  N_14 
REMARK    8  A    between atoms: N_14  and  C_15 
ROOT
HETATM    1  N   UNL     1       5.278  28.061  52.851  1.00  0.00    -0.054 N 
HETATM    2  H   UNL     1       6.117  27.934  53.433  1.00  0.00     0.278 HD
HETATM    3  H   UNL     1       5.538  28.825  52.212  1.00  0.00     0.278 HD
ENDROOT
BRANCH   1   4
HETATM    4  C   UNL     1       5.051  26.809  52.066  1.00  0.00     0.259 C 
BRANCH   4   5
HETATM    5  C   UNL     1       5.966  25.694  52.551  1.00  0.00    -0.023 A 
HETATM    6  C   UNL     1       5.667  25.038  53.760  1.00  0.00     0.010 A 
HETATM    7  C   UNL     1       6.508  24.044  54.264  1.00  0.00     0.007 A 
HETATM    8  C   UNL     1       7.675  23.686  53.582  1.00  0.00    -0.058 A 
HETATM    9  C   UNL     1       7.980  24.329  52.377  1.00  0.00     0.007 A 
HETATM   10  C   UNL     1       7.140  25.324  51.871  1.00  0.00     0.010 A 
BRANCH   8  11
HETATM   11  C   UNL     1       8.571  22.595  54.117  1.00  0.00     0.038 C 
BRANCH  11  12
HETATM   12  C   UNL     1       7.896  21.224  54.047  1.00  0.00     0.000 C 
HETATM   13  C   UNL     1       8.373  20.432  52.840  1.00  0.00     0.005 C 
ENDBRANCH  11  12
ENDBRANCH   8  11
ENDBRANCH   4   5
BRANCH   4  14
HETATM   14  C   UNL     1       4.998  27.035  50.565  1.00  0.00     0.017 A 
HETATM   15  S   UNL     1       5.411  28.589  49.928  1.00  0.00    -0.104 SA
HETATM   16  C   UNL     1       5.093  28.102  48.324  1.00  0.00     0.050 A 
HETATM   17  C   UNL     1       4.644  26.803  48.260  1.00  0.00     0.008 A 
HETATM   18  C   UNL     1       4.566  26.198  49.549  1.00  0.00     0.017 A 
ENDBRANCH   4  14
ENDBRANCH   1   4
BRANCH   1  19
HETATM   19  C   UNL     1       4.183  28.576  53.745  1.00  0.00     0.336 C 
BRANCH  19  20
HETATM   20  C   UNL     1       4.737  28.793  55.155  1.00  0.00     0.248 C 
HETATM   21  N   UNL     1       5.956  29.437  55.196  1.00  0.00    -0.326 N 
HETATM   22  H   UNL     1       6.352  29.783  54.328  1.00  0.00     0.169 HD
HETATM   23  O   UNL     1       4.068  28.389  56.105  1.00  0.00    -0.271 OA
BRANCH  21  24
HETATM   24  C   UNL     1       6.737  29.703  56.346  1.00  0.00     0.037 A 
HETATM   25  C   UNL     1       6.263  30.409  57.460  1.00  0.00     0.061 A 
HETATM   26  C   UNL     1       7.131  30.570  58.517  1.00  0.00     0.065 A 
HETATM   27  C   UNL     1       8.429  30.067  58.504  1.00  0.00     0.063 A 
HETATM   28  N   UNL     1       6.932  31.205  59.738  1.00  0.00    -0.306 N 
HETATM   29  N   UNL     1       9.029  30.393  59.713  1.00  0.00    -0.307 N 
HETATM   30  C   UNL     1       8.929  29.375  57.431  1.00  0.00     0.034 A 
HETATM   31  C   UNL     1       8.107  31.102  60.497  1.00  0.00     0.325 A 
HETATM   32  H   UNL     1       9.963  30.172  60.019  1.00  0.00     0.170 HD
HETATM   33  O   UNL     1       8.288  31.540  61.617  1.00  0.00    -0.247 OA
HETATM   34  C   UNL     1       8.065  29.193  56.342  1.00  0.00     0.032 A 
HETATM   35  H   UNL     1       6.101  31.668  60.066  1.00  0.00     0.170 HD
ENDBRANCH  21  24
ENDBRANCH  19  20
ENDBRANCH   1  19
TORSDOF 8
ENDMDL
MODEL 2
REMARK VINA RESULT:      -9.4      1.437      2.062
REMARK  8 active torsions:
REMARK  status: ('A' for Active; 'I' for Inactive)
REMARK    1  A    between atoms: C_2  and  C_3 
REMARK    2  A    between atoms: C_3  and  C_4 
REMARK    3  A    between atoms: C_7  and  C_8 
REMARK    4  A    between atoms: C_8  and  N_9 
REMARK    5  A    between atoms: C_8  and  C_26 
REMARK    6  A    between atoms: N_9  and  C_12 
REMARK    7  A    between atoms: C_12  and  C_13 
REMARK       I    between atoms: C_13  and  N_14 
REMARK    8  A    between atoms: N_14  and  C_15 
ROOT
HETATM    1  N   UNL     1       6.486  28.080  53.604  1.00  0.00    -0.054 N 
HETATM    2  H   UNL     1       6.734  28.661  52.792  1.00  0.00     0.278 HD
HETATM    3  H   UNL     1       5.804  28.655  54.117  1.00  0.00     0.278 HD
ENDROOT
BRANCH   1   4
HETATM    4  C   UNL     1       5.818  26.837  53.110  1.00  0.00     0.259 C 
BRANCH   4   5
HETATM    5  C   UNL     1       6.606  25.601  53.522  1.00  0.00    -0.023 A 
HETATM    6  C   UNL     1       7.627  25.125  52.679  1.00  0.00     0.010 A 
HETATM    7  C   UNL     1       8.337  23.966  52.996  1.00  0.00     0.007 A 
HETATM    8  C   UNL     1       8.041  23.245  54.157  1.00  0.00    -0.058 A 
HETATM    9  C   UNL     1       7.030  23.711  55.004  1.00  0.00     0.007 A 
HETATM   10  C   UNL     1       6.318  24.871  54.688  1.00  0.00     0.010 A 
BRANCH   8  11
HETATM   11  C   UNL     1       8.827  22.005  54.510  1.00  0.00     0.038 C 
BRANCH  11  12
HETATM   12  C   UNL     1       8.051  20.730  54.175  1.00  0.00     0.000 C 
HETATM   13  C   UNL     1       8.200  20.359  52.708  1.00  0.00     0.005 C 
ENDBRANCH  11  12
ENDBRANCH   8  11
ENDBRANCH   4   5
BRANCH   4  14
HETATM   14  C   UNL     1       5.393  26.914  51.655  1.00  0.00     0.017 A 
HETATM   15  S   UNL     1       5.282  28.458  50.886  1.00  0.00    -0.104 SA
HETATM   16  C   UNL     1       4.751  27.775  49.416  1.00  0.00     0.050 A 
HETATM   17  C   UNL     1       4.616  26.410  49.502  1.00  0.00     0.008 A 
HETATM   18  C   UNL     1       4.961  25.917  50.794  1.00  0.00     0.017 A 
ENDBRANCH   4  14
ENDBRANCH   1   4
BRANCH   1  19
HETATM   19  C   UNL     1       7.714  27.962  54.466  1.00  0.00     0.336 C 
BRANCH  19  20
HETATM   20  C   UNL     1       7.630  28.974  55.612  1.00  0.00     0.248 C 
HETATM   21  N   UNL     1       8.769  29.052  56.387  1.00  0.00    -0.326 N 
HETATM   22  H   UNL     1       9.584  28.515  56.110  1.00  0.00     0.169 HD
HETATM   23  O   UNL     1       6.588  29.615  55.740  1.00  0.00    -0.271 OA
BRANCH  21  24
HETATM   24  C   UNL     1       8.951  29.839  57.550  1.00  0.00     0.037 A 
HETATM   25  C   UNL     1       8.156  29.723  58.698  1.00  0.00     0.061 A 
HETATM   26  C   UNL     1       8.467  30.539  59.762  1.00  0.00     0.065 A 
HETATM   27  C   UNL     1       9.518  31.452  59.724  1.00  0.00     0.063 A 
HETATM   28  N   UNL     1       7.869  30.629  61.014  1.00  0.00    -0.306 N 
HETATM   29  N   UNL     1       9.565  32.105  60.949  1.00  0.00    -0.307 N 
HETATM   30  C   UNL     1      10.313  31.598  58.617  1.00  0.00     0.034 A 
HETATM   31  C   UNL     1       8.543  31.602  61.767  1.00  0.00     0.325 A 
HETATM   32  H   UNL     1      10.210  32.821  61.243  1.00  0.00     0.170 HD
HETATM   33  O   UNL     1       8.291  31.939  62.909  1.00  0.00    -0.247 OA
HETATM   34  C   UNL     1      10.021  30.775  57.520  1.00  0.00     0.032 A 
HETATM   35  H   UNL     1       7.087  30.103  61.365  1.00  0.00     0.170 HD
ENDBRANCH  21  24
ENDBRANCH  19  20
ENDBRANCH   1  19
TORSDOF 8
ENDMDL
MODEL 3
REMARK VINA RESULT:      -9.2      3.017      7.341
REMARK  8 active torsions:
REMARK  status: ('A' for Active; 'I' for Inactive)
REMARK    1  A    between atoms: C_2  and  C_3 
REMARK    2  A    between atoms: C_3  and  C_4 
REMARK    3  A    between atoms: C_7  and  C_8 
REMARK    4  A    between atoms: C_8  and  N_9 
REMARK    5  A    between atoms: C_8  and  C_26 
REMARK    6  A    between atoms: N_9  and  C_12 
REMARK    7  A    between atoms: C_12  and  C_13 
REMARK       I    between atoms: C_13  and  N_14 
REMARK    8  A    between atoms: N_14  and  C_15 
ROOT
HETATM    1  N   UNL     1       6.085  28.213  57.127  1.00  0.00    -0.054 N 
HETATM    2  H   UNL     1       6.186  27.533  57.893  1.00  0.00     0.278 HD
HETATM    3  H   UNL     1       6.138  29.124  57.603  1.00  0.00     0.278 HD
ENDROOT
BRANCH   1   4
HETATM    4  C   UNL     1       7.251  28.063  56.204  1.00  0.00     0.259 C 
BRANCH   4   5
HETATM    5  C   UNL     1       7.504  26.596  55.886  1.00  0.00    -0.023 A 
HETATM    6  C   UNL     1       7.320  26.137  54.569  1.00  0.00     0.010 A 
HETATM    7  C   UNL     1       7.493  24.789  54.248  1.00  0.00     0.007 A 
HETATM    8  C   UNL     1       7.844  23.863  55.235  1.00  0.00    -0.058 A 
HETATM    9  C   UNL     1       8.033  24.309  56.547  1.00  0.00     0.007 A 
HETATM   10  C   UNL     1       7.860  25.657  56.870  1.00  0.00     0.010 A 
BRANCH   8  11
HETATM   11  C   UNL     1       8.054  22.410  54.880  1.00  0.00     0.038 C 
BRANCH  11  12
HETATM   12  C   UNL     1       7.799  22.148  53.395  1.00  0.00     0.000 C 
HETATM   13  C   UNL     1       8.214  20.739  53.001  1.00  0.00     0.005 C 
ENDBRANCH  11  12
ENDBRANCH   8  11
ENDBRANCH   4   5
BRANCH   4  14
HETATM   14  C   UNL     1       8.461  28.885  56.614  1.00  0.00     0.017 A 
HETATM   15  S   UNL     1       8.457  29.689  58.144  1.00  0.00    -0.104 SA
HETATM   16  C   UNL     1       9.998  30.370  57.877  1.00  0.00     0.050 A 
HETATM   17  C   UNL     1      10.500  30.038  56.641  1.00  0.00     0.008 A 
HETATM   18  C   UNL     1       9.608  29.204  55.906  1.00  0.00     0.017 A 
ENDBRANCH   4  14
ENDBRANCH   1   4
BRANCH   1  19
HETATM   19  C   UNL     1       4.691  28.073  56.580  1.00  0.00     0.336 C 
BRANCH  19  20
HETATM   20  C   UNL     1       4.653  28.598  55.143  1.00  0.00     0.248 C 
HETATM   21  N   UNL     1       4.199  27.685  54.214  1.00  0.00    -0.326 N 
HETATM   22  H   UNL     1       3.857  26.788  54.541  1.00  0.00     0.169 HD
HETATM   23  O   UNL     1       5.017  29.756  54.943  1.00  0.00    -0.271 OA
BRANCH  21  24
HETATM   24  C   UNL     1       4.128  27.866  52.811  1.00  0.00     0.037 A 
HETATM   25  C   UNL     1       4.956  27.197  51.900  1.00  0.00     0.061 A 
HETATM   26  C   UNL     1       4.755  27.456  50.562  1.00  0.00     0.065 A 
HETATM   27  C   UNL     1       3.782  28.342  50.108  1.00  0.00     0.063 A 
HETATM   28  N   UNL     1       5.408  26.934  49.451  1.00  0.00    -0.306 N 
HETATM   29  N   UNL     1       3.837  28.369  48.721  1.00  0.00    -0.307 N 
HETATM   30  C   UNL     1       2.957  29.018  50.970  1.00  0.00     0.034 A 
HETATM   31  C   UNL     1       4.846  27.493  48.294  1.00  0.00     0.325 A 
HETATM   32  H   UNL     1       3.264  28.906  48.090  1.00  0.00     0.170 HD
HETATM   33  O   UNL     1       5.170  27.261  47.144  1.00  0.00    -0.247 OA
HETATM   34  C   UNL     1       3.137  28.770  52.338  1.00  0.00     0.032 A 
HETATM   35  H   UNL     1       6.158  26.264  49.432  1.00  0.00     0.170 HD
ENDBRANCH  21  24
ENDBRANCH  19  20
ENDBRANCH   1  19
TORSDOF 8
ENDMDL
MODEL 4
REMARK VINA RESULT:      -9.2      3.418      6.069
REMARK  8 active torsions:
REMARK  status: ('A' for Active; 'I' for Inactive)
REMARK    1  A    between atoms: C_2  and  C_3 
REMARK    2  A    between atoms: C_3  and  C_4 
REMARK    3  A    between atoms: C_7  and  C_8 
REMARK    4  A    between atoms: C_8  and  N_9 
REMARK    5  A    between atoms: C_8  and  C_26 
REMARK    6  A    between atoms: N_9  and  C_12 
REMARK    7  A    between atoms: C_12  and  C_13 
REMARK       I    between atoms: C_13  and  N_14 
REMARK    8  A    between atoms: N_14  and  C_15 
ROOT
HETATM    1  N   UNL     1       7.302  24.358  56.403  1.00  0.00    -0.054 N 
HETATM    2  H   UNL     1       6.337  24.664  56.218  1.00  0.00     0.278 HD
HETATM    3  H   UNL     1       7.187  23.568  57.053  1.00  0.00     0.278 HD
ENDROOT
BRANCH   1   4
HETATM    4  C   UNL     1       7.897  23.869  55.122  1.00  0.00     0.259 C 
BRANCH   4   5
HETATM    5  C   UNL     1       7.166  24.461  53.925  1.00  0.00    -0.023 A 
HETATM    6  C   UNL     1       5.759  24.448  53.905  1.00  0.00     0.010 A 
HETATM    7  C   UNL     1       5.053  24.935  52.804  1.00  0.00     0.007 A 
HETATM    8  C   UNL     1       5.731  25.438  51.690  1.00  0.00    -0.058 A 
HETATM    9  C   UNL     1       7.130  25.459  51.700  1.00  0.00     0.007 A 
HETATM   10  C   UNL     1       7.839  24.971  52.801  1.00  0.00     0.010 A 
BRANCH   8  11
HETATM   11  C   UNL     1       4.965  25.986  50.510  1.00  0.00     0.038 C 
BRANCH  11  12
HETATM   12  C   UNL     1       4.653  27.474  50.680  1.00  0.00     0.000 C 
HETATM   13  C   UNL     1       5.482  28.328  49.734  1.00  0.00     0.005 C 
ENDBRANCH  11  12
ENDBRANCH   8  11
ENDBRANCH   4   5
BRANCH   4  14
HETATM   14  C   UNL     1       8.133  22.369  55.096  1.00  0.00     0.017 A 
HETATM   15  S   UNL     1       8.416  21.531  56.582  1.00  0.00    -0.104 SA
HETATM   16  C   UNL     1       8.616  20.034  55.789  1.00  0.00     0.050 A 
HETATM   17  C   UNL     1       8.514  20.157  54.424  1.00  0.00     0.008 A 
HETATM   18  C   UNL     1       8.261  21.501  54.023  1.00  0.00     0.017 A 
ENDBRANCH   4  14
ENDBRANCH   1   4
BRANCH   1  19
HETATM   19  C   UNL     1       7.989  25.465  57.157  1.00  0.00     0.336 C 
BRANCH  19  20
HETATM   20  C   UNL     1       7.417  26.813  56.713  1.00  0.00     0.248 C 
HETATM   21  N   UNL     1       6.067  26.796  56.433  1.00  0.00    -0.326 N 
HETATM   22  H   UNL     1       5.545  25.944  56.610  1.00  0.00     0.169 HD
HETATM   23  O   UNL     1       8.186  27.771  56.648  1.00  0.00    -0.271 OA
BRANCH  21  24
HETATM   24  C   UNL     1       5.290  27.869  55.933  1.00  0.00     0.037 A 
HETATM   25  C   UNL     1       4.509  28.704  56.743  1.00  0.00     0.061 A 
HETATM   26  C   UNL     1       3.825  29.723  56.118  1.00  0.00     0.065 A 
HETATM   27  C   UNL     1       3.886  29.934  54.743  1.00  0.00     0.063 A 
HETATM   28  N   UNL     1       2.997  30.699  56.663  1.00  0.00    -0.306 N 
HETATM   29  N   UNL     1       3.096  31.036  54.441  1.00  0.00    -0.307 N 
HETATM   30  C   UNL     1       4.636  29.135  53.919  1.00  0.00     0.034 A 
HETATM   31  C   UNL     1       2.535  31.527  55.629  1.00  0.00     0.325 A 
HETATM   32  H   UNL     1       2.931  31.449  53.538  1.00  0.00     0.170 HD
HETATM   33  O   UNL     1       1.794  32.485  55.742  1.00  0.00    -0.247 OA
HETATM   34  C   UNL     1       5.346  28.092  54.530  1.00  0.00     0.032 A 
HETATM   35  H   UNL     1       2.748  30.830  57.629  1.00  0.00     0.170 HD
ENDBRANCH  21  24
ENDBRANCH  19  20
ENDBRANCH   1  19
TORSDOF 8
ENDMDL
MODEL 5
REMARK VINA RESULT:      -9.1      3.573      6.126
REMARK  8 active torsions:
REMARK  status: ('A' for Active; 'I' for Inactive)
REMARK    1  A    between atoms: C_2  and  C_3 
REMARK    2  A    between atoms: C_3  and  C_4 
REMARK    3  A    between atoms: C_7  and  C_8 
REMARK    4  A    between atoms: C_8  and  N_9 
REMARK    5  A    between atoms: C_8  and  C_26 
REMARK    6  A    between atoms: N_9  and  C_12 
REMARK    7  A    between atoms: C_12  and  C_13 
REMARK       I    between atoms: C_13  and  N_14 
REMARK    8  A    between atoms: N_14  and  C_15 
ROOT
HETATM    1  N   UNL     1       7.568  30.192  57.601  1.00  0.00    -0.054 N 
HETATM    2  H   UNL     1       8.264  30.054  56.856  1.00  0.00     0.278 HD
HETATM    3  H   UNL     1       7.327  31.189  57.527  1.00  0.00     0.278 HD
ENDROOT
BRANCH   1   4
HETATM    4  C   UNL     1       6.365  29.362  57.285  1.00  0.00     0.259 C 
BRANCH   4   5
HETATM    5  C   UNL     1       6.700  28.295  56.252  1.00  0.00    -0.023 A 
HETATM    6  C   UNL     1       6.411  26.948  56.537  1.00  0.00     0.010 A 
HETATM    7  C   UNL     1       6.749  25.935  55.638  1.00  0.00     0.007 A 
HETATM    8  C   UNL     1       7.393  26.239  54.435  1.00  0.00    -0.058 A 
HETATM    9  C   UNL     1       7.682  27.575  54.139  1.00  0.00     0.007 A 
HETATM   10  C   UNL     1       7.345  28.590  55.038  1.00  0.00     0.010 A 
BRANCH   8  11
HETATM   11  C   UNL     1       7.736  25.144  53.453  1.00  0.00     0.038 C 
BRANCH  11  12
HETATM   12  C   UNL     1       7.905  23.793  54.149  1.00  0.00     0.000 C 
HETATM   13  C   UNL     1       8.087  22.668  53.142  1.00  0.00     0.005 C 
ENDBRANCH  11  12
ENDBRANCH   8  11
ENDBRANCH   4   5
BRANCH   4  14
HETATM   14  C   UNL     1       5.113  30.182  57.028  1.00  0.00     0.017 A 
HETATM   15  S   UNL     1       4.959  31.742  57.758  1.00  0.00    -0.104 SA
HETATM   16  C   UNL     1       3.408  31.987  57.090  1.00  0.00     0.050 A 
HETATM   17  C   UNL     1       2.985  30.901  56.360  1.00  0.00     0.008 A 
HETATM   18  C   UNL     1       3.953  29.854  56.344  1.00  0.00     0.017 A 
ENDBRANCH   4  14
ENDBRANCH   1   4
BRANCH   1  19
HETATM   19  C   UNL     1       8.271  29.995  58.917  1.00  0.00     0.336 C 
BRANCH  19  20
HETATM   20  C   UNL     1       7.917  31.147  59.860  1.00  0.00     0.248 C 
HETATM   21  N   UNL     1       7.615  30.756  61.148  1.00  0.00    -0.326 N 
HETATM   22  H   UNL     1       7.722  29.778  61.397  1.00  0.00     0.169 HD
HETATM   23  O   UNL     1       7.933  32.289  59.405  1.00  0.00    -0.271 OA
BRANCH  21  24
HETATM   24  C   UNL     1       7.182  31.589  62.208  1.00  0.00     0.037 A 
HETATM   25  C   UNL     1       5.834  31.813  62.518  1.00  0.00     0.061 A 
HETATM   26  C   UNL     1       5.565  32.630  63.594  1.00  0.00     0.065 A 
HETATM   27  C   UNL     1       6.569  33.223  64.354  1.00  0.00     0.063 A 
HETATM   28  N   UNL     1       4.341  33.012  64.132  1.00  0.00    -0.306 N 
HETATM   29  N   UNL     1       5.965  33.971  65.357  1.00  0.00    -0.307 N 
HETATM   30  C   UNL     1       7.898  33.031  64.078  1.00  0.00     0.034 A 
HETATM   31  C   UNL     1       4.573  33.848  65.233  1.00  0.00     0.325 A 
HETATM   32  H   UNL     1       6.412  34.518  66.074  1.00  0.00     0.170 HD
HETATM   33  O   UNL     1       3.731  34.363  65.944  1.00  0.00    -0.247 OA
HETATM   34  C   UNL     1       8.201  32.200  62.990  1.00  0.00     0.032 A 
HETATM   35  H   UNL     1       3.420  32.752  63.819  1.00  0.00     0.170 HD
ENDBRANCH  21  24
ENDBRANCH  19  20
ENDBRANCH   1  19
TORSDOF 8
ENDMDL
MODEL 6
REMARK VINA RESULT:      -9.0      3.566      8.466
REMARK  8 active torsions:
REMARK  status: ('A' for Active; 'I' for Inactive)
REMARK    1  A    between atoms: C_2  and  C_3 
REMARK    2  A    between atoms: C_3  and  C_4 
REMARK    3  A    between atoms: C_7  and  C_8 
REMARK    4  A    between atoms: C_8  and  N_9 
REMARK    5  A    between atoms: C_8  and  C_26 
REMARK    6  A    between atoms: N_9  and  C_12 
REMARK    7  A    between atoms: C_12  and  C_13 
REMARK       I    between atoms: C_13  and  N_14 
REMARK    8  A    between atoms: N_14  and  C_15 
ROOT
HETATM    1  N   UNL     1       5.612  28.133  54.030  1.00  0.00    -0.054 N 
HETATM    2  H   UNL     1       5.048  27.286  53.877  1.00  0.00     0.278 HD
HETATM    3  H   UNL     1       5.218  28.536  54.890  1.00  0.00     0.278 HD
ENDROOT
BRANCH   1   4
HETATM    4  C   UNL     1       7.028  27.721  54.275  1.00  0.00     0.259 C 
BRANCH   4   5
HETATM    5  C   UNL     1       7.236  26.256  53.915  1.00  0.00    -0.023 A 
HETATM    6  C   UNL     1       7.257  25.293  54.941  1.00  0.00     0.010 A 
HETATM    7  C   UNL     1       7.495  23.947  54.657  1.00  0.00     0.007 A 
HETATM    8  C   UNL     1       7.727  23.528  53.343  1.00  0.00    -0.058 A 
HETATM    9  C   UNL     1       7.705  24.476  52.315  1.00  0.00     0.007 A 
HETATM   10  C   UNL     1       7.467  25.824  52.597  1.00  0.00     0.010 A 
BRANCH   8  11
HETATM   11  C   UNL     1       7.960  22.068  53.036  1.00  0.00     0.038 C 
BRANCH  11  12
HETATM   12  C   UNL     1       8.950  21.435  54.015  1.00  0.00     0.000 C 
HETATM   13  C   UNL     1       8.310  20.296  54.792  1.00  0.00     0.005 C 
ENDBRANCH  11  12
ENDBRANCH   8  11
ENDBRANCH   4   5
BRANCH   4  14
HETATM   14  C   UNL     1       7.566  28.168  55.623  1.00  0.00     0.017 A 
HETATM   15  S   UNL     1       6.489  28.272  56.971  1.00  0.00    -0.104 SA
HETATM   16  C   UNL     1       7.720  28.835  58.010  1.00  0.00     0.050 A 
HETATM   17  C   UNL     1       8.919  28.984  57.353  1.00  0.00     0.008 A 
HETATM   18  C   UNL     1       8.825  28.625  55.977  1.00  0.00     0.017 A 
ENDBRANCH   4  14
ENDBRANCH   1   4
BRANCH   1  19
HETATM   19  C   UNL     1       5.308  29.086  52.905  1.00  0.00     0.336 C 
BRANCH  19  20
HETATM   20  C   UNL     1       4.238  28.476  51.997  1.00  0.00     0.248 C 
HETATM   21  N   UNL     1       4.659  28.231  50.706  1.00  0.00    -0.326 N 
HETATM   22  H   UNL     1       5.634  28.390  50.474  1.00  0.00     0.169 HD
HETATM   23  O   UNL     1       3.128  28.259  52.480  1.00  0.00    -0.271 OA
BRANCH  21  24
HETATM   24  C   UNL     1       3.871  27.746  49.635  1.00  0.00     0.037 A 
HETATM   25  C   UNL     1       2.708  28.381  49.177  1.00  0.00     0.061 A 
HETATM   26  C   UNL     1       2.058  27.805  48.108  1.00  0.00     0.065 A 
HETATM   27  C   UNL     1       2.512  26.640  47.494  1.00  0.00     0.063 A 
HETATM   28  N   UNL     1       0.908  28.216  47.444  1.00  0.00    -0.306 N 
HETATM   29  N   UNL     1       1.642  26.334  46.456  1.00  0.00    -0.307 N 
HETATM   30  C   UNL     1       3.641  25.989  47.918  1.00  0.00     0.034 A 
HETATM   31  C   UNL     1       0.635  27.309  46.410  1.00  0.00     0.325 A 
HETATM   32  H   UNL     1       1.691  25.557  45.817  1.00  0.00     0.170 HD
HETATM   33  O   UNL     1      -0.293  27.362  45.624  1.00  0.00    -0.247 OA
HETATM   34  C   UNL     1       4.326  26.557  49.001  1.00  0.00     0.032 A 
HETATM   35  H   UNL     1       0.338  29.024  47.636  1.00  0.00     0.170 HD
ENDBRANCH  21  24
ENDBRANCH  19  20
ENDBRANCH   1  19
TORSDOF 8
ENDMDL
MODEL 7
REMARK VINA RESULT:      -8.9      2.476      3.551
REMARK  8 active torsions:
REMARK  status: ('A' for Active; 'I' for Inactive)
REMARK    1  A    between atoms: C_2  and  C_3 
REMARK    2  A    between atoms: C_3  and  C_4 
REMARK    3  A    between atoms: C_7  and  C_8 
REMARK    4  A    between atoms: C_8  and  N_9 
REMARK    5  A    between atoms: C_8  and  C_26 
REMARK    6  A    between atoms: N_9  and  C_12 
REMARK    7  A    between atoms: C_12  and  C_13 
REMARK       I    between atoms: C_13  and  N_14 
REMARK    8  A    between atoms: N_14  and  C_15 
ROOT
HETATM    1  N   UNL     1       7.611  28.862  55.075  1.00  0.00    -0.054 N 
HETATM    2  H   UNL     1       8.092  28.902  54.166  1.00  0.00     0.278 HD
HETATM    3  H   UNL     1       7.324  29.836  55.242  1.00  0.00     0.278 HD
ENDROOT
BRANCH   1   4
HETATM    4  C   UNL     1       6.397  28.001  54.931  1.00  0.00     0.259 C 
BRANCH   4   5
HETATM    5  C   UNL     1       6.758  26.658  54.311  1.00  0.00    -0.023 A 
HETATM    6  C   UNL     1       6.319  25.475  54.934  1.00  0.00     0.010 A 
HETATM    7  C   UNL     1       6.671  24.224  54.426  1.00  0.00     0.007 A 
HETATM    8  C   UNL     1       7.478  24.119  53.289  1.00  0.00    -0.058 A 
HETATM    9  C   UNL     1       7.916  25.289  52.659  1.00  0.00     0.007 A 
HETATM   10  C   UNL     1       7.566  26.542  53.167  1.00  0.00     0.010 A 
BRANCH   8  11
HETATM   11  C   UNL     1       7.838  22.765  52.727  1.00  0.00     0.038 C 
BRANCH  11  12
HETATM   12  C   UNL     1       8.108  21.746  53.836  1.00  0.00     0.000 C 
HETATM   13  C   UNL     1       8.312  20.350  53.270  1.00  0.00     0.005 C 
ENDBRANCH  11  12
ENDBRANCH   8  11
ENDBRANCH   4   5
BRANCH   4  14
HETATM   14  C   UNL     1       5.207  28.726  54.328  1.00  0.00     0.017 A 
HETATM   15  S   UNL     1       4.504  28.128  52.866  1.00  0.00    -0.104 SA
HETATM   16  C   UNL     1       3.355  29.389  52.811  1.00  0.00     0.050 A 
HETATM   17  C   UNL     1       3.515  30.275  53.850  1.00  0.00     0.008 A 
HETATM   18  C   UNL     1       4.593  29.909  54.708  1.00  0.00     0.017 A 
ENDBRANCH   4  14
ENDBRANCH   1   4
BRANCH   1  19
HETATM   19  C   UNL     1       8.640  28.512  56.116  1.00  0.00     0.336 C 
BRANCH  19  20
HETATM   20  C   UNL     1       8.127  28.923  57.498  1.00  0.00     0.248 C 
HETATM   21  N   UNL     1       8.050  30.287  57.694  1.00  0.00    -0.326 N 
HETATM   22  H   UNL     1       8.253  30.903  56.914  1.00  0.00     0.169 HD
HETATM   23  O   UNL     1       7.833  28.031  58.292  1.00  0.00    -0.271 OA
BRANCH  21  24
HETATM   24  C   UNL     1       7.685  30.952  58.890  1.00  0.00     0.037 A 
HETATM   25  C   UNL     1       8.448  30.912  60.064  1.00  0.00     0.061 A 
HETATM   26  C   UNL     1       7.979  31.630  61.142  1.00  0.00     0.065 A 
HETATM   27  C   UNL     1       6.799  32.366  61.096  1.00  0.00     0.063 A 
HETATM   28  N   UNL     1       8.528  31.782  62.411  1.00  0.00    -0.306 N 
HETATM   29  N   UNL     1       6.619  32.969  62.334  1.00  0.00    -0.307 N 
HETATM   30  C   UNL     1       6.023  32.424  59.967  1.00  0.00     0.034 A 
HETATM   31  C   UNL     1       7.691  32.616  63.167  1.00  0.00     0.325 A 
HETATM   32  H   UNL     1       5.865  33.570  62.625  1.00  0.00     0.170 HD
HETATM   33  O   UNL     1       7.864  32.967  64.318  1.00  0.00    -0.247 OA
HETATM   34  C   UNL     1       6.480  31.707  58.852  1.00  0.00     0.032 A 
HETATM   35  H   UNL     1       9.380  31.384  62.769  1.00  0.00     0.170 HD
ENDBRANCH  21  24
ENDBRANCH  19  20
ENDBRANCH   1  19
TORSDOF 8
ENDMDL
MODEL 8
REMARK VINA RESULT:      -8.5      3.671      9.430
REMARK  8 active torsions:
REMARK  status: ('A' for Active; 'I' for Inactive)
REMARK    1  A    between atoms: C_2  and  C_3 
REMARK    2  A    between atoms: C_3  and  C_4 
REMARK    3  A    between atoms: C_7  and  C_8 
REMARK    4  A    between atoms: C_8  and  N_9 
REMARK    5  A    between atoms: C_8  and  C_26 
REMARK    6  A    between atoms: N_9  and  C_12 
REMARK    7  A    between atoms: C_12  and  C_13 
REMARK       I    between atoms: C_13  and  N_14 
REMARK    8  A    between atoms: N_14  and  C_15 
ROOT
HETATM    1  N   UNL     1       7.535  29.165  57.141  1.00  0.00    -0.054 N 
HETATM    2  H   UNL     1       7.682  29.055  56.128  1.00  0.00     0.278 HD
HETATM    3  H   UNL     1       8.486  29.125  57.531  1.00  0.00     0.278 HD
ENDROOT
BRANCH   1   4
HETATM    4  C   UNL     1       6.949  30.518  57.390  1.00  0.00     0.259 C 
BRANCH   4   5
HETATM    5  C   UNL     1       7.293  31.007  58.790  1.00  0.00    -0.023 A 
HETATM    6  C   UNL     1       8.392  30.443  59.463  1.00  0.00     0.010 A 
HETATM    7  C   UNL     1       8.710  30.828  60.767  1.00  0.00     0.007 A 
HETATM    8  C   UNL     1       7.934  31.778  61.436  1.00  0.00    -0.058 A 
HETATM    9  C   UNL     1       6.841  32.348  60.775  1.00  0.00     0.007 A 
HETATM   10  C   UNL     1       6.521  31.964  59.471  1.00  0.00     0.010 A 
BRANCH   8  11
HETATM   11  C   UNL     1       8.293  32.210  62.838  1.00  0.00     0.038 C 
BRANCH  11  12
HETATM   12  C   UNL     1       7.071  32.720  63.603  1.00  0.00     0.000 C 
HETATM   13  C   UNL     1       7.477  33.584  64.787  1.00  0.00     0.005 C 
ENDBRANCH  11  12
ENDBRANCH   8  11
ENDBRANCH   4   5
BRANCH   4  14
HETATM   14  C   UNL     1       5.494  30.636  56.971  1.00  0.00     0.017 A 
HETATM   15  S   UNL     1       4.997  31.984  56.009  1.00  0.00    -0.104 SA
HETATM   16  C   UNL     1       3.369  31.472  55.994  1.00  0.00     0.050 A 
HETATM   17  C   UNL     1       3.184  30.326  56.732  1.00  0.00     0.008 A 
HETATM   18  C   UNL     1       4.398  29.859  57.313  1.00  0.00     0.017 A 
ENDBRANCH   4  14
ENDBRANCH   1   4
BRANCH   1  19
HETATM   19  C   UNL     1       6.798  27.945  57.624  1.00  0.00     0.336 C 
BRANCH  19  20
HETATM   20  C   UNL     1       7.469  26.690  57.062  1.00  0.00     0.248 C 
HETATM   21  N   UNL     1       6.935  26.242  55.871  1.00  0.00    -0.326 N 
HETATM   22  H   UNL     1       6.214  26.798  55.423  1.00  0.00     0.169 HD
HETATM   23  O   UNL     1       8.402  26.202  57.698  1.00  0.00    -0.271 OA
BRANCH  21  24
HETATM   24  C   UNL     1       7.301  25.072  55.164  1.00  0.00     0.037 A 
HETATM   25  C   UNL     1       7.558  23.841  55.781  1.00  0.00     0.061 A 
HETATM   26  C   UNL     1       7.881  22.783  54.961  1.00  0.00     0.065 A 
HETATM   27  C   UNL     1       7.959  22.905  53.576  1.00  0.00     0.063 A 
HETATM   28  N   UNL     1       8.167  21.462  55.289  1.00  0.00    -0.306 N 
HETATM   29  N   UNL     1       8.296  21.663  53.052  1.00  0.00    -0.307 N 
HETATM   30  C   UNL     1       7.719  24.094  52.937  1.00  0.00     0.034 A 
HETATM   31  C   UNL     1       8.428  20.750  54.109  1.00  0.00     0.325 A 
HETATM   32  H   UNL     1       8.427  21.415  52.085  1.00  0.00     0.170 HD
HETATM   33  O   UNL     1       8.710  19.570  54.020  1.00  0.00    -0.247 OA
HETATM   34  C   UNL     1       7.384  25.187  53.749  1.00  0.00     0.032 A 
HETATM   35  H   UNL     1       8.191  21.043  56.204  1.00  0.00     0.170 HD
ENDBRANCH  21  24
ENDBRANCH  19  20
ENDBRANCH   1  19
TORSDOF 8
ENDMDL
MODEL 9
REMARK VINA RESULT:      -8.5      3.723      8.846
REMARK  8 active torsions:
REMARK  status: ('A' for Active; 'I' for Inactive)
REMARK    1  A    between atoms: C_2  and  C_3 
REMARK    2  A    between atoms: C_3  and  C_4 
REMARK    3  A    between atoms: C_7  and  C_8 
REMARK    4  A    between atoms: C_8  and  N_9 
REMARK    5  A    between atoms: C_8  and  C_26 
REMARK    6  A    between atoms: N_9  and  C_12 
REMARK    7  A    between atoms: C_12  and  C_13 
REMARK       I    between atoms: C_13  and  N_14 
REMARK    8  A    between atoms: N_14  and  C_15 
ROOT
HETATM    1  N   UNL     1       6.199  28.864  56.238  1.00  0.00    -0.054 N 
HETATM    2  H   UNL     1       7.033  28.407  56.631  1.00  0.00     0.278 HD
HETATM    3  H   UNL     1       5.423  28.462  56.781  1.00  0.00     0.278 HD
ENDROOT
BRANCH   1   4
HETATM    4  C   UNL     1       6.291  30.331  56.510  1.00  0.00     0.259 C 
BRANCH   4   5
HETATM    5  C   UNL     1       6.963  30.592  57.851  1.00  0.00    -0.023 A 
HETATM    6  C   UNL     1       6.431  31.573  58.707  1.00  0.00     0.010 A 
HETATM    7  C   UNL     1       7.047  31.877  59.922  1.00  0.00     0.007 A 
HETATM    8  C   UNL     1       8.217  31.216  60.310  1.00  0.00    -0.058 A 
HETATM    9  C   UNL     1       8.753  30.236  59.469  1.00  0.00     0.007 A 
HETATM   10  C   UNL     1       8.138  29.931  58.252  1.00  0.00     0.010 A 
BRANCH   8  11
HETATM   11  C   UNL     1       8.869  31.530  61.636  1.00  0.00     0.038 C 
BRANCH  11  12
HETATM   12  C   UNL     1       7.864  31.471  62.788  1.00  0.00     0.000 C 
HETATM   13  C   UNL     1       7.908  32.737  63.628  1.00  0.00     0.005 C 
ENDBRANCH  11  12
ENDBRANCH   8  11
ENDBRANCH   4   5
BRANCH   4  14
HETATM   14  C   UNL     1       4.997  31.080  56.246  1.00  0.00     0.017 A 
HETATM   15  S   UNL     1       3.491  30.343  56.668  1.00  0.00    -0.104 SA
HETATM   16  C   UNL     1       2.589  31.664  56.076  1.00  0.00     0.050 A 
HETATM   17  C   UNL     1       3.396  32.634  55.530  1.00  0.00     0.008 A 
HETATM   18  C   UNL     1       4.777  32.289  55.605  1.00  0.00     0.017 A 
ENDBRANCH   4  14
ENDBRANCH   1   4
BRANCH   1  19
HETATM   19  C   UNL     1       6.049  28.388  54.819  1.00  0.00     0.336 C 
BRANCH  19  20
HETATM   20  C   UNL     1       6.872  27.113  54.620  1.00  0.00     0.248 C 
HETATM   21  N   UNL     1       6.477  26.051  55.409  1.00  0.00    -0.326 N 
HETATM   22  H   UNL     1       5.650  26.156  55.986  1.00  0.00     0.169 HD
HETATM   23  O   UNL     1       7.786  27.139  53.798  1.00  0.00    -0.271 OA
BRANCH  21  24
HETATM   24  C   UNL     1       7.097  24.781  55.493  1.00  0.00     0.037 A 
HETATM   25  C   UNL     1       7.022  23.813  54.482  1.00  0.00     0.061 A 
HETATM   26  C   UNL     1       7.697  22.631  54.695  1.00  0.00     0.065 A 
HETATM   27  C   UNL     1       8.425  22.382  55.855  1.00  0.00     0.063 A 
HETATM   28  N   UNL     1       7.809  21.515  53.873  1.00  0.00    -0.306 N 
HETATM   29  N   UNL     1       8.982  21.114  55.750  1.00  0.00    -0.307 N 
HETATM   30  C   UNL     1       8.516  23.302  56.867  1.00  0.00     0.034 A 
HETATM   31  C   UNL     1       8.609  20.559  54.516  1.00  0.00     0.325 A 
HETATM   32  H   UNL     1       9.566  20.638  56.418  1.00  0.00     0.170 HD
HETATM   33  O   UNL     1       8.921  19.465  54.086  1.00  0.00    -0.247 OA
HETATM   34  C   UNL     1       7.842  24.517  56.675  1.00  0.00     0.032 A 
HETATM   35  H   UNL     1       7.407  21.375  52.961  1.00  0.00     0.170 HD
ENDBRANCH  21  24
ENDBRANCH  19  20
ENDBRANCH   1  19
TORSDOF 8
ENDMDL
MODEL 10
REMARK VINA RESULT:      -8.3      2.233      2.954
REMARK  8 active torsions:
REMARK  status: ('A' for Active; 'I' for Inactive)
REMARK    1  A    between atoms: C_2  and  C_3 
REMARK    2  A    between atoms: C_3  and  C_4 
REMARK    3  A    between atoms: C_7  and  C_8 
REMARK    4  A    between atoms: C_8  and  N_9 
REMARK    5  A    between atoms: C_8  and  C_26 
REMARK    6  A    between atoms: N_9  and  C_12 
REMARK    7  A    between atoms: C_12  and  C_13 
REMARK       I    between atoms: C_13  and  N_14 
REMARK    8  A    between atoms: N_14  and  C_15 
ROOT
HETATM    1  N   UNL     1       6.566  28.439  53.222  1.00  0.00    -0.054 N 
HETATM    2  H   UNL     1       7.066  28.806  52.400  1.00  0.00     0.278 HD
HETATM    3  H   UNL     1       5.923  29.201  53.476  1.00  0.00     0.278 HD
ENDROOT
BRANCH   1   4
HETATM    4  C   UNL     1       5.779  27.240  52.800  1.00  0.00     0.259 C 
BRANCH   4   5
HETATM    5  C   UNL     1       6.413  25.962  53.330  1.00  0.00    -0.023 A 
HETATM    6  C   UNL     1       7.416  25.328  52.573  1.00  0.00     0.010 A 
HETATM    7  C   UNL     1       7.987  24.128  52.999  1.00  0.00     0.007 A 
HETATM    8  C   UNL     1       7.566  23.523  54.188  1.00  0.00    -0.058 A 
HETATM    9  C   UNL     1       6.573  24.147  54.950  1.00  0.00     0.007 A 
HETATM   10  C   UNL     1       6.000  25.347  54.525  1.00  0.00     0.010 A 
BRANCH   8  11
HETATM   11  C   UNL     1       8.202  22.237  54.659  1.00  0.00     0.038 C 
BRANCH  11  12
HETATM   12  C   UNL     1       8.979  21.547  53.538  1.00  0.00     0.000 C 
HETATM   13  C   UNL     1       8.160  20.440  52.894  1.00  0.00     0.005 C 
ENDBRANCH  11  12
ENDBRANCH   8  11
ENDBRANCH   4   5
BRANCH   4  14
HETATM   14  C   UNL     1       5.401  27.248  51.329  1.00  0.00     0.017 A 
HETATM   15  S   UNL     1       5.379  28.748  50.470  1.00  0.00    -0.104 SA
HETATM   16  C   UNL     1       4.865  28.002  49.025  1.00  0.00     0.050 A 
HETATM   17  C   UNL     1       4.671  26.650  49.185  1.00  0.00     0.008 A 
HETATM   18  C   UNL     1       4.955  26.221  50.514  1.00  0.00     0.017 A 
ENDBRANCH   4  14
ENDBRANCH   1   4
BRANCH   1  19
HETATM   19  C   UNL     1       7.568  28.305  54.337  1.00  0.00     0.336 C 
BRANCH  19  20
HETATM   20  C   UNL     1       7.112  29.141  55.534  1.00  0.00     0.248 C 
HETATM   21  N   UNL     1       5.923  29.813  55.340  1.00  0.00    -0.326 N 
HETATM   22  H   UNL     1       5.408  29.651  54.481  1.00  0.00     0.169 HD
HETATM   23  O   UNL     1       7.821  29.143  56.539  1.00  0.00    -0.271 OA
BRANCH  21  24
HETATM   24  C   UNL     1       5.301  30.714  56.238  1.00  0.00     0.037 A 
HETATM   25  C   UNL     1       4.958  30.384  57.556  1.00  0.00     0.061 A 
HETATM   26  C   UNL     1       4.381  31.373  58.320  1.00  0.00     0.065 A 
HETATM   27  C   UNL     1       4.133  32.652  57.829  1.00  0.00     0.063 A 
HETATM   28  N   UNL     1       3.957  31.335  59.644  1.00  0.00    -0.306 N 
HETATM   29  N   UNL     1       3.556  33.400  58.847  1.00  0.00    -0.307 N 
HETATM   30  C   UNL     1       4.450  33.010  56.544  1.00  0.00     0.034 A 
HETATM   31  C   UNL     1       3.440  32.593  59.989  1.00  0.00     0.325 A 
HETATM   32  H   UNL     1       3.260  34.362  58.816  1.00  0.00     0.170 HD
HETATM   33  O   UNL     1       2.984  32.920  61.068  1.00  0.00    -0.247 OA
HETATM   34  C   UNL     1       5.044  32.023  55.745  1.00  0.00     0.032 A 
HETATM   35  H   UNL     1       3.998  30.561  60.286  1.00  0.00     0.170 HD
ENDBRANCH  21  24
ENDBRANCH  19  20
ENDBRANCH   1  19
TORSDOF 8
ENDMDL
