MODEL 1
REMARK VINA RESULT:      -8.4      0.000      0.000
REMARK  6 active torsions:
REMARK  status: ('A' for Active; 'I' for Inactive)
REMARK    1  A    between atoms: C_2  and  C_3 
REMARK    2  A    between atoms: C_13  and  C_14 
REMARK       I    between atoms: C_14  and  N_15 
REMARK    3  A    between atoms: N_15  and  C_16 
REMARK    4  A    between atoms: C_16  and  C_17 
REMARK    5  A    between atoms: C_17  and  C_18 
REMARK    6  A    between atoms: C_18  and  C_19 
ROOT
HETATM    1  C   UNL     1       5.025  26.871  52.855  1.00  0.00     0.251 C 
HETATM    2  N   UNL     1       4.730  27.129  51.533  1.00  0.00    -0.357 N 
HETATM    3  O   UNL     1       4.561  27.519  53.786  1.00  0.00    -0.268 OA
HETATM    4  H   UNL     1       5.258  26.682  50.800  1.00  0.00     0.162 HD
ENDROOT
BRANCH   1   5
HETATM    5  C   UNL     1       5.991  25.769  53.132  1.00  0.00     0.032 A 
HETATM    6  C   UNL     1       5.954  24.994  54.296  1.00  0.00     0.017 A 
HETATM    7  C   UNL     1       6.876  23.953  54.490  1.00  0.00     0.008 A 
HETATM    8  C   UNL     1       7.867  23.677  53.539  1.00  0.00    -0.052 A 
HETATM    9  C   UNL     1       7.902  24.475  52.380  1.00  0.00     0.008 A 
HETATM   10  C   UNL     1       6.979  25.506  52.181  1.00  0.00     0.017 A 
BRANCH   8  11
HETATM   11  C   UNL     1       8.895  22.561  53.676  1.00  0.00     0.044 C 
HETATM   12  C   UNL     1       9.491  22.425  55.087  1.00  0.00     0.241 C 
HETATM   13  N   UNL     1       8.655  21.561  55.979  1.00  0.00    -0.074 N 
HETATM   14  H   UNL     1       7.787  22.053  56.224  1.00  0.00     0.277 HD
HETATM   15  H   UNL     1       9.151  21.442  56.873  1.00  0.00     0.277 HD
HETATM   16  C   UNL     1       8.348  20.213  55.421  1.00  0.00     0.232 C 
HETATM   17  C   UNL     1       7.620  20.364  54.097  1.00  0.00     0.028 C 
HETATM   18  C   UNL     1       8.409  21.216  53.106  1.00  0.00     0.013 C 
ENDBRANCH   8  11
ENDBRANCH   1   5
BRANCH   2  19
HETATM   19  C   UNL     1       3.901  28.258  51.148  1.00  0.00     0.123 C 
BRANCH  19  20
HETATM   20  C   UNL     1       4.560  29.132  50.080  1.00  0.00     0.026 C 
BRANCH  20  21
HETATM   21  C   UNL     1       5.034  28.310  48.880  1.00  0.00     0.061 C 
BRANCH  21  22
HETATM   22  C   UNL     1       3.964  27.452  48.288  1.00  0.00     0.044 A 
HETATM   23  N   UNL     1       3.979  26.096  48.574  1.00  0.00    -0.229 NA
HETATM   24  C   UNL     1       3.003  25.487  47.949  1.00  0.00     0.164 A 
HETATM   25  N   UNL     1       2.782  24.167  48.044  1.00  0.00    -0.378 N 
HETATM   26  S   UNL     1       1.995  26.498  46.996  1.00  0.00    -0.062 SA
HETATM   27  H   UNL     1       3.229  23.704  48.828  1.00  0.00     0.158 HD
HETATM   28  H   UNL     1       1.851  23.828  47.838  1.00  0.00     0.158 HD
HETATM   29  C   UNL     1       2.952  27.849  47.436  1.00  0.00     0.080 A 
ENDBRANCH  21  22
ENDBRANCH  20  21
ENDBRANCH  19  20
ENDBRANCH   2  19
TORSDOF 6
ENDMDL
MODEL 2
REMARK VINA RESULT:      -8.4      1.972      2.329
REMARK  6 active torsions:
REMARK  status: ('A' for Active; 'I' for Inactive)
REMARK    1  A    between atoms: C_2  and  C_3 
REMARK    2  A    between atoms: C_13  and  C_14 
REMARK       I    between atoms: C_14  and  N_15 
REMARK    3  A    between atoms: N_15  and  C_16 
REMARK    4  A    between atoms: C_16  and  C_17 
REMARK    5  A    between atoms: C_17  and  C_18 
REMARK    6  A    between atoms: C_18  and  C_19 
ROOT
HETATM    1  C   UNL     1       5.013  26.411  51.699  1.00  0.00     0.251 C 
HETATM    2  N   UNL     1       4.776  26.061  50.386  1.00  0.00    -0.357 N 
HETATM    3  O   UNL     1       4.535  27.409  52.226  1.00  0.00    -0.268 OA
HETATM    4  H   UNL     1       5.317  25.330  49.951  1.00  0.00     0.162 HD
ENDROOT
BRANCH   1   5
HETATM    5  C   UNL     1       5.936  25.535  52.478  1.00  0.00     0.032 A 
HETATM    6  C   UNL     1       5.636  25.057  53.758  1.00  0.00     0.017 A 
HETATM    7  C   UNL     1       6.533  24.214  54.433  1.00  0.00     0.008 A 
HETATM    8  C   UNL     1       7.757  23.849  53.856  1.00  0.00    -0.052 A 
HETATM    9  C   UNL     1       8.052  24.350  52.575  1.00  0.00     0.008 A 
HETATM   10  C   UNL     1       7.155  25.182  51.897  1.00  0.00     0.017 A 
BRANCH   8  11
HETATM   11  C   UNL     1       8.777  22.934  54.524  1.00  0.00     0.044 C 
HETATM   12  C   UNL     1       8.372  22.462  55.930  1.00  0.00     0.241 C 
HETATM   13  N   UNL     1       7.515  21.235  55.897  1.00  0.00    -0.074 N 
HETATM   14  H   UNL     1       6.582  21.473  55.539  1.00  0.00     0.277 HD
HETATM   15  H   UNL     1       7.354  20.926  56.865  1.00  0.00     0.277 HD
HETATM   16  C   UNL     1       8.093  20.099  55.123  1.00  0.00     0.232 C 
HETATM   17  C   UNL     1       8.345  20.535  53.690  1.00  0.00     0.028 C 
HETATM   18  C   UNL     1       9.234  21.775  53.619  1.00  0.00     0.013 C 
ENDBRANCH   8  11
ENDBRANCH   1   5
BRANCH   2  19
HETATM   19  C   UNL     1       3.996  26.912  49.504  1.00  0.00     0.123 C 
BRANCH  19  20
HETATM   20  C   UNL     1       3.195  26.113  48.475  1.00  0.00     0.026 C 
BRANCH  20  21
HETATM   21  C   UNL     1       3.190  26.790  47.103  1.00  0.00     0.061 C 
BRANCH  21  22
HETATM   22  C   UNL     1       2.017  27.689  46.890  1.00  0.00     0.044 A 
HETATM   23  N   UNL     1       0.793  27.110  46.591  1.00  0.00    -0.229 NA
HETATM   24  C   UNL     1      -0.114  28.033  46.397  1.00  0.00     0.164 A 
HETATM   25  N   UNL     1      -1.391  27.755  46.090  1.00  0.00    -0.378 N 
HETATM   26  S   UNL     1       0.431  29.650  46.577  1.00  0.00    -0.062 SA
HETATM   27  H   UNL     1      -1.688  26.804  46.281  1.00  0.00     0.158 HD
HETATM   28  H   UNL     1      -2.090  28.458  46.294  1.00  0.00     0.158 HD
HETATM   29  C   UNL     1       2.007  29.071  46.918  1.00  0.00     0.080 A 
ENDBRANCH  21  22
ENDBRANCH  20  21
ENDBRANCH  19  20
ENDBRANCH   2  19
TORSDOF 6
ENDMDL
MODEL 3
REMARK VINA RESULT:      -8.3      6.761      9.099
REMARK  6 active torsions:
REMARK  status: ('A' for Active; 'I' for Inactive)
REMARK    1  A    between atoms: C_2  and  C_3 
REMARK    2  A    between atoms: C_13  and  C_14 
REMARK       I    between atoms: C_14  and  N_15 
REMARK    3  A    between atoms: N_15  and  C_16 
REMARK    4  A    between atoms: C_16  and  C_17 
REMARK    5  A    between atoms: C_17  and  C_18 
REMARK    6  A    between atoms: C_18  and  C_19 
ROOT
HETATM    1  C   UNL     1       7.642  28.236  55.339  1.00  0.00     0.251 C 
HETATM    2  N   UNL     1       6.796  27.173  55.577  1.00  0.00    -0.357 N 
HETATM    3  O   UNL     1       8.210  28.417  54.268  1.00  0.00    -0.268 OA
HETATM    4  H   UNL     1       6.485  26.974  56.515  1.00  0.00     0.162 HD
ENDROOT
BRANCH   1   5
HETATM    5  C   UNL     1       7.890  29.173  56.474  1.00  0.00     0.032 A 
HETATM    6  C   UNL     1       9.165  29.429  56.989  1.00  0.00     0.017 A 
HETATM    7  C   UNL     1       9.339  30.341  58.042  1.00  0.00     0.008 A 
HETATM    8  C   UNL     1       8.244  30.998  58.619  1.00  0.00    -0.052 A 
HETATM    9  C   UNL     1       6.966  30.719  58.101  1.00  0.00     0.008 A 
HETATM   10  C   UNL     1       6.792  29.818  57.045  1.00  0.00     0.017 A 
BRANCH   8  11
HETATM   11  C   UNL     1       8.355  32.004  59.758  1.00  0.00     0.044 C 
HETATM   12  C   UNL     1       7.079  32.137  60.606  1.00  0.00     0.241 C 
HETATM   13  N   UNL     1       7.017  31.124  61.707  1.00  0.00    -0.074 N 
HETATM   14  H   UNL     1       6.844  30.192  61.311  1.00  0.00     0.277 HD
HETATM   15  H   UNL     1       6.189  31.323  62.284  1.00  0.00     0.277 HD
HETATM   16  C   UNL     1       8.219  31.098  62.590  1.00  0.00     0.232 C 
HETATM   17  C   UNL     1       9.456  30.812  61.757  1.00  0.00     0.028 C 
HETATM   18  C   UNL     1       9.619  31.812  60.615  1.00  0.00     0.013 C 
ENDBRANCH   8  11
ENDBRANCH   1   5
BRANCH   2  19
HETATM   19  C   UNL     1       6.586  26.135  54.582  1.00  0.00     0.123 C 
BRANCH  19  20
HETATM   20  C   UNL     1       7.614  25.008  54.685  1.00  0.00     0.026 C 
BRANCH  20  21
HETATM   21  C   UNL     1       7.165  23.911  55.652  1.00  0.00     0.061 C 
BRANCH  21  22
HETATM   22  C   UNL     1       7.675  22.555  55.290  1.00  0.00     0.044 A 
HETATM   23  N   UNL     1       7.615  22.167  53.960  1.00  0.00    -0.229 NA
HETATM   24  C   UNL     1       8.062  20.944  53.821  1.00  0.00     0.164 A 
HETATM   25  N   UNL     1       8.116  20.313  52.638  1.00  0.00    -0.378 N 
HETATM   26  S   UNL     1       8.600  20.188  55.264  1.00  0.00    -0.062 SA
HETATM   27  H   UNL     1       8.054  20.911  51.821  1.00  0.00     0.158 HD
HETATM   28  H   UNL     1       8.769  19.545  52.541  1.00  0.00     0.158 HD
HETATM   29  C   UNL     1       8.181  21.596  56.146  1.00  0.00     0.080 A 
ENDBRANCH  21  22
ENDBRANCH  20  21
ENDBRANCH  19  20
ENDBRANCH   2  19
TORSDOF 6
ENDMDL
MODEL 4
REMARK VINA RESULT:      -8.3      9.757     11.968
REMARK  6 active torsions:
REMARK  status: ('A' for Active; 'I' for Inactive)
REMARK    1  A    between atoms: C_2  and  C_3 
REMARK    2  A    between atoms: C_13  and  C_14 
REMARK       I    between atoms: C_14  and  N_15 
REMARK    3  A    between atoms: N_15  and  C_16 
REMARK    4  A    between atoms: C_16  and  C_17 
REMARK    5  A    between atoms: C_17  and  C_18 
REMARK    6  A    between atoms: C_18  and  C_19 
ROOT
HETATM    1  C   UNL     1       9.369  31.501  59.121  1.00  0.00     0.251 C 
HETATM    2  N   UNL     1       9.199  30.262  58.541  1.00  0.00    -0.357 N 
HETATM    3  O   UNL     1      10.155  32.340  58.697  1.00  0.00    -0.268 OA
HETATM    4  H   UNL     1       8.668  29.548  59.017  1.00  0.00     0.162 HD
ENDROOT
BRANCH   1   5
HETATM    5  C   UNL     1       8.571  31.791  60.349  1.00  0.00     0.032 A 
HETATM    6  C   UNL     1       9.141  31.906  61.621  1.00  0.00     0.017 A 
HETATM    7  C   UNL     1       8.342  32.205  62.736  1.00  0.00     0.008 A 
HETATM    8  C   UNL     1       6.956  32.372  62.610  1.00  0.00    -0.052 A 
HETATM    9  C   UNL     1       6.395  32.238  61.327  1.00  0.00     0.008 A 
HETATM   10  C   UNL     1       7.191  31.950  60.213  1.00  0.00     0.017 A 
BRANCH   8  11
HETATM   11  C   UNL     1       6.027  32.705  63.771  1.00  0.00     0.044 C 
HETATM   12  C   UNL     1       6.706  33.466  64.922  1.00  0.00     0.241 C 
HETATM   13  N   UNL     1       6.715  34.946  64.700  1.00  0.00    -0.074 N 
HETATM   14  H   UNL     1       7.375  35.181  63.949  1.00  0.00     0.277 HD
HETATM   15  H   UNL     1       7.103  35.397  65.540  1.00  0.00     0.277 HD
HETATM   16  C   UNL     1       5.375  35.536  64.418  1.00  0.00     0.232 C 
HETATM   17  C   UNL     1       4.781  34.881  63.184  1.00  0.00     0.028 C 
HETATM   18  C   UNL     1       4.709  33.362  63.323  1.00  0.00     0.013 C 
ENDBRANCH   8  11
ENDBRANCH   1   5
BRANCH   2  19
HETATM   19  C   UNL     1      10.016  29.832  57.420  1.00  0.00     0.123 C 
BRANCH  19  20
HETATM   20  C   UNL     1       9.193  29.168  56.315  1.00  0.00     0.026 C 
BRANCH  20  21
HETATM   21  C   UNL     1       7.737  28.959  56.734  1.00  0.00     0.061 C 
BRANCH  21  22
HETATM   22  C   UNL     1       7.376  27.523  56.933  1.00  0.00     0.044 A 
HETATM   23  N   UNL     1       8.329  26.679  57.480  1.00  0.00    -0.229 NA
HETATM   24  C   UNL     1       7.869  25.455  57.550  1.00  0.00     0.164 A 
HETATM   25  N   UNL     1       8.583  24.429  58.038  1.00  0.00    -0.378 N 
HETATM   26  S   UNL     1       6.264  25.240  56.983  1.00  0.00    -0.062 SA
HETATM   27  H   UNL     1       9.387  24.685  58.600  1.00  0.00     0.158 HD
HETATM   28  H   UNL     1       8.077  23.622  58.381  1.00  0.00     0.158 HD
HETATM   29  C   UNL     1       6.187  26.906  56.595  1.00  0.00     0.080 A 
ENDBRANCH  21  22
ENDBRANCH  20  21
ENDBRANCH  19  20
ENDBRANCH   2  19
TORSDOF 6
ENDMDL
MODEL 5
REMARK VINA RESULT:      -8.2      9.825     11.855
REMARK  6 active torsions:
REMARK  status: ('A' for Active; 'I' for Inactive)
REMARK    1  A    between atoms: C_2  and  C_3 
REMARK    2  A    between atoms: C_13  and  C_14 
REMARK       I    between atoms: C_14  and  N_15 
REMARK    3  A    between atoms: N_15  and  C_16 
REMARK    4  A    between atoms: C_16  and  C_17 
REMARK    5  A    between atoms: C_17  and  C_18 
REMARK    6  A    between atoms: C_18  and  C_19 
ROOT
HETATM    1  C   UNL     1       9.477  31.489  59.024  1.00  0.00     0.251 C 
HETATM    2  N   UNL     1       9.352  30.237  58.460  1.00  0.00    -0.357 N 
HETATM    3  O   UNL     1      10.264  32.335  58.617  1.00  0.00    -0.268 OA
HETATM    4  H   UNL     1       8.815  29.522  58.926  1.00  0.00     0.162 HD
ENDROOT
BRANCH   1   5
HETATM    5  C   UNL     1       8.625  31.785  60.214  1.00  0.00     0.032 A 
HETATM    6  C   UNL     1       7.244  31.987  60.133  1.00  0.00     0.017 A 
HETATM    7  C   UNL     1       6.490  32.238  61.292  1.00  0.00     0.008 A 
HETATM    8  C   UNL     1       7.102  32.314  62.550  1.00  0.00    -0.052 A 
HETATM    9  C   UNL     1       8.494  32.123  62.614  1.00  0.00     0.008 A 
HETATM   10  C   UNL     1       9.245  31.865  61.462  1.00  0.00     0.017 A 
BRANCH   8  11
HETATM   11  C   UNL     1       6.351  32.574  63.850  1.00  0.00     0.044 C 
HETATM   12  C   UNL     1       7.124  33.436  64.862  1.00  0.00     0.241 C 
HETATM   13  N   UNL     1       6.928  34.902  64.630  1.00  0.00    -0.074 N 
HETATM   14  H   UNL     1       7.421  35.187  63.775  1.00  0.00     0.277 HD
HETATM   15  H   UNL     1       7.399  35.415  65.388  1.00  0.00     0.277 HD
HETATM   16  C   UNL     1       5.502  35.333  64.576  1.00  0.00     0.232 C 
HETATM   17  C   UNL     1       4.786  34.583  63.467  1.00  0.00     0.028 C 
HETATM   18  C   UNL     1       4.910  33.069  63.629  1.00  0.00     0.013 C 
ENDBRANCH   8  11
ENDBRANCH   1   5
BRANCH   2  19
HETATM   19  C   UNL     1      10.221  29.803  57.380  1.00  0.00     0.123 C 
BRANCH  19  20
HETATM   20  C   UNL     1       9.493  28.932  56.356  1.00  0.00     0.026 C 
BRANCH  20  21
HETATM   21  C   UNL     1       8.594  27.891  57.026  1.00  0.00     0.061 C 
BRANCH  21  22
HETATM   22  C   UNL     1       7.137  28.141  56.812  1.00  0.00     0.044 A 
HETATM   23  N   UNL     1       6.490  29.018  57.668  1.00  0.00    -0.229 NA
HETATM   24  C   UNL     1       5.218  29.093  57.369  1.00  0.00     0.164 A 
HETATM   25  N   UNL     1       4.351  29.869  58.039  1.00  0.00    -0.378 N 
HETATM   26  S   UNL     1       4.717  28.135  56.036  1.00  0.00    -0.062 SA
HETATM   27  H   UNL     1       4.767  30.598  58.607  1.00  0.00     0.158 HD
HETATM   28  H   UNL     1       3.501  30.147  57.564  1.00  0.00     0.158 HD
HETATM   29  C   UNL     1       6.321  27.559  55.860  1.00  0.00     0.080 A 
ENDBRANCH  21  22
ENDBRANCH  20  21
ENDBRANCH  19  20
ENDBRANCH   2  19
TORSDOF 6
ENDMDL
MODEL 6
REMARK VINA RESULT:      -8.0     11.040     13.188
REMARK  6 active torsions:
REMARK  status: ('A' for Active; 'I' for Inactive)
REMARK    1  A    between atoms: C_2  and  C_3 
REMARK    2  A    between atoms: C_13  and  C_14 
REMARK       I    between atoms: C_14  and  N_15 
REMARK    3  A    between atoms: N_15  and  C_16 
REMARK    4  A    between atoms: C_16  and  C_17 
REMARK    5  A    between atoms: C_17  and  C_18 
REMARK    6  A    between atoms: C_18  and  C_19 
ROOT
HETATM    1  C   UNL     1       8.880  31.977  61.149  1.00  0.00     0.251 C 
HETATM    2  N   UNL     1       8.528  32.023  59.816  1.00  0.00    -0.357 N 
HETATM    3  O   UNL     1       9.975  31.590  61.542  1.00  0.00    -0.268 OA
HETATM    4  H   UNL     1       7.570  32.189  59.551  1.00  0.00     0.162 HD
ENDROOT
BRANCH   1   5
HETATM    5  C   UNL     1       7.843  32.387  62.139  1.00  0.00     0.032 A 
HETATM    6  C   UNL     1       8.139  32.710  63.467  1.00  0.00     0.017 A 
HETATM    7  C   UNL     1       7.122  33.114  64.348  1.00  0.00     0.008 A 
HETATM    8  C   UNL     1       5.787  33.181  63.928  1.00  0.00    -0.052 A 
HETATM    9  C   UNL     1       5.501  32.838  62.594  1.00  0.00     0.008 A 
HETATM   10  C   UNL     1       6.514  32.445  61.713  1.00  0.00     0.017 A 
BRANCH   8  11
HETATM   11  C   UNL     1       4.632  33.617  64.822  1.00  0.00     0.044 C 
HETATM   12  C   UNL     1       5.045  33.945  66.267  1.00  0.00     0.241 C 
HETATM   13  N   UNL     1       5.503  35.361  66.422  1.00  0.00    -0.074 N 
HETATM   14  H   UNL     1       6.417  35.482  65.969  1.00  0.00     0.277 HD
HETATM   15  H   UNL     1       5.680  35.537  67.421  1.00  0.00     0.277 HD
HETATM   16  C   UNL     1       4.537  36.381  65.922  1.00  0.00     0.232 C 
HETATM   17  C   UNL     1       4.256  36.137  64.450  1.00  0.00     0.028 C 
HETATM   18  C   UNL     1       3.759  34.717  64.192  1.00  0.00     0.013 C 
ENDBRANCH   8  11
ENDBRANCH   1   5
BRANCH   2  19
HETATM   19  C   UNL     1       9.418  31.528  58.780  1.00  0.00     0.123 C 
BRANCH  19  20
HETATM   20  C   UNL     1       9.033  30.129  58.295  1.00  0.00     0.026 C 
BRANCH  20  21
HETATM   21  C   UNL     1       7.516  29.935  58.256  1.00  0.00     0.061 C 
BRANCH  21  22
HETATM   22  C   UNL     1       7.102  28.584  57.772  1.00  0.00     0.044 A 
HETATM   23  N   UNL     1       7.877  27.494  58.135  1.00  0.00    -0.229 NA
HETATM   24  C   UNL     1       7.402  26.397  57.599  1.00  0.00     0.164 A 
HETATM   25  N   UNL     1       7.959  25.190  57.783  1.00  0.00    -0.378 N 
HETATM   26  S   UNL     1       5.991  26.597  56.644  1.00  0.00    -0.062 SA
HETATM   27  H   UNL     1       8.597  25.118  58.569  1.00  0.00     0.158 HD
HETATM   28  H   UNL     1       7.375  24.375  57.647  1.00  0.00     0.158 HD
HETATM   29  C   UNL     1       6.032  28.282  56.952  1.00  0.00     0.080 A 
ENDBRANCH  21  22
ENDBRANCH  20  21
ENDBRANCH  19  20
ENDBRANCH   2  19
TORSDOF 6
ENDMDL
MODEL 7
REMARK VINA RESULT:      -8.0      8.737     10.960
REMARK  6 active torsions:
REMARK  status: ('A' for Active; 'I' for Inactive)
REMARK    1  A    between atoms: C_2  and  C_3 
REMARK    2  A    between atoms: C_13  and  C_14 
REMARK       I    between atoms: C_14  and  N_15 
REMARK    3  A    between atoms: N_15  and  C_16 
REMARK    4  A    between atoms: C_16  and  C_17 
REMARK    5  A    between atoms: C_17  and  C_18 
REMARK    6  A    between atoms: C_18  and  C_19 
ROOT
HETATM    1  C   UNL     1       9.011  29.715  57.730  1.00  0.00     0.251 C 
HETATM    2  N   UNL     1       8.471  29.865  58.990  1.00  0.00    -0.357 N 
HETATM    3  O   UNL     1       9.975  30.357  57.331  1.00  0.00    -0.268 OA
HETATM    4  H   UNL     1       7.584  29.440  59.216  1.00  0.00     0.162 HD
ENDROOT
BRANCH   1   5
HETATM    5  C   UNL     1       8.341  28.743  56.816  1.00  0.00     0.032 A 
HETATM    6  C   UNL     1       8.255  28.929  55.433  1.00  0.00     0.017 A 
HETATM    7  C   UNL     1       7.634  27.967  54.620  1.00  0.00     0.008 A 
HETATM    8  C   UNL     1       7.066  26.812  55.173  1.00  0.00    -0.052 A 
HETATM    9  C   UNL     1       7.146  26.645  56.567  1.00  0.00     0.008 A 
HETATM   10  C   UNL     1       7.772  27.598  57.377  1.00  0.00     0.017 A 
BRANCH   8  11
HETATM   11  C   UNL     1       6.383  25.721  54.356  1.00  0.00     0.044 C 
HETATM   12  C   UNL     1       6.512  25.903  52.834  1.00  0.00     0.241 C 
HETATM   13  N   UNL     1       7.775  25.310  52.292  1.00  0.00    -0.074 N 
HETATM   14  H   UNL     1       8.579  25.879  52.584  1.00  0.00     0.277 HD
HETATM   15  H   UNL     1       7.756  25.389  51.266  1.00  0.00     0.277 HD
HETATM   16  C   UNL     1       7.991  23.880  52.657  1.00  0.00     0.232 C 
HETATM   17  C   UNL     1       8.016  23.739  54.169  1.00  0.00     0.028 C 
HETATM   18  C   UNL     1       6.752  24.299  54.815  1.00  0.00     0.013 C 
ENDBRANCH   8  11
ENDBRANCH   1   5
BRANCH   2  19
HETATM   19  C   UNL     1       8.967  30.872  59.912  1.00  0.00     0.123 C 
BRANCH  19  20
HETATM   20  C   UNL     1       7.883  31.381  60.863  1.00  0.00     0.026 C 
BRANCH  20  21
HETATM   21  C   UNL     1       8.460  31.792  62.219  1.00  0.00     0.061 C 
BRANCH  21  22
HETATM   22  C   UNL     1       7.453  32.419  63.127  1.00  0.00     0.044 A 
HETATM   23  N   UNL     1       7.912  33.112  64.235  1.00  0.00    -0.229 NA
HETATM   24  C   UNL     1       6.906  33.563  64.942  1.00  0.00     0.164 A 
HETATM   25  N   UNL     1       7.061  34.269  66.072  1.00  0.00    -0.378 N 
HETATM   26  S   UNL     1       5.349  33.202  64.318  1.00  0.00    -0.062 SA
HETATM   27  H   UNL     1       7.981  34.673  66.212  1.00  0.00     0.158 HD
HETATM   28  H   UNL     1       6.297  34.865  66.366  1.00  0.00     0.158 HD
HETATM   29  C   UNL     1       6.077  32.361  63.015  1.00  0.00     0.080 A 
ENDBRANCH  21  22
ENDBRANCH  20  21
ENDBRANCH  19  20
ENDBRANCH   2  19
TORSDOF 6
ENDMDL
MODEL 8
REMARK VINA RESULT:      -8.0      1.244      1.764
REMARK  6 active torsions:
REMARK  status: ('A' for Active; 'I' for Inactive)
REMARK    1  A    between atoms: C_2  and  C_3 
REMARK    2  A    between atoms: C_13  and  C_14 
REMARK       I    between atoms: C_14  and  N_15 
REMARK    3  A    between atoms: N_15  and  C_16 
REMARK    4  A    between atoms: C_16  and  C_17 
REMARK    5  A    between atoms: C_17  and  C_18 
REMARK    6  A    between atoms: C_18  and  C_19 
ROOT
HETATM    1  C   UNL     1       4.997  26.902  53.884  1.00  0.00     0.251 C 
HETATM    2  N   UNL     1       4.078  27.037  52.864  1.00  0.00    -0.357 N 
HETATM    3  O   UNL     1       5.045  27.656  54.849  1.00  0.00    -0.268 OA
HETATM    4  H   UNL     1       4.181  26.501  52.016  1.00  0.00     0.162 HD
ENDROOT
BRANCH   1   5
HETATM    5  C   UNL     1       5.996  25.801  53.756  1.00  0.00     0.032 A 
HETATM    6  C   UNL     1       6.715  25.553  52.583  1.00  0.00     0.017 A 
HETATM    7  C   UNL     1       7.660  24.516  52.531  1.00  0.00     0.008 A 
HETATM    8  C   UNL     1       7.892  23.692  53.640  1.00  0.00    -0.052 A 
HETATM    9  C   UNL     1       7.151  23.943  54.809  1.00  0.00     0.008 A 
HETATM   10  C   UNL     1       6.215  24.981  54.865  1.00  0.00     0.017 A 
BRANCH   8  11
HETATM   11  C   UNL     1       8.906  22.554  53.661  1.00  0.00     0.044 C 
HETATM   12  C   UNL     1       9.595  22.351  55.021  1.00  0.00     0.241 C 
HETATM   13  N   UNL     1       8.805  21.466  55.934  1.00  0.00    -0.074 N 
HETATM   14  H   UNL     1       7.966  21.961  56.258  1.00  0.00     0.277 HD
HETATM   15  H   UNL     1       9.360  21.303  56.786  1.00  0.00     0.277 HD
HETATM   16  C   UNL     1       8.435  20.146  55.347  1.00  0.00     0.232 C 
HETATM   17  C   UNL     1       7.621  20.362  54.083  1.00  0.00     0.028 C 
HETATM   18  C   UNL     1       8.356  21.241  53.074  1.00  0.00     0.013 C 
ENDBRANCH   8  11
ENDBRANCH   1   5
BRANCH   2  19
HETATM   19  C   UNL     1       3.145  28.149  52.827  1.00  0.00     0.123 C 
BRANCH  19  20
HETATM   20  C   UNL     1       3.503  29.179  51.755  1.00  0.00     0.026 C 
BRANCH  20  21
HETATM   21  C   UNL     1       2.455  29.233  50.641  1.00  0.00     0.061 C 
BRANCH  21  22
HETATM   22  C   UNL     1       2.747  28.306  49.507  1.00  0.00     0.044 A 
HETATM   23  N   UNL     1       4.068  27.962  49.265  1.00  0.00    -0.229 NA
HETATM   24  C   UNL     1       4.152  27.179  48.219  1.00  0.00     0.164 A 
HETATM   25  N   UNL     1       5.315  26.695  47.757  1.00  0.00    -0.378 N 
HETATM   26  S   UNL     1       2.658  26.789  47.470  1.00  0.00    -0.062 SA
HETATM   27  H   UNL     1       6.094  26.736  48.405  1.00  0.00     0.158 HD
HETATM   28  H   UNL     1       5.286  25.853  47.195  1.00  0.00     0.158 HD
HETATM   29  C   UNL     1       1.839  27.760  48.619  1.00  0.00     0.080 A 
ENDBRANCH  21  22
ENDBRANCH  20  21
ENDBRANCH  19  20
ENDBRANCH   2  19
TORSDOF 6
ENDMDL
MODEL 9
REMARK VINA RESULT:      -7.9      9.889     12.192
REMARK  6 active torsions:
REMARK  status: ('A' for Active; 'I' for Inactive)
REMARK    1  A    between atoms: C_2  and  C_3 
REMARK    2  A    between atoms: C_13  and  C_14 
REMARK       I    between atoms: C_14  and  N_15 
REMARK    3  A    between atoms: N_15  and  C_16 
REMARK    4  A    between atoms: C_16  and  C_17 
REMARK    5  A    between atoms: C_17  and  C_18 
REMARK    6  A    between atoms: C_18  and  C_19 
ROOT
HETATM    1  C   UNL     1       8.983  31.218  59.319  1.00  0.00     0.251 C 
HETATM    2  N   UNL     1       8.968  30.887  60.658  1.00  0.00    -0.357 N 
HETATM    3  O   UNL     1       9.320  32.320  58.903  1.00  0.00    -0.268 OA
HETATM    4  H   UNL     1       8.530  30.031  60.963  1.00  0.00     0.162 HD
ENDROOT
BRANCH   1   5
HETATM    5  C   UNL     1       8.524  30.173  58.357  1.00  0.00     0.032 A 
HETATM    6  C   UNL     1       7.177  29.855  58.160  1.00  0.00     0.017 A 
HETATM    7  C   UNL     1       6.803  28.880  57.221  1.00  0.00     0.008 A 
HETATM    8  C   UNL     1       7.767  28.186  56.477  1.00  0.00    -0.052 A 
HETATM    9  C   UNL     1       9.119  28.505  56.697  1.00  0.00     0.008 A 
HETATM   10  C   UNL     1       9.492  29.483  57.625  1.00  0.00     0.017 A 
BRANCH   8  11
HETATM   11  C   UNL     1       7.438  27.122  55.437  1.00  0.00     0.044 C 
HETATM   12  C   UNL     1       6.195  26.279  55.771  1.00  0.00     0.241 C 
HETATM   13  N   UNL     1       4.928  26.920  55.297  1.00  0.00    -0.074 N 
HETATM   14  H   UNL     1       4.717  27.742  55.876  1.00  0.00     0.277 HD
HETATM   15  H   UNL     1       4.150  26.269  55.473  1.00  0.00     0.277 HD
HETATM   16  C   UNL     1       4.924  27.287  53.852  1.00  0.00     0.232 C 
HETATM   17  C   UNL     1       6.068  28.244  53.568  1.00  0.00     0.028 C 
HETATM   18  C   UNL     1       7.415  27.667  53.998  1.00  0.00     0.013 C 
ENDBRANCH   8  11
ENDBRANCH   1   5
BRANCH   2  19
HETATM   19  C   UNL     1       9.275  31.868  61.684  1.00  0.00     0.123 C 
BRANCH  19  20
HETATM   20  C   UNL     1       8.234  31.889  62.805  1.00  0.00     0.026 C 
BRANCH  20  21
HETATM   21  C   UNL     1       7.214  33.014  62.618  1.00  0.00     0.061 C 
BRANCH  21  22
HETATM   22  C   UNL     1       6.495  33.377  63.875  1.00  0.00     0.044 A 
HETATM   23  N   UNL     1       7.249  33.651  65.005  1.00  0.00    -0.229 NA
HETATM   24  C   UNL     1       6.468  33.912  66.023  1.00  0.00     0.164 A 
HETATM   25  N   UNL     1       6.932  34.210  67.247  1.00  0.00    -0.378 N 
HETATM   26  S   UNL     1       4.785  33.865  65.691  1.00  0.00    -0.062 SA
HETATM   27  H   UNL     1       7.906  34.492  67.288  1.00  0.00     0.158 HD
HETATM   28  H   UNL     1       6.324  34.726  67.870  1.00  0.00     0.158 HD
HETATM   29  C   UNL     1       5.128  33.441  64.067  1.00  0.00     0.080 A 
ENDBRANCH  21  22
ENDBRANCH  20  21
ENDBRANCH  19  20
ENDBRANCH   2  19
TORSDOF 6
ENDMDL
MODEL 10
REMARK VINA RESULT:      -7.9      4.732      6.497
REMARK  6 active torsions:
REMARK  status: ('A' for Active; 'I' for Inactive)
REMARK    1  A    between atoms: C_2  and  C_3 
REMARK    2  A    between atoms: C_13  and  C_14 
REMARK       I    between atoms: C_14  and  N_15 
REMARK    3  A    between atoms: N_15  and  C_16 
REMARK    4  A    between atoms: C_16  and  C_17 
REMARK    5  A    between atoms: C_17  and  C_18 
REMARK    6  A    between atoms: C_18  and  C_19 
ROOT
HETATM    1  C   UNL     1       5.073  26.995  54.347  1.00  0.00     0.251 C 
HETATM    2  N   UNL     1       5.079  27.591  55.591  1.00  0.00    -0.357 N 
HETATM    3  O   UNL     1       4.328  27.342  53.438  1.00  0.00    -0.268 OA
HETATM    4  H   UNL     1       5.587  27.169  56.353  1.00  0.00     0.162 HD
ENDROOT
BRANCH   1   5
HETATM    5  C   UNL     1       6.004  25.847  54.141  1.00  0.00     0.032 A 
HETATM    6  C   UNL     1       5.899  24.961  53.064  1.00  0.00     0.017 A 
HETATM    7  C   UNL     1       6.820  23.913  52.909  1.00  0.00     0.008 A 
HETATM    8  C   UNL     1       7.851  23.713  53.836  1.00  0.00    -0.052 A 
HETATM    9  C   UNL     1       7.936  24.602  54.923  1.00  0.00     0.008 A 
HETATM   10  C   UNL     1       7.025  25.652  55.074  1.00  0.00     0.017 A 
BRANCH   8  11
HETATM   11  C   UNL     1       8.891  22.604  53.730  1.00  0.00     0.044 C 
HETATM   12  C   UNL     1       9.598  22.276  55.057  1.00  0.00     0.241 C 
HETATM   13  N   UNL     1       8.839  21.281  55.877  1.00  0.00    -0.074 N 
HETATM   14  H   UNL     1       7.992  21.719  56.258  1.00  0.00     0.277 HD
HETATM   15  H   UNL     1       9.405  21.044  56.703  1.00  0.00     0.277 HD
HETATM   16  C   UNL     1       8.494  20.022  55.157  1.00  0.00     0.232 C 
HETATM   17  C   UNL     1       7.662  20.350  53.930  1.00  0.00     0.028 C 
HETATM   18  C   UNL     1       8.366  21.347  53.013  1.00  0.00     0.013 C 
ENDBRANCH   8  11
ENDBRANCH   1   5
BRANCH   2  19
HETATM   19  C   UNL     1       4.126  28.632  55.936  1.00  0.00     0.123 C 
BRANCH  19  20
HETATM   20  C   UNL     1       4.749  30.028  55.911  1.00  0.00     0.026 C 
BRANCH  20  21
HETATM   21  C   UNL     1       5.039  30.551  57.319  1.00  0.00     0.061 C 
BRANCH  21  22
HETATM   22  C   UNL     1       6.469  30.406  57.723  1.00  0.00     0.044 A 
HETATM   23  N   UNL     1       7.254  29.492  57.038  1.00  0.00    -0.229 NA
HETATM   24  C   UNL     1       8.463  29.461  57.539  1.00  0.00     0.164 A 
HETATM   25  N   UNL     1       9.432  28.661  57.069  1.00  0.00    -0.378 N 
HETATM   26  S   UNL     1       8.745  30.536  58.847  1.00  0.00    -0.062 SA
HETATM   27  H   UNL     1       9.274  28.281  56.142  1.00  0.00     0.158 HD
HETATM   28  H   UNL     1      10.392  28.925  57.251  1.00  0.00     0.158 HD
HETATM   29  C   UNL     1       7.118  31.065  58.750  1.00  0.00     0.080 A 
ENDBRANCH  21  22
ENDBRANCH  20  21
ENDBRANCH  19  20
ENDBRANCH   2  19
TORSDOF 6
ENDMDL
