MODEL 1
REMARK VINA RESULT:     -10.7      0.000      0.000
REMARK  5 active torsions:
REMARK  status: ('A' for Active; 'I' for Inactive)
REMARK    1  A    between atoms: C_9  and  N_10 
REMARK       I    between atoms: N_10  and  C_11 
REMARK    2  A    between atoms: C_11  and  C_12 
REMARK    3  A    between atoms: C_15  and  O_16 
REMARK    4  A    between atoms: O_16  and  C_17 
REMARK    5  A    between atoms: C_17  and  C_18 
ROOT
HETATM    1  C   UNL     1       7.372  25.731  54.557  1.00  0.00    -0.013 A 
HETATM    2  C   UNL     1       7.831  24.920  55.615  1.00  0.00     0.053 A 
HETATM    3  C   UNL     1       7.851  25.393  56.972  1.00  0.00     0.100 C 
HETATM    4  N   UNL     1       7.879  25.775  58.068  1.00  0.00    -0.191 NA
HETATM    5  C   UNL     1       8.289  23.621  55.354  1.00  0.00     0.023 A 
HETATM    6  C   UNL     1       8.296  23.122  54.051  1.00  0.00     0.002 A 
HETATM    7  C   UNL     1       7.846  23.917  53.001  1.00  0.00     0.001 A 
HETATM    8  C   UNL     1       7.386  25.211  53.250  1.00  0.00     0.011 A 
ENDROOT
BRANCH   1   9
HETATM    9  C   UNL     1       6.880  27.144  54.788  1.00  0.00     0.216 C 
BRANCH   9  10
HETATM   10  O   UNL     1       8.006  28.018  54.828  1.00  0.00    -0.347 OA
BRANCH  10  11
HETATM   11  C   UNL     1       8.133  28.797  55.944  1.00  0.00     0.069 A 
HETATM   12  C   UNL     1       9.337  29.197  56.521  1.00  0.00     0.038 A 
HETATM   13  C   UNL     1       9.330  30.030  57.644  1.00  0.00     0.020 A 
HETATM   14  C   UNL     1       8.123  30.481  58.193  1.00  0.00     0.032 A 
HETATM   15  C   UNL     1       6.913  30.059  57.629  1.00  0.00     0.020 A 
HETATM   16  C   UNL     1       6.926  29.229  56.502  1.00  0.00     0.038 A 
BRANCH  14  17
HETATM   17  C   UNL     1       8.191  31.410  59.356  1.00  0.00     0.256 C 
HETATM   18  N   UNL     1       7.464  31.025  60.472  1.00  0.00    -0.323 N 
HETATM   19  H   UNL     1       6.950  30.156  60.408  1.00  0.00     0.169 HD
HETATM   20  O   UNL     1       8.817  32.456  59.230  1.00  0.00    -0.267 OA
BRANCH  18  21
HETATM   21  C   UNL     1       7.242  31.786  61.641  1.00  0.00     0.035 A 
HETATM   22  C   UNL     1       6.000  32.324  61.987  1.00  0.00     0.039 A 
HETATM   23  C   UNL     1       5.870  32.992  63.196  1.00  0.00    -0.022 A 
HETATM   24  C   UNL     1       4.630  33.570  63.784  1.00  0.00     0.274 C 
HETATM   25  C   UNL     1       6.952  33.147  64.061  1.00  0.00    -0.025 A 
HETATM   26  N   UNL     1       5.099  34.301  65.038  1.00  0.00    -0.067 N 
HETATM   27  C   UNL     1       4.177  34.173  66.197  1.00  0.00     0.270 C 
HETATM   28  H   UNL     1       5.166  35.291  64.775  1.00  0.00     0.280 HD
HETATM   29  C   UNL     1       6.525  33.838  65.310  1.00  0.00     0.273 C 
HETATM   30  C   UNL     1       8.198  32.645  63.728  1.00  0.00     0.012 A 
HETATM   31  C   UNL     1       8.336  31.965  62.511  1.00  0.00     0.030 A 
ENDBRANCH  18  21
ENDBRANCH  14  17
ENDBRANCH  10  11
ENDBRANCH   9  10
ENDBRANCH   1   9
TORSDOF 5
ENDMDL
MODEL 2
REMARK VINA RESULT:     -10.4      1.466      2.076
REMARK  5 active torsions:
REMARK  status: ('A' for Active; 'I' for Inactive)
REMARK    1  A    between atoms: C_9  and  N_10 
REMARK       I    between atoms: N_10  and  C_11 
REMARK    2  A    between atoms: C_11  and  C_12 
REMARK    3  A    between atoms: C_15  and  O_16 
REMARK    4  A    between atoms: O_16  and  C_17 
REMARK    5  A    between atoms: C_17  and  C_18 
ROOT
HETATM    1  C   UNL     1       7.557  24.410  55.307  1.00  0.00    -0.013 A 
HETATM    2  C   UNL     1       6.944  24.009  54.103  1.00  0.00     0.053 A 
HETATM    3  C   UNL     1       5.790  24.688  53.582  1.00  0.00     0.100 C 
HETATM    4  N   UNL     1       4.851  25.228  53.164  1.00  0.00    -0.191 NA
HETATM    5  C   UNL     1       7.457  22.919  53.386  1.00  0.00     0.023 A 
HETATM    6  C   UNL     1       8.571  22.223  53.857  1.00  0.00     0.002 A 
HETATM    7  C   UNL     1       9.180  22.613  55.046  1.00  0.00     0.001 A 
HETATM    8  C   UNL     1       8.679  23.698  55.766  1.00  0.00     0.011 A 
ENDROOT
BRANCH   1   9
HETATM    9  C   UNL     1       7.032  25.573  56.122  1.00  0.00     0.216 C 
BRANCH   9  10
HETATM   10  O   UNL     1       7.560  26.784  55.582  1.00  0.00    -0.347 OA
BRANCH  10  11
HETATM   11  C   UNL     1       7.598  27.860  56.424  1.00  0.00     0.069 A 
HETATM   12  C   UNL     1       6.489  28.556  56.901  1.00  0.00     0.038 A 
HETATM   13  C   UNL     1       6.662  29.620  57.792  1.00  0.00     0.020 A 
HETATM   14  C   UNL     1       7.943  29.991  58.222  1.00  0.00     0.032 A 
HETATM   15  C   UNL     1       9.059  29.309  57.722  1.00  0.00     0.020 A 
HETATM   16  C   UNL     1       8.879  28.242  56.834  1.00  0.00     0.038 A 
BRANCH  14  17
HETATM   17  C   UNL     1       8.050  31.098  59.213  1.00  0.00     0.256 C 
HETATM   18  N   UNL     1       7.398  30.886  60.419  1.00  0.00    -0.323 N 
HETATM   19  H   UNL     1       6.905  30.009  60.527  1.00  0.00     0.169 HD
HETATM   20  O   UNL     1       8.639  32.121  58.884  1.00  0.00    -0.267 OA
BRANCH  18  21
HETATM   21  C   UNL     1       7.221  31.823  61.461  1.00  0.00     0.035 A 
HETATM   22  C   UNL     1       6.205  32.782  61.472  1.00  0.00     0.039 A 
HETATM   23  C   UNL     1       6.070  33.606  62.579  1.00  0.00    -0.022 A 
HETATM   24  C   UNL     1       5.020  34.633  62.823  1.00  0.00     0.274 C 
HETATM   25  C   UNL     1       6.933  33.505  63.670  1.00  0.00    -0.025 A 
HETATM   26  N   UNL     1       5.445  35.324  64.115  1.00  0.00    -0.067 N 
HETATM   27  C   UNL     1       4.318  35.661  65.024  1.00  0.00     0.270 C 
HETATM   28  H   UNL     1       5.910  36.194  63.826  1.00  0.00     0.280 HD
HETATM   29  C   UNL     1       6.527  34.454  64.744  1.00  0.00     0.273 C 
HETATM   30  C   UNL     1       7.962  32.580  63.671  1.00  0.00     0.012 A 
HETATM   31  C   UNL     1       8.102  31.741  62.558  1.00  0.00     0.030 A 
ENDBRANCH  18  21
ENDBRANCH  14  17
ENDBRANCH  10  11
ENDBRANCH   9  10
ENDBRANCH   1   9
TORSDOF 5
ENDMDL
MODEL 3
REMARK VINA RESULT:      -9.4      1.721     10.752
REMARK  5 active torsions:
REMARK  status: ('A' for Active; 'I' for Inactive)
REMARK    1  A    between atoms: C_9  and  N_10 
REMARK       I    between atoms: N_10  and  C_11 
REMARK    2  A    between atoms: C_11  and  C_12 
REMARK    3  A    between atoms: C_15  and  O_16 
REMARK    4  A    between atoms: O_16  and  C_17 
REMARK    5  A    between atoms: C_17  and  C_18 
ROOT
HETATM    1  C   UNL     1       6.291  32.602  61.819  1.00  0.00    -0.013 A 
HETATM    2  C   UNL     1       5.653  33.334  62.841  1.00  0.00     0.053 A 
HETATM    3  C   UNL     1       4.329  33.867  62.671  1.00  0.00     0.100 C 
HETATM    4  N   UNL     1       3.264  34.309  62.533  1.00  0.00    -0.191 NA
HETATM    5  C   UNL     1       6.313  33.561  64.056  1.00  0.00     0.023 A 
HETATM    6  C   UNL     1       7.602  33.070  64.263  1.00  0.00     0.002 A 
HETATM    7  C   UNL     1       8.240  32.349  63.258  1.00  0.00     0.001 A 
HETATM    8  C   UNL     1       7.590  32.115  62.045  1.00  0.00     0.011 A 
ENDROOT
BRANCH   1   9
HETATM    9  C   UNL     1       5.623  32.342  60.485  1.00  0.00     0.216 C 
BRANCH   9  10
HETATM   10  O   UNL     1       6.584  32.536  59.449  1.00  0.00    -0.347 OA
BRANCH  10  11
HETATM   11  C   UNL     1       6.746  31.505  58.567  1.00  0.00     0.069 A 
HETATM   12  C   UNL     1       5.754  30.982  57.740  1.00  0.00     0.038 A 
HETATM   13  C   UNL     1       6.060  29.947  56.850  1.00  0.00     0.020 A 
HETATM   14  C   UNL     1       7.361  29.433  56.772  1.00  0.00     0.032 A 
HETATM   15  C   UNL     1       8.351  29.940  57.621  1.00  0.00     0.020 A 
HETATM   16  C   UNL     1       8.041  30.979  58.506  1.00  0.00     0.038 A 
BRANCH  14  17
HETATM   17  C   UNL     1       7.629  28.369  55.764  1.00  0.00     0.256 C 
HETATM   18  N   UNL     1       7.049  27.137  56.027  1.00  0.00    -0.323 N 
HETATM   19  H   UNL     1       6.500  27.059  56.873  1.00  0.00     0.169 HD
HETATM   20  O   UNL     1       8.375  28.627  54.826  1.00  0.00    -0.267 OA
BRANCH  18  21
HETATM   21  C   UNL     1       7.262  25.933  55.319  1.00  0.00     0.035 A 
HETATM   22  C   UNL     1       8.140  24.933  55.744  1.00  0.00     0.039 A 
HETATM   23  C   UNL     1       8.220  23.755  55.017  1.00  0.00    -0.022 A 
HETATM   24  C   UNL     1       9.028  22.545  55.336  1.00  0.00     0.274 C 
HETATM   25  C   UNL     1       7.455  23.556  53.869  1.00  0.00    -0.025 A 
HETATM   26  N   UNL     1       8.846  21.628  54.131  1.00  0.00    -0.067 N 
HETATM   27  C   UNL     1       8.721  20.187  54.477  1.00  0.00     0.270 C 
HETATM   28  H   UNL     1       9.683  21.758  53.551  1.00  0.00     0.280 HD
HETATM   29  C   UNL     1       7.680  22.188  53.323  1.00  0.00     0.273 C 
HETATM   30  C   UNL     1       6.597  24.542  53.414  1.00  0.00     0.012 A 
HETATM   31  C   UNL     1       6.507  25.733  54.146  1.00  0.00     0.030 A 
ENDBRANCH  18  21
ENDBRANCH  14  17
ENDBRANCH  10  11
ENDBRANCH   9  10
ENDBRANCH   1   9
TORSDOF 5
ENDMDL
MODEL 4
REMARK VINA RESULT:      -9.4      1.716     10.741
REMARK  5 active torsions:
REMARK  status: ('A' for Active; 'I' for Inactive)
REMARK    1  A    between atoms: C_9  and  N_10 
REMARK       I    between atoms: N_10  and  C_11 
REMARK    2  A    between atoms: C_11  and  C_12 
REMARK    3  A    between atoms: C_15  and  O_16 
REMARK    4  A    between atoms: O_16  and  C_17 
REMARK    5  A    between atoms: C_17  and  C_18 
ROOT
HETATM    1  C   UNL     1       6.512  33.007  62.140  1.00  0.00    -0.013 A 
HETATM    2  C   UNL     1       7.496  32.483  63.002  1.00  0.00     0.053 A 
HETATM    3  C   UNL     1       8.236  31.298  62.667  1.00  0.00     0.100 C 
HETATM    4  N   UNL     1       8.829  30.334  62.405  1.00  0.00    -0.191 NA
HETATM    5  C   UNL     1       7.768  33.118  64.222  1.00  0.00     0.023 A 
HETATM    6  C   UNL     1       7.069  34.266  64.593  1.00  0.00     0.002 A 
HETATM    7  C   UNL     1       6.094  34.789  63.748  1.00  0.00     0.001 A 
HETATM    8  C   UNL     1       5.817  34.166  62.530  1.00  0.00     0.011 A 
ENDROOT
BRANCH   1   9
HETATM    9  C   UNL     1       6.175  32.350  60.818  1.00  0.00     0.216 C 
BRANCH   9  10
HETATM   10  O   UNL     1       7.337  32.367  59.991  1.00  0.00    -0.347 OA
BRANCH  10  11
HETATM   11  C   UNL     1       7.399  31.418  59.009  1.00  0.00     0.069 A 
HETATM   12  C   UNL     1       6.396  31.144  58.081  1.00  0.00     0.038 A 
HETATM   13  C   UNL     1       6.600  30.171  57.098  1.00  0.00     0.020 A 
HETATM   14  C   UNL     1       7.811  29.470  57.027  1.00  0.00     0.032 A 
HETATM   15  C   UNL     1       8.809  29.727  57.975  1.00  0.00     0.020 A 
HETATM   16  C   UNL     1       8.601  30.706  58.953  1.00  0.00     0.038 A 
BRANCH  14  17
HETATM   17  C   UNL     1       7.981  28.486  55.921  1.00  0.00     0.256 C 
HETATM   18  N   UNL     1       7.449  27.227  56.155  1.00  0.00    -0.323 N 
HETATM   19  H   UNL     1       6.996  27.078  57.047  1.00  0.00     0.169 HD
HETATM   20  O   UNL     1       8.618  28.826  54.930  1.00  0.00    -0.267 OA
BRANCH  18  21
HETATM   21  C   UNL     1       7.599  26.081  55.343  1.00  0.00     0.035 A 
HETATM   22  C   UNL     1       8.200  24.898  55.780  1.00  0.00     0.039 A 
HETATM   23  C   UNL     1       8.229  23.804  54.929  1.00  0.00    -0.022 A 
HETATM   24  C   UNL     1       8.750  22.440  55.222  1.00  0.00     0.274 C 
HETATM   25  C   UNL     1       7.684  23.865  53.647  1.00  0.00    -0.025 A 
HETATM   26  N   UNL     1       8.662  21.697  53.893  1.00  0.00    -0.067 N 
HETATM   27  C   UNL     1       8.238  20.277  54.017  1.00  0.00     0.270 C 
HETATM   28  H   UNL     1       9.608  21.727  53.493  1.00  0.00     0.280 HD
HETATM   29  C   UNL     1       7.787  22.540  52.973  1.00  0.00     0.273 C 
HETATM   30  C   UNL     1       7.106  25.033  53.182  1.00  0.00     0.012 A 
HETATM   31  C   UNL     1       7.069  26.142  54.038  1.00  0.00     0.030 A 
ENDBRANCH  18  21
ENDBRANCH  14  17
ENDBRANCH  10  11
ENDBRANCH   9  10
ENDBRANCH   1   9
TORSDOF 5
ENDMDL
MODEL 5
REMARK VINA RESULT:      -9.3      7.758     11.173
REMARK  5 active torsions:
REMARK  status: ('A' for Active; 'I' for Inactive)
REMARK    1  A    between atoms: C_9  and  N_10 
REMARK       I    between atoms: N_10  and  C_11 
REMARK    2  A    between atoms: C_11  and  C_12 
REMARK    3  A    between atoms: C_15  and  O_16 
REMARK    4  A    between atoms: O_16  and  C_17 
REMARK    5  A    between atoms: C_17  and  C_18 
ROOT
HETATM    1  C   UNL     1       7.987  22.881  55.056  1.00  0.00    -0.013 A 
HETATM    2  C   UNL     1       8.096  22.744  53.657  1.00  0.00     0.053 A 
HETATM    3  C   UNL     1       8.143  23.889  52.791  1.00  0.00     0.100 C 
HETATM    4  N   UNL     1       8.171  24.812  52.086  1.00  0.00    -0.191 NA
HETATM    5  C   UNL     1       8.156  21.468  53.081  1.00  0.00     0.023 A 
HETATM    6  C   UNL     1       8.105  20.327  53.882  1.00  0.00     0.002 A 
HETATM    7  C   UNL     1       7.995  20.453  55.264  1.00  0.00     0.001 A 
HETATM    8  C   UNL     1       7.938  21.720  55.848  1.00  0.00     0.011 A 
ENDROOT
BRANCH   1   9
HETATM    9  C   UNL     1       7.908  24.237  55.723  1.00  0.00     0.216 C 
BRANCH   9  10
HETATM   10  O   UNL     1       6.534  24.597  55.863  1.00  0.00    -0.347 OA
BRANCH  10  11
HETATM   11  C   UNL     1       5.997  25.351  54.857  1.00  0.00     0.069 A 
HETATM   12  C   UNL     1       5.070  24.905  53.917  1.00  0.00     0.038 A 
HETATM   13  C   UNL     1       4.566  25.790  52.959  1.00  0.00     0.020 A 
HETATM   14  C   UNL     1       4.975  27.130  52.939  1.00  0.00     0.032 A 
HETATM   15  C   UNL     1       5.926  27.571  53.866  1.00  0.00     0.020 A 
HETATM   16  C   UNL     1       6.423  26.682  54.826  1.00  0.00     0.038 A 
BRANCH  14  17
HETATM   17  C   UNL     1       4.357  28.031  51.925  1.00  0.00     0.256 C 
HETATM   18  N   UNL     1       4.253  27.508  50.645  1.00  0.00    -0.323 N 
HETATM   19  H   UNL     1       4.603  26.569  50.502  1.00  0.00     0.169 HD
HETATM   20  O   UNL     1       4.047  29.167  52.266  1.00  0.00    -0.267 OA
BRANCH  18  21
HETATM   21  C   UNL     1       3.846  28.196  49.480  1.00  0.00     0.035 A 
HETATM   22  C   UNL     1       2.546  28.149  48.971  1.00  0.00     0.039 A 
HETATM   23  C   UNL     1       2.229  28.922  47.864  1.00  0.00    -0.022 A 
HETATM   24  C   UNL     1       0.897  29.074  47.215  1.00  0.00     0.274 C 
HETATM   25  C   UNL     1       3.181  29.731  47.246  1.00  0.00    -0.025 A 
HETATM   26  N   UNL     1       1.165  29.917  45.973  1.00  0.00    -0.067 N 
HETATM   27  C   UNL     1       0.107  30.919  45.679  1.00  0.00     0.270 C 
HETATM   28  H   UNL     1       1.219  29.254  45.191  1.00  0.00     0.280 HD
HETATM   29  C   UNL     1       2.564  30.502  46.130  1.00  0.00     0.273 C 
HETATM   30  C   UNL     1       4.481  29.775  47.717  1.00  0.00     0.012 A 
HETATM   31  C   UNL     1       4.809  29.000  48.837  1.00  0.00     0.030 A 
ENDBRANCH  18  21
ENDBRANCH  14  17
ENDBRANCH  10  11
ENDBRANCH   9  10
ENDBRANCH   1   9
TORSDOF 5
ENDMDL
MODEL 6
REMARK VINA RESULT:      -9.2      3.250      4.188
REMARK  5 active torsions:
REMARK  status: ('A' for Active; 'I' for Inactive)
REMARK    1  A    between atoms: C_9  and  N_10 
REMARK       I    between atoms: N_10  and  C_11 
REMARK    2  A    between atoms: C_11  and  C_12 
REMARK    3  A    between atoms: C_15  and  O_16 
REMARK    4  A    between atoms: O_16  and  C_17 
REMARK    5  A    between atoms: C_17  and  C_18 
ROOT
HETATM    1  C   UNL     1       8.019  22.986  55.082  1.00  0.00    -0.013 A 
HETATM    2  C   UNL     1       7.997  22.967  53.673  1.00  0.00     0.053 A 
HETATM    3  C   UNL     1       8.042  24.179  52.903  1.00  0.00     0.100 C 
HETATM    4  N   UNL     1       8.067  25.158  52.278  1.00  0.00    -0.191 NA
HETATM    5  C   UNL     1       7.925  21.745  52.990  1.00  0.00     0.023 A 
HETATM    6  C   UNL     1       7.872  20.542  53.696  1.00  0.00     0.002 A 
HETATM    7  C   UNL     1       7.890  20.553  55.087  1.00  0.00     0.001 A 
HETATM    8  C   UNL     1       7.964  21.764  55.777  1.00  0.00     0.011 A 
ENDROOT
BRANCH   1   9
HETATM    9  C   UNL     1       8.083  24.281  55.864  1.00  0.00     0.216 C 
BRANCH   9  10
HETATM   10  O   UNL     1       6.754  24.684  56.189  1.00  0.00    -0.347 OA
BRANCH  10  11
HETATM   11  C   UNL     1       6.587  25.988  56.563  1.00  0.00     0.069 A 
HETATM   12  C   UNL     1       5.380  26.683  56.566  1.00  0.00     0.038 A 
HETATM   13  C   UNL     1       5.337  28.008  57.011  1.00  0.00     0.020 A 
HETATM   14  C   UNL     1       6.498  28.646  57.467  1.00  0.00     0.032 A 
HETATM   15  C   UNL     1       7.715  27.957  57.440  1.00  0.00     0.020 A 
HETATM   16  C   UNL     1       7.751  26.629  56.999  1.00  0.00     0.038 A 
BRANCH  14  17
HETATM   17  C   UNL     1       6.370  30.041  57.978  1.00  0.00     0.256 C 
HETATM   18  N   UNL     1       5.072  30.506  58.125  1.00  0.00    -0.323 N 
HETATM   19  H   UNL     1       4.324  29.871  57.875  1.00  0.00     0.169 HD
HETATM   20  O   UNL     1       7.393  30.688  58.170  1.00  0.00    -0.267 OA
BRANCH  18  21
HETATM   21  C   UNL     1       4.677  31.823  58.448  1.00  0.00     0.035 A 
HETATM   22  C   UNL     1       4.087  32.177  59.663  1.00  0.00     0.039 A 
HETATM   23  C   UNL     1       3.806  33.512  59.912  1.00  0.00    -0.022 A 
HETATM   24  C   UNL     1       3.252  34.106  61.161  1.00  0.00     0.274 C 
HETATM   25  C   UNL     1       4.088  34.501  58.971  1.00  0.00    -0.025 A 
HETATM   26  N   UNL     1       3.017  35.574  60.822  1.00  0.00    -0.067 N 
HETATM   27  C   UNL     1       3.348  36.513  61.925  1.00  0.00     0.270 C 
HETATM   28  H   UNL     1       2.016  35.654  60.607  1.00  0.00     0.280 HD
HETATM   29  C   UNL     1       3.753  35.848  59.515  1.00  0.00     0.273 C 
HETATM   30  C   UNL     1       4.650  34.173  57.750  1.00  0.00     0.012 A 
HETATM   31  C   UNL     1       4.940  32.827  57.493  1.00  0.00     0.030 A 
ENDBRANCH  18  21
ENDBRANCH  14  17
ENDBRANCH  10  11
ENDBRANCH   9  10
ENDBRANCH   1   9
TORSDOF 5
ENDMDL
MODEL 7
REMARK VINA RESULT:      -9.0      1.785     10.539
REMARK  5 active torsions:
REMARK  status: ('A' for Active; 'I' for Inactive)
REMARK    1  A    between atoms: C_9  and  N_10 
REMARK       I    between atoms: N_10  and  C_11 
REMARK    2  A    between atoms: C_11  and  C_12 
REMARK    3  A    between atoms: C_15  and  O_16 
REMARK    4  A    between atoms: O_16  and  C_17 
REMARK    5  A    between atoms: C_17  and  C_18 
ROOT
HETATM    1  C   UNL     1       5.287  33.193  63.564  1.00  0.00    -0.013 A 
HETATM    2  C   UNL     1       4.930  33.852  64.757  1.00  0.00     0.053 A 
HETATM    3  C   UNL     1       5.844  33.959  65.861  1.00  0.00     0.100 C 
HETATM    4  N   UNL     1       6.576  34.038  66.759  1.00  0.00    -0.191 NA
HETATM    5  C   UNL     1       3.654  34.418  64.889  1.00  0.00     0.023 A 
HETATM    6  C   UNL     1       2.731  34.332  63.847  1.00  0.00     0.002 A 
HETATM    7  C   UNL     1       3.076  33.681  62.666  1.00  0.00     0.001 A 
HETATM    8  C   UNL     1       4.344  33.116  62.524  1.00  0.00     0.011 A 
ENDROOT
BRANCH   1   9
HETATM    9  C   UNL     1       6.648  32.556  63.378  1.00  0.00     0.216 C 
BRANCH   9  10
HETATM   10  O   UNL     1       7.260  33.115  62.217  1.00  0.00    -0.347 OA
BRANCH  10  11
HETATM   11  C   UNL     1       7.651  32.233  61.250  1.00  0.00     0.069 A 
HETATM   12  C   UNL     1       8.818  31.471  61.271  1.00  0.00     0.038 A 
HETATM   13  C   UNL     1       9.084  30.572  60.234  1.00  0.00     0.020 A 
HETATM   14  C   UNL     1       8.183  30.417  59.173  1.00  0.00     0.032 A 
HETATM   15  C   UNL     1       7.023  31.201  59.138  1.00  0.00     0.020 A 
HETATM   16  C   UNL     1       6.760  32.096  60.181  1.00  0.00     0.038 A 
BRANCH  14  17
HETATM   17  C   UNL     1       8.503  29.402  58.130  1.00  0.00     0.256 C 
HETATM   18  N   UNL     1       7.497  28.487  57.857  1.00  0.00    -0.323 N 
HETATM   19  H   UNL     1       6.637  28.579  58.383  1.00  0.00     0.169 HD
HETATM   20  O   UNL     1       9.627  29.404  57.640  1.00  0.00    -0.267 OA
BRANCH  18  21
HETATM   21  C   UNL     1       7.592  27.347  57.029  1.00  0.00     0.035 A 
HETATM   22  C   UNL     1       8.107  26.122  57.459  1.00  0.00     0.039 A 
HETATM   23  C   UNL     1       8.086  25.041  56.591  1.00  0.00    -0.022 A 
HETATM   24  C   UNL     1       8.512  23.642  56.872  1.00  0.00     0.274 C 
HETATM   25  C   UNL     1       7.576  25.157  55.298  1.00  0.00    -0.025 A 
HETATM   26  N   UNL     1       8.408  22.927  55.529  1.00  0.00    -0.067 N 
HETATM   27  C   UNL     1       7.892  21.535  55.620  1.00  0.00     0.270 C 
HETATM   28  H   UNL     1       9.363  22.902  55.151  1.00  0.00     0.280 HD
HETATM   29  C   UNL     1       7.610  23.839  54.604  1.00  0.00     0.273 C 
HETATM   30  C   UNL     1       7.083  26.367  54.841  1.00  0.00     0.012 A 
HETATM   31  C   UNL     1       7.097  27.462  55.714  1.00  0.00     0.030 A 
ENDBRANCH  18  21
ENDBRANCH  14  17
ENDBRANCH  10  11
ENDBRANCH   9  10
ENDBRANCH   1   9
TORSDOF 5
ENDMDL
MODEL 8
REMARK VINA RESULT:      -9.0      4.007      5.305
REMARK  5 active torsions:
REMARK  status: ('A' for Active; 'I' for Inactive)
REMARK    1  A    between atoms: C_9  and  N_10 
REMARK       I    between atoms: N_10  and  C_11 
REMARK    2  A    between atoms: C_11  and  C_12 
REMARK    3  A    between atoms: C_15  and  O_16 
REMARK    4  A    between atoms: O_16  and  C_17 
REMARK    5  A    between atoms: C_17  and  C_18 
ROOT
HETATM    1  C   UNL     1       8.640  22.583  55.090  1.00  0.00    -0.013 A 
HETATM    2  C   UNL     1       8.199  22.954  53.804  1.00  0.00     0.053 A 
HETATM    3  C   UNL     1       8.036  24.333  53.432  1.00  0.00     0.100 C 
HETATM    4  N   UNL     1       7.893  25.445  53.132  1.00  0.00    -0.191 NA
HETATM    5  C   UNL     1       7.903  21.967  52.853  1.00  0.00     0.023 A 
HETATM    6  C   UNL     1       8.038  20.615  53.171  1.00  0.00     0.002 A 
HETATM    7  C   UNL     1       8.471  20.241  54.440  1.00  0.00     0.001 A 
HETATM    8  C   UNL     1       8.770  21.216  55.393  1.00  0.00     0.011 A 
ENDROOT
BRANCH   1   9
HETATM    9  C   UNL     1       8.960  23.612  56.154  1.00  0.00     0.216 C 
BRANCH   9  10
HETATM   10  O   UNL     1       7.819  23.766  56.997  1.00  0.00    -0.347 OA
BRANCH  10  11
HETATM   11  C   UNL     1       7.258  25.011  57.040  1.00  0.00     0.069 A 
HETATM   12  C   UNL     1       7.887  26.169  57.492  1.00  0.00     0.038 A 
HETATM   13  C   UNL     1       7.213  27.394  57.447  1.00  0.00     0.020 A 
HETATM   14  C   UNL     1       5.910  27.474  56.940  1.00  0.00     0.032 A 
HETATM   15  C   UNL     1       5.268  26.307  56.510  1.00  0.00     0.020 A 
HETATM   16  C   UNL     1       5.949  25.085  56.553  1.00  0.00     0.038 A 
BRANCH  14  17
HETATM   17  C   UNL     1       5.272  28.819  56.871  1.00  0.00     0.256 C 
HETATM   18  N   UNL     1       6.063  29.878  57.290  1.00  0.00    -0.323 N 
HETATM   19  H   UNL     1       6.998  29.656  57.608  1.00  0.00     0.169 HD
HETATM   20  O   UNL     1       4.100  28.892  56.517  1.00  0.00    -0.267 OA
BRANCH  18  21
HETATM   21  C   UNL     1       5.658  31.220  57.463  1.00  0.00     0.035 A 
HETATM   22  C   UNL     1       5.213  32.032  56.417  1.00  0.00     0.039 A 
HETATM   23  C   UNL     1       4.765  33.313  56.703  1.00  0.00    -0.022 A 
HETATM   24  C   UNL     1       4.185  34.305  55.756  1.00  0.00     0.274 C 
HETATM   25  C   UNL     1       4.763  33.808  58.007  1.00  0.00    -0.025 A 
HETATM   26  N   UNL     1       4.009  35.575  56.582  1.00  0.00    -0.067 N 
HETATM   27  C   UNL     1       2.761  36.326  56.284  1.00  0.00     0.270 C 
HETATM   28  H   UNL     1       4.816  36.169  56.358  1.00  0.00     0.280 HD
HETATM   29  C   UNL     1       4.172  35.175  58.045  1.00  0.00     0.273 C 
HETATM   30  C   UNL     1       5.222  33.031  59.056  1.00  0.00     0.012 A 
HETATM   31  C   UNL     1       5.672  31.735  58.775  1.00  0.00     0.030 A 
ENDBRANCH  18  21
ENDBRANCH  14  17
ENDBRANCH  10  11
ENDBRANCH   9  10
ENDBRANCH   1   9
TORSDOF 5
ENDMDL
MODEL 9
REMARK VINA RESULT:      -8.8      5.636      7.320
REMARK  5 active torsions:
REMARK  status: ('A' for Active; 'I' for Inactive)
REMARK    1  A    between atoms: C_9  and  N_10 
REMARK       I    between atoms: N_10  and  C_11 
REMARK    2  A    between atoms: C_11  and  C_12 
REMARK    3  A    between atoms: C_15  and  O_16 
REMARK    4  A    between atoms: O_16  and  C_17 
REMARK    5  A    between atoms: C_17  and  C_18 
ROOT
HETATM    1  C   UNL     1       8.608  22.615  55.192  1.00  0.00    -0.013 A 
HETATM    2  C   UNL     1       8.111  23.022  53.937  1.00  0.00     0.053 A 
HETATM    3  C   UNL     1       7.948  24.411  53.606  1.00  0.00     0.100 C 
HETATM    4  N   UNL     1       7.804  25.532  53.339  1.00  0.00    -0.191 NA
HETATM    5  C   UNL     1       7.757  22.061  52.979  1.00  0.00     0.023 A 
HETATM    6  C   UNL     1       7.890  20.701  53.259  1.00  0.00     0.002 A 
HETATM    7  C   UNL     1       8.378  20.292  54.497  1.00  0.00     0.001 A 
HETATM    8  C   UNL     1       8.736  21.240  55.457  1.00  0.00     0.011 A 
ENDROOT
BRANCH   1   9
HETATM    9  C   UNL     1       8.992  23.615  56.262  1.00  0.00     0.216 C 
BRANCH   9  10
HETATM   10  O   UNL     1       7.871  23.814  57.123  1.00  0.00    -0.347 OA
BRANCH  10  11
HETATM   11  C   UNL     1       7.284  25.047  57.082  1.00  0.00     0.069 A 
HETATM   12  C   UNL     1       7.931  26.261  57.306  1.00  0.00     0.038 A 
HETATM   13  C   UNL     1       7.222  27.461  57.195  1.00  0.00     0.020 A 
HETATM   14  C   UNL     1       5.864  27.460  56.851  1.00  0.00     0.032 A 
HETATM   15  C   UNL     1       5.208  26.240  56.652  1.00  0.00     0.020 A 
HETATM   16  C   UNL     1       5.924  25.042  56.759  1.00  0.00     0.038 A 
BRANCH  14  17
HETATM   17  C   UNL     1       5.184  28.778  56.697  1.00  0.00     0.256 C 
HETATM   18  N   UNL     1       4.412  28.922  55.554  1.00  0.00    -0.323 N 
HETATM   19  H   UNL     1       4.374  28.132  54.922  1.00  0.00     0.169 HD
HETATM   20  O   UNL     1       5.396  29.645  57.537  1.00  0.00    -0.267 OA
BRANCH  18  21
HETATM   21  C   UNL     1       3.788  30.104  55.099  1.00  0.00     0.035 A 
HETATM   22  C   UNL     1       3.863  30.558  53.780  1.00  0.00     0.039 A 
HETATM   23  C   UNL     1       3.151  31.691  53.416  1.00  0.00    -0.022 A 
HETATM   24  C   UNL     1       3.035  32.293  52.059  1.00  0.00     0.274 C 
HETATM   25  C   UNL     1       2.376  32.390  54.341  1.00  0.00    -0.025 A 
HETATM   26  N   UNL     1       2.259  33.589  52.274  1.00  0.00    -0.067 N 
HETATM   27  C   UNL     1       1.275  33.894  51.203  1.00  0.00     0.270 C 
HETATM   28  H   UNL     1       2.964  34.336  52.300  1.00  0.00     0.280 HD
HETATM   29  C   UNL     1       1.666  33.520  53.677  1.00  0.00     0.273 C 
HETATM   30  C   UNL     1       2.305  31.975  55.659  1.00  0.00     0.012 A 
HETATM   31  C   UNL     1       3.019  30.828  56.033  1.00  0.00     0.030 A 
ENDBRANCH  18  21
ENDBRANCH  14  17
ENDBRANCH  10  11
ENDBRANCH   9  10
ENDBRANCH   1   9
TORSDOF 5
ENDMDL
MODEL 10
REMARK VINA RESULT:      -8.7      2.255     10.791
REMARK  5 active torsions:
REMARK  status: ('A' for Active; 'I' for Inactive)
REMARK    1  A    between atoms: C_9  and  N_10 
REMARK       I    between atoms: N_10  and  C_11 
REMARK    2  A    between atoms: C_11  and  C_12 
REMARK    3  A    between atoms: C_15  and  O_16 
REMARK    4  A    between atoms: O_16  and  C_17 
REMARK    5  A    between atoms: C_17  and  C_18 
ROOT
HETATM    1  C   UNL     1       5.097  33.791  60.685  1.00  0.00    -0.013 A 
HETATM    2  C   UNL     1       5.942  33.713  61.810  1.00  0.00     0.053 A 
HETATM    3  C   UNL     1       6.694  32.525  62.106  1.00  0.00     0.100 C 
HETATM    4  N   UNL     1       7.295  31.563  62.354  1.00  0.00    -0.191 NA
HETATM    5  C   UNL     1       6.058  34.810  62.676  1.00  0.00     0.023 A 
HETATM    6  C   UNL     1       5.340  35.981  62.434  1.00  0.00     0.002 A 
HETATM    7  C   UNL     1       4.502  36.065  61.326  1.00  0.00     0.001 A 
HETATM    8  C   UNL     1       4.381  34.980  60.457  1.00  0.00     0.011 A 
ENDROOT
BRANCH   1   9
HETATM    9  C   UNL     1       4.929  32.629  59.729  1.00  0.00     0.216 C 
BRANCH   9  10
HETATM   10  O   UNL     1       6.058  32.588  58.858  1.00  0.00    -0.347 OA
BRANCH  10  11
HETATM   11  C   UNL     1       6.479  31.349  58.465  1.00  0.00     0.069 A 
HETATM   12  C   UNL     1       7.698  30.763  58.798  1.00  0.00     0.038 A 
HETATM   13  C   UNL     1       7.994  29.468  58.363  1.00  0.00     0.020 A 
HETATM   14  C   UNL     1       7.070  28.743  57.599  1.00  0.00     0.032 A 
HETATM   15  C   UNL     1       5.856  29.341  57.241  1.00  0.00     0.020 A 
HETATM   16  C   UNL     1       5.564  30.636  57.685  1.00  0.00     0.038 A 
BRANCH  14  17
HETATM   17  C   UNL     1       7.427  27.348  57.215  1.00  0.00     0.256 C 
HETATM   18  N   UNL     1       7.363  27.067  55.858  1.00  0.00    -0.323 N 
HETATM   19  H   UNL     1       7.080  27.821  55.245  1.00  0.00     0.169 HD
HETATM   20  O   UNL     1       7.687  26.546  58.104  1.00  0.00    -0.267 OA
BRANCH  18  21
HETATM   21  C   UNL     1       7.508  25.801  55.249  1.00  0.00     0.035 A 
HETATM   22  C   UNL     1       8.333  24.792  55.751  1.00  0.00     0.039 A 
HETATM   23  C   UNL     1       8.346  23.557  55.121  1.00  0.00    -0.022 A 
HETATM   24  C   UNL     1       9.090  22.334  55.535  1.00  0.00     0.274 C 
HETATM   25  C   UNL     1       7.565  23.308  53.994  1.00  0.00    -0.025 A 
HETATM   26  N   UNL     1       8.852  21.335  54.408  1.00  0.00    -0.067 N 
HETATM   27  C   UNL     1       8.652  19.936  54.868  1.00  0.00     0.270 C 
HETATM   28  H   UNL     1       9.692  21.374  53.818  1.00  0.00     0.280 HD
HETATM   29  C   UNL     1       7.714  21.890  53.559  1.00  0.00     0.273 C 
HETATM   30  C   UNL     1       6.758  24.299  53.463  1.00  0.00     0.012 A 
HETATM   31  C   UNL     1       6.737  25.548  54.096  1.00  0.00     0.030 A 
ENDBRANCH  18  21
ENDBRANCH  14  17
ENDBRANCH  10  11
ENDBRANCH   9  10
ENDBRANCH   1   9
TORSDOF 5
ENDMDL
