MODEL 1
REMARK VINA RESULT:      -9.8      0.000      0.000
REMARK  5 active torsions:
REMARK  status: ('A' for Active; 'I' for Inactive)
REMARK    1  A    between atoms: C_5  and  N_6 
REMARK    2  A    between atoms: C_9  and  C_10 
REMARK    3  A    between atoms: C_10  and  N_11 
REMARK       I    between atoms: N_11  and  C_12 
REMARK       I    between atoms: C_12  and  N_13 
REMARK    4  A    between atoms: N_13  and  C_14 
REMARK    5  A    between atoms: C_14  and  C_15 
ROOT
HETATM    1  N   UNL     1       6.573  26.552  55.810  1.00  0.00    -0.319 N 
HETATM    2  C   UNL     1       7.095  27.842  55.686  1.00  0.00     0.021 A 
HETATM    3  C   UNL     1       8.076  28.245  54.632  1.00  0.00     0.069 C 
HETATM    4  C   UNL     1       6.487  28.660  56.630  1.00  0.00    -0.016 A 
HETATM    5  C   UNL     1       5.539  27.860  57.311  1.00  0.00     0.035 A 
HETATM    6  C   UNL     1       5.593  26.581  56.799  1.00  0.00     0.014 A 
HETATM    7  C   UNL     1       4.829  25.394  57.280  1.00  0.00     0.068 C 
ENDROOT
BRANCH   4   8
HETATM    8  C   UNL     1       6.710  30.118  56.874  1.00  0.00     0.165 C 
BRANCH   8   9
HETATM    9  N   UNL     1       6.612  30.340  58.298  1.00  0.00    -0.339 N 
HETATM   10  C   UNL     1       7.614  30.993  58.961  1.00  0.00     0.316 C 
HETATM   11  N   UNL     1       7.438  30.906  60.314  1.00  0.00    -0.339 N 
HETATM   12  O   UNL     1       8.561  31.543  58.420  1.00  0.00    -0.247 OA
HETATM   13  H   UNL     1       6.482  30.862  60.632  1.00  0.00     0.164 HD
HETATM   14  H   UNL     1       6.131  29.631  58.830  1.00  0.00     0.164 HD
BRANCH  11  15
HETATM   15  C   UNL     1       8.400  31.482  61.223  1.00  0.00     0.162 C 
BRANCH  15  16
HETATM   16  C   UNL     1       7.715  32.425  62.179  1.00  0.00    -0.040 A 
HETATM   17  C   UNL     1       6.683  33.261  61.723  1.00  0.00     0.009 A 
HETATM   18  C   UNL     1       6.051  34.149  62.594  1.00  0.00     0.001 A 
HETATM   19  C   UNL     1       6.439  34.208  63.930  1.00  0.00     0.000 A 
HETATM   20  C   UNL     1       7.459  33.378  64.396  1.00  0.00     0.001 A 
HETATM   21  C   UNL     1       8.094  32.490  63.525  1.00  0.00     0.009 A 
ENDBRANCH  15  16
ENDBRANCH  11  15
ENDBRANCH   8   9
ENDBRANCH   4   8
BRANCH   1  22
HETATM   22  C   UNL     1       6.982  25.406  55.068  1.00  0.00     0.039 A 
HETATM   23  C   UNL     1       7.983  24.567  55.573  1.00  0.00     0.030 A 
HETATM   24  C   UNL     1       8.369  23.429  54.860  1.00  0.00     0.009 A 
HETATM   25  C   UNL     1       7.776  23.126  53.629  1.00  0.00    -0.062 A 
HETATM   26  C   UNL     1       8.162  21.882  52.885  1.00  0.00     0.048 C 
HETATM   27  C   UNL     1       6.772  23.964  53.132  1.00  0.00     0.009 A 
HETATM   28  C   UNL     1       6.377  25.101  53.845  1.00  0.00     0.030 A 
ENDBRANCH   1  22
TORSDOF 5
ENDMDL
MODEL 2
REMARK VINA RESULT:      -9.7      1.424      2.406
REMARK  5 active torsions:
REMARK  status: ('A' for Active; 'I' for Inactive)
REMARK    1  A    between atoms: C_5  and  N_6 
REMARK    2  A    between atoms: C_9  and  C_10 
REMARK    3  A    between atoms: C_10  and  N_11 
REMARK       I    between atoms: N_11  and  C_12 
REMARK       I    between atoms: C_12  and  N_13 
REMARK    4  A    between atoms: N_13  and  C_14 
REMARK    5  A    between atoms: C_14  and  C_15 
ROOT
HETATM    1  N   UNL     1       7.311  25.117  55.772  1.00  0.00    -0.319 N 
HETATM    2  C   UNL     1       6.368  26.103  55.467  1.00  0.00     0.021 A 
HETATM    3  C   UNL     1       5.365  25.983  54.365  1.00  0.00     0.069 C 
HETATM    4  C   UNL     1       6.480  27.128  56.399  1.00  0.00    -0.016 A 
HETATM    5  C   UNL     1       7.480  26.733  57.320  1.00  0.00     0.035 A 
HETATM    6  C   UNL     1       7.973  25.504  56.934  1.00  0.00     0.014 A 
HETATM    7  C   UNL     1       9.096  24.755  57.568  1.00  0.00     0.068 C 
ENDROOT
BRANCH   4   8
HETATM    8  C   UNL     1       5.681  28.388  56.490  1.00  0.00     0.165 C 
BRANCH   8   9
HETATM    9  N   UNL     1       6.015  29.025  57.742  1.00  0.00    -0.339 N 
HETATM   10  C   UNL     1       6.111  30.386  57.815  1.00  0.00     0.316 C 
HETATM   11  N   UNL     1       6.647  30.773  59.013  1.00  0.00    -0.339 N 
HETATM   12  O   UNL     1       5.801  31.153  56.916  1.00  0.00    -0.247 OA
HETATM   13  H   UNL     1       6.443  30.175  59.799  1.00  0.00     0.164 HD
HETATM   14  H   UNL     1       6.634  28.514  58.354  1.00  0.00     0.164 HD
BRANCH  11  15
HETATM   15  C   UNL     1       6.888  32.167  59.300  1.00  0.00     0.162 C 
BRANCH  15  16
HETATM   16  C   UNL     1       7.251  32.345  60.752  1.00  0.00    -0.040 A 
HETATM   17  C   UNL     1       8.335  31.638  61.297  1.00  0.00     0.009 A 
HETATM   18  C   UNL     1       8.672  31.782  62.643  1.00  0.00     0.001 A 
HETATM   19  C   UNL     1       7.934  32.638  63.457  1.00  0.00     0.000 A 
HETATM   20  C   UNL     1       6.860  33.351  62.925  1.00  0.00     0.001 A 
HETATM   21  C   UNL     1       6.519  33.205  61.579  1.00  0.00     0.009 A 
ENDBRANCH  15  16
ENDBRANCH  11  15
ENDBRANCH   8   9
ENDBRANCH   4   8
BRANCH   1  22
HETATM   22  C   UNL     1       7.562  23.934  55.019  1.00  0.00     0.039 A 
HETATM   23  C   UNL     1       7.982  24.029  53.687  1.00  0.00     0.030 A 
HETATM   24  C   UNL     1       8.252  22.870  52.954  1.00  0.00     0.009 A 
HETATM   25  C   UNL     1       8.089  21.607  53.533  1.00  0.00    -0.062 A 
HETATM   26  C   UNL     1       8.419  20.366  52.758  1.00  0.00     0.048 C 
HETATM   27  C   UNL     1       7.674  21.518  54.867  1.00  0.00     0.009 A 
HETATM   28  C   UNL     1       7.408  22.674  55.607  1.00  0.00     0.030 A 
ENDBRANCH   1  22
TORSDOF 5
ENDMDL
MODEL 3
REMARK VINA RESULT:      -9.6      2.027      9.946
REMARK  5 active torsions:
REMARK  status: ('A' for Active; 'I' for Inactive)
REMARK    1  A    between atoms: C_5  and  N_6 
REMARK    2  A    between atoms: C_9  and  C_10 
REMARK    3  A    between atoms: C_10  and  N_11 
REMARK       I    between atoms: N_11  and  C_12 
REMARK       I    between atoms: C_12  and  N_13 
REMARK    4  A    between atoms: N_13  and  C_14 
REMARK    5  A    between atoms: C_14  and  C_15 
ROOT
HETATM    1  N   UNL     1       8.406  30.290  58.067  1.00  0.00    -0.319 N 
HETATM    2  C   UNL     1       7.315  29.768  57.368  1.00  0.00     0.021 A 
HETATM    3  C   UNL     1       5.897  29.896  57.823  1.00  0.00     0.069 C 
HETATM    4  C   UNL     1       7.774  29.213  56.180  1.00  0.00    -0.016 A 
HETATM    5  C   UNL     1       9.169  29.446  56.133  1.00  0.00     0.035 A 
HETATM    6  C   UNL     1       9.542  30.110  57.282  1.00  0.00     0.014 A 
HETATM    7  C   UNL     1      10.929  30.479  57.688  1.00  0.00     0.068 C 
ENDROOT
BRANCH   4   8
HETATM    8  C   UNL     1       6.981  28.546  55.102  1.00  0.00     0.165 C 
BRANCH   8   9
HETATM    9  N   UNL     1       7.512  27.214  54.932  1.00  0.00    -0.339 N 
HETATM   10  C   UNL     1       6.895  26.148  55.524  1.00  0.00     0.316 C 
HETATM   11  N   UNL     1       7.667  25.024  55.428  1.00  0.00    -0.339 N 
HETATM   12  O   UNL     1       5.818  26.201  56.099  1.00  0.00    -0.247 OA
HETATM   13  H   UNL     1       8.248  24.958  54.607  1.00  0.00     0.164 HD
HETATM   14  H   UNL     1       8.515  27.139  54.844  1.00  0.00     0.164 HD
BRANCH  11  15
HETATM   15  C   UNL     1       7.240  23.780  56.024  1.00  0.00     0.162 C 
BRANCH  15  16
HETATM   16  C   UNL     1       7.577  22.624  55.117  1.00  0.00    -0.040 A 
HETATM   17  C   UNL     1       7.862  21.363  55.663  1.00  0.00     0.009 A 
HETATM   18  C   UNL     1       8.190  20.288  54.835  1.00  0.00     0.001 A 
HETATM   19  C   UNL     1       8.231  20.462  53.454  1.00  0.00     0.000 A 
HETATM   20  C   UNL     1       7.943  21.709  52.900  1.00  0.00     0.001 A 
HETATM   21  C   UNL     1       7.617  22.786  53.727  1.00  0.00     0.009 A 
ENDBRANCH  15  16
ENDBRANCH  11  15
ENDBRANCH   8   9
ENDBRANCH   4   8
BRANCH   1  22
HETATM   22  C   UNL     1       8.367  30.887  59.361  1.00  0.00     0.039 A 
HETATM   23  C   UNL     1       7.757  32.134  59.537  1.00  0.00     0.030 A 
HETATM   24  C   UNL     1       7.696  32.711  60.808  1.00  0.00     0.009 A 
HETATM   25  C   UNL     1       8.257  32.059  61.913  1.00  0.00    -0.062 A 
HETATM   26  C   UNL     1       8.154  32.660  63.283  1.00  0.00     0.048 C 
HETATM   27  C   UNL     1       8.860  30.810  61.732  1.00  0.00     0.009 A 
HETATM   28  C   UNL     1       8.919  30.226  60.463  1.00  0.00     0.030 A 
ENDBRANCH   1  22
TORSDOF 5
ENDMDL
MODEL 4
REMARK VINA RESULT:      -9.2      1.346      1.715
REMARK  5 active torsions:
REMARK  status: ('A' for Active; 'I' for Inactive)
REMARK    1  A    between atoms: C_5  and  N_6 
REMARK    2  A    between atoms: C_9  and  C_10 
REMARK    3  A    between atoms: C_10  and  N_11 
REMARK       I    between atoms: N_11  and  C_12 
REMARK       I    between atoms: C_12  and  N_13 
REMARK    4  A    between atoms: N_13  and  C_14 
REMARK    5  A    between atoms: C_14  and  C_15 
ROOT
HETATM    1  N   UNL     1       6.561  27.751  55.535  1.00  0.00    -0.319 N 
HETATM    2  C   UNL     1       7.339  28.567  56.360  1.00  0.00     0.021 A 
HETATM    3  C   UNL     1       8.712  28.208  56.830  1.00  0.00     0.069 C 
HETATM    4  C   UNL     1       6.658  29.759  56.575  1.00  0.00    -0.016 A 
HETATM    5  C   UNL     1       5.461  29.685  55.823  1.00  0.00     0.035 A 
HETATM    6  C   UNL     1       5.416  28.463  55.187  1.00  0.00     0.014 A 
HETATM    7  C   UNL     1       4.295  27.928  54.361  1.00  0.00     0.068 C 
ENDROOT
BRANCH   4   8
HETATM    8  C   UNL     1       7.092  30.942  57.380  1.00  0.00     0.165 C 
BRANCH   8   9
HETATM    9  N   UNL     1       7.060  30.556  58.771  1.00  0.00    -0.339 N 
HETATM   10  C   UNL     1       7.742  31.288  59.702  1.00  0.00     0.316 C 
HETATM   11  N   UNL     1       7.769  30.641  60.906  1.00  0.00    -0.339 N 
HETATM   12  O   UNL     1       8.290  32.357  59.478  1.00  0.00    -0.247 OA
HETATM   13  H   UNL     1       6.968  30.064  61.113  1.00  0.00     0.164 HD
HETATM   14  H   UNL     1       6.997  29.566  58.960  1.00  0.00     0.164 HD
BRANCH  11  15
HETATM   15  C   UNL     1       8.474  31.203  62.033  1.00  0.00     0.162 C 
BRANCH  15  16
HETATM   16  C   UNL     1       7.523  31.972  62.913  1.00  0.00    -0.040 A 
HETATM   17  C   UNL     1       6.138  31.783  62.785  1.00  0.00     0.009 A 
HETATM   18  C   UNL     1       5.246  32.500  63.583  1.00  0.00     0.001 A 
HETATM   19  C   UNL     1       5.728  33.409  64.522  1.00  0.00     0.000 A 
HETATM   20  C   UNL     1       7.103  33.600  64.663  1.00  0.00     0.001 A 
HETATM   21  C   UNL     1       7.997  32.886  63.863  1.00  0.00     0.009 A 
ENDBRANCH  15  16
ENDBRANCH  11  15
ENDBRANCH   8   9
ENDBRANCH   4   8
BRANCH   1  22
HETATM   22  C   UNL     1       6.875  26.420  55.133  1.00  0.00     0.039 A 
HETATM   23  C   UNL     1       7.465  26.187  53.886  1.00  0.00     0.030 A 
HETATM   24  C   UNL     1       7.797  24.886  53.499  1.00  0.00     0.009 A 
HETATM   25  C   UNL     1       7.527  23.803  54.344  1.00  0.00    -0.062 A 
HETATM   26  C   UNL     1       7.921  22.411  53.945  1.00  0.00     0.048 C 
HETATM   27  C   UNL     1       6.942  24.041  55.592  1.00  0.00     0.009 A 
HETATM   28  C   UNL     1       6.614  25.343  55.987  1.00  0.00     0.030 A 
ENDBRANCH   1  22
TORSDOF 5
ENDMDL
MODEL 5
REMARK VINA RESULT:      -9.1      4.564      7.489
REMARK  5 active torsions:
REMARK  status: ('A' for Active; 'I' for Inactive)
REMARK    1  A    between atoms: C_5  and  N_6 
REMARK    2  A    between atoms: C_9  and  C_10 
REMARK    3  A    between atoms: C_10  and  N_11 
REMARK       I    between atoms: N_11  and  C_12 
REMARK       I    between atoms: C_12  and  N_13 
REMARK    4  A    between atoms: N_13  and  C_14 
REMARK    5  A    between atoms: C_14  and  C_15 
ROOT
HETATM    1  N   UNL     1       8.117  31.315  60.860  1.00  0.00    -0.319 N 
HETATM    2  C   UNL     1       7.027  32.172  61.031  1.00  0.00     0.021 A 
HETATM    3  C   UNL     1       6.157  32.646  59.912  1.00  0.00     0.069 C 
HETATM    4  C   UNL     1       6.862  32.414  62.390  1.00  0.00    -0.016 A 
HETATM    5  C   UNL     1       7.844  31.648  63.062  1.00  0.00     0.035 A 
HETATM    6  C   UNL     1       8.597  30.976  62.123  1.00  0.00     0.014 A 
HETATM    7  C   UNL     1       9.792  30.122  62.382  1.00  0.00     0.068 C 
ENDROOT
BRANCH   4   8
HETATM    8  C   UNL     1       5.827  33.259  63.061  1.00  0.00     0.165 C 
BRANCH   8   9
HETATM    9  N   UNL     1       6.367  33.680  64.333  1.00  0.00    -0.339 N 
HETATM   10  C   UNL     1       5.545  33.813  65.417  1.00  0.00     0.316 C 
HETATM   11  N   UNL     1       6.199  34.426  66.450  1.00  0.00    -0.339 N 
HETATM   12  O   UNL     1       4.373  33.470  65.445  1.00  0.00    -0.247 OA
HETATM   13  H   UNL     1       7.191  34.253  66.507  1.00  0.00     0.164 HD
HETATM   14  H   UNL     1       7.146  34.320  64.299  1.00  0.00     0.164 HD
BRANCH  11  15
HETATM   15  C   UNL     1       5.516  34.717  67.688  1.00  0.00     0.162 C 
BRANCH  15  16
HETATM   16  C   UNL     1       6.402  34.388  68.862  1.00  0.00    -0.040 A 
HETATM   17  C   UNL     1       7.629  35.050  69.023  1.00  0.00     0.009 A 
HETATM   18  C   UNL     1       8.466  34.744  70.097  1.00  0.00     0.001 A 
HETATM   19  C   UNL     1       8.083  33.778  71.024  1.00  0.00     0.000 A 
HETATM   20  C   UNL     1       6.862  33.118  70.878  1.00  0.00     0.001 A 
HETATM   21  C   UNL     1       6.025  33.421  69.802  1.00  0.00     0.009 A 
ENDBRANCH  15  16
ENDBRANCH  11  15
ENDBRANCH   8   9
ENDBRANCH   4   8
BRANCH   1  22
HETATM   22  C   UNL     1       8.654  30.878  59.614  1.00  0.00     0.039 A 
HETATM   23  C   UNL     1       8.104  29.765  58.969  1.00  0.00     0.030 A 
HETATM   24  C   UNL     1       8.612  29.348  57.735  1.00  0.00     0.009 A 
HETATM   25  C   UNL     1       9.683  30.025  57.142  1.00  0.00    -0.062 A 
HETATM   26  C   UNL     1      10.201  29.602  55.799  1.00  0.00     0.048 C 
HETATM   27  C   UNL     1      10.226  31.141  57.789  1.00  0.00     0.009 A 
HETATM   28  C   UNL     1       9.717  31.566  59.020  1.00  0.00     0.030 A 
ENDBRANCH   1  22
TORSDOF 5
ENDMDL
MODEL 6
REMARK VINA RESULT:      -9.0      5.302      8.528
REMARK  5 active torsions:
REMARK  status: ('A' for Active; 'I' for Inactive)
REMARK    1  A    between atoms: C_5  and  N_6 
REMARK    2  A    between atoms: C_9  and  C_10 
REMARK    3  A    between atoms: C_10  and  N_11 
REMARK       I    between atoms: N_11  and  C_12 
REMARK       I    between atoms: C_12  and  N_13 
REMARK    4  A    between atoms: N_13  and  C_14 
REMARK    5  A    between atoms: C_14  and  C_15 
ROOT
HETATM    1  N   UNL     1       6.960  25.344  55.209  1.00  0.00    -0.319 N 
HETATM    2  C   UNL     1       6.007  26.203  54.655  1.00  0.00     0.021 A 
HETATM    3  C   UNL     1       5.136  25.843  53.495  1.00  0.00     0.069 C 
HETATM    4  C   UNL     1       5.965  27.367  55.413  1.00  0.00    -0.016 A 
HETATM    5  C   UNL     1       6.879  27.191  56.480  1.00  0.00     0.035 A 
HETATM    6  C   UNL     1       7.472  25.953  56.351  1.00  0.00     0.014 A 
HETATM    7  C   UNL     1       8.557  25.391  57.206  1.00  0.00     0.068 C 
ENDROOT
BRANCH   4   8
HETATM    8  C   UNL     1       5.099  28.569  55.218  1.00  0.00     0.165 C 
BRANCH   8   9
HETATM    9  N   UNL     1       5.506  29.204  53.986  1.00  0.00    -0.339 N 
HETATM   10  C   UNL     1       4.597  29.410  52.987  1.00  0.00     0.316 C 
HETATM   11  N   UNL     1       5.219  29.813  51.839  1.00  0.00    -0.339 N 
HETATM   12  O   UNL     1       3.394  29.219  53.093  1.00  0.00    -0.247 OA
HETATM   13  H   UNL     1       6.060  30.356  51.961  1.00  0.00     0.164 HD
HETATM   14  H   UNL     1       6.451  29.025  53.681  1.00  0.00     0.164 HD
BRANCH  11  15
HETATM   15  C   UNL     1       4.464  30.048  50.631  1.00  0.00     0.162 C 
BRANCH  15  16
HETATM   16  C   UNL     1       4.628  28.891  49.679  1.00  0.00    -0.040 A 
HETATM   17  C   UNL     1       5.094  29.115  48.374  1.00  0.00     0.009 A 
HETATM   18  C   UNL     1       5.236  28.055  47.478  1.00  0.00     0.001 A 
HETATM   19  C   UNL     1       4.920  26.759  47.879  1.00  0.00     0.000 A 
HETATM   20  C   UNL     1       4.463  26.523  49.175  1.00  0.00     0.001 A 
HETATM   21  C   UNL     1       4.318  27.583  50.072  1.00  0.00     0.009 A 
ENDBRANCH  15  16
ENDBRANCH  11  15
ENDBRANCH   8   9
ENDBRANCH   4   8
BRANCH   1  22
HETATM   22  C   UNL     1       7.350  24.076  54.688  1.00  0.00     0.039 A 
HETATM   23  C   UNL     1       7.804  23.972  53.368  1.00  0.00     0.030 A 
HETATM   24  C   UNL     1       8.211  22.735  52.862  1.00  0.00     0.009 A 
HETATM   25  C   UNL     1       8.151  21.586  53.660  1.00  0.00    -0.062 A 
HETATM   26  C   UNL     1       8.626  20.266  53.129  1.00  0.00     0.048 C 
HETATM   27  C   UNL     1       7.701  21.696  54.980  1.00  0.00     0.009 A 
HETATM   28  C   UNL     1       7.300  22.934  55.493  1.00  0.00     0.030 A 
ENDBRANCH   1  22
TORSDOF 5
ENDMDL
MODEL 7
REMARK VINA RESULT:      -9.0      1.627      2.950
REMARK  5 active torsions:
REMARK  status: ('A' for Active; 'I' for Inactive)
REMARK    1  A    between atoms: C_5  and  N_6 
REMARK    2  A    between atoms: C_9  and  C_10 
REMARK    3  A    between atoms: C_10  and  N_11 
REMARK       I    between atoms: N_11  and  C_12 
REMARK       I    between atoms: C_12  and  N_13 
REMARK    4  A    between atoms: N_13  and  C_14 
REMARK    5  A    between atoms: C_14  and  C_15 
ROOT
HETATM    1  N   UNL     1       7.164  25.418  54.741  1.00  0.00    -0.319 N 
HETATM    2  C   UNL     1       6.688  25.886  55.969  1.00  0.00     0.021 A 
HETATM    3  C   UNL     1       6.733  25.095  57.236  1.00  0.00     0.069 C 
HETATM    4  C   UNL     1       6.267  27.201  55.810  1.00  0.00    -0.016 A 
HETATM    5  C   UNL     1       6.539  27.556  54.466  1.00  0.00     0.035 A 
HETATM    6  C   UNL     1       7.093  26.466  53.828  1.00  0.00     0.014 A 
HETATM    7  C   UNL     1       7.453  26.368  52.384  1.00  0.00     0.068 C 
ENDROOT
BRANCH   4   8
HETATM    8  C   UNL     1       5.693  28.121  56.838  1.00  0.00     0.165 C 
BRANCH   8   9
HETATM    9  N   UNL     1       6.598  29.238  56.977  1.00  0.00    -0.339 N 
HETATM   10  C   UNL     1       7.639  29.172  57.859  1.00  0.00     0.316 C 
HETATM   11  N   UNL     1       8.236  30.395  58.001  1.00  0.00    -0.339 N 
HETATM   12  O   UNL     1       7.968  28.167  58.472  1.00  0.00    -0.247 OA
HETATM   13  H   UNL     1       8.218  30.989  57.186  1.00  0.00     0.164 HD
HETATM   14  H   UNL     1       6.200  30.156  56.844  1.00  0.00     0.164 HD
BRANCH  11  15
HETATM   15  C   UNL     1       9.333  30.581  58.919  1.00  0.00     0.162 C 
BRANCH  15  16
HETATM   16  C   UNL     1       8.832  31.145  60.224  1.00  0.00    -0.040 A 
HETATM   17  C   UNL     1       9.110  30.482  61.430  1.00  0.00     0.009 A 
HETATM   18  C   UNL     1       8.639  30.984  62.643  1.00  0.00     0.001 A 
HETATM   19  C   UNL     1       7.890  32.159  62.664  1.00  0.00     0.000 A 
HETATM   20  C   UNL     1       7.613  32.830  61.473  1.00  0.00     0.001 A 
HETATM   21  C   UNL     1       8.081  32.326  60.259  1.00  0.00     0.009 A 
ENDBRANCH  15  16
ENDBRANCH  11  15
ENDBRANCH   8   9
ENDBRANCH   4   8
BRANCH   1  22
HETATM   22  C   UNL     1       7.626  24.098  54.468  1.00  0.00     0.039 A 
HETATM   23  C   UNL     1       7.041  23.352  53.439  1.00  0.00     0.030 A 
HETATM   24  C   UNL     1       7.508  22.066  53.153  1.00  0.00     0.009 A 
HETATM   25  C   UNL     1       8.548  21.504  53.901  1.00  0.00    -0.062 A 
HETATM   26  C   UNL     1       9.076  20.141  53.566  1.00  0.00     0.048 C 
HETATM   27  C   UNL     1       9.133  22.257  54.926  1.00  0.00     0.009 A 
HETATM   28  C   UNL     1       8.674  23.546  55.212  1.00  0.00     0.030 A 
ENDBRANCH   1  22
TORSDOF 5
ENDMDL
MODEL 8
REMARK VINA RESULT:      -8.8      1.754      2.787
REMARK  5 active torsions:
REMARK  status: ('A' for Active; 'I' for Inactive)
REMARK    1  A    between atoms: C_5  and  N_6 
REMARK    2  A    between atoms: C_9  and  C_10 
REMARK    3  A    between atoms: C_10  and  N_11 
REMARK       I    between atoms: N_11  and  C_12 
REMARK       I    between atoms: C_12  and  N_13 
REMARK    4  A    between atoms: N_13  and  C_14 
REMARK    5  A    between atoms: C_14  and  C_15 
ROOT
HETATM    1  N   UNL     1       7.735  28.802  56.951  1.00  0.00    -0.319 N 
HETATM    2  C   UNL     1       8.882  29.492  57.351  1.00  0.00     0.021 A 
HETATM    3  C   UNL     1      10.257  29.180  56.855  1.00  0.00     0.069 C 
HETATM    4  C   UNL     1       8.504  30.534  58.190  1.00  0.00    -0.016 A 
HETATM    5  C   UNL     1       7.090  30.505  58.262  1.00  0.00     0.035 A 
HETATM    6  C   UNL     1       6.632  29.453  57.497  1.00  0.00     0.014 A 
HETATM    7  C   UNL     1       5.217  29.003  57.357  1.00  0.00     0.068 C 
ENDROOT
BRANCH   4   8
HETATM    8  C   UNL     1       9.375  31.548  58.858  1.00  0.00     0.165 C 
BRANCH   8   9
HETATM    9  N   UNL     1       8.591  32.181  59.893  1.00  0.00    -0.339 N 
HETATM   10  C   UNL     1       8.978  32.088  61.201  1.00  0.00     0.316 C 
HETATM   11  N   UNL     1       7.999  32.556  62.032  1.00  0.00    -0.339 N 
HETATM   12  O   UNL     1      10.038  31.612  61.579  1.00  0.00    -0.247 OA
HETATM   13  H   UNL     1       7.424  33.297  61.662  1.00  0.00     0.164 HD
HETATM   14  H   UNL     1       7.595  32.222  59.738  1.00  0.00     0.164 HD
BRANCH  11  15
HETATM   15  C   UNL     1       8.163  32.515  63.466  1.00  0.00     0.162 C 
BRANCH  15  16
HETATM   16  C   UNL     1       6.930  33.047  64.148  1.00  0.00    -0.040 A 
HETATM   17  C   UNL     1       5.682  32.964  63.510  1.00  0.00     0.009 A 
HETATM   18  C   UNL     1       4.535  33.468  64.123  1.00  0.00     0.001 A 
HETATM   19  C   UNL     1       4.621  34.053  65.384  1.00  0.00     0.000 A 
HETATM   20  C   UNL     1       5.854  34.135  66.031  1.00  0.00     0.001 A 
HETATM   21  C   UNL     1       7.003  33.635  65.417  1.00  0.00     0.009 A 
ENDBRANCH  15  16
ENDBRANCH  11  15
ENDBRANCH   8   9
ENDBRANCH   4   8
BRANCH   1  22
HETATM   22  C   UNL     1       7.700  27.631  56.140  1.00  0.00     0.039 A 
HETATM   23  C   UNL     1       7.796  26.367  56.733  1.00  0.00     0.030 A 
HETATM   24  C   UNL     1       7.738  25.216  55.944  1.00  0.00     0.009 A 
HETATM   25  C   UNL     1       7.602  25.312  54.554  1.00  0.00    -0.062 A 
HETATM   26  C   UNL     1       7.498  24.076  53.712  1.00  0.00     0.048 C 
HETATM   27  C   UNL     1       7.500  26.579  53.966  1.00  0.00     0.009 A 
HETATM   28  C   UNL     1       7.552  27.734  54.753  1.00  0.00     0.030 A 
ENDBRANCH   1  22
TORSDOF 5
ENDMDL
MODEL 9
REMARK VINA RESULT:      -8.8      1.782     10.134
REMARK  5 active torsions:
REMARK  status: ('A' for Active; 'I' for Inactive)
REMARK    1  A    between atoms: C_5  and  N_6 
REMARK    2  A    between atoms: C_9  and  C_10 
REMARK    3  A    between atoms: C_10  and  N_11 
REMARK       I    between atoms: N_11  and  C_12 
REMARK       I    between atoms: C_12  and  N_13 
REMARK    4  A    between atoms: N_13  and  C_14 
REMARK    5  A    between atoms: C_14  and  C_15 
ROOT
HETATM    1  N   UNL     1       7.233  31.787  60.834  1.00  0.00    -0.319 N 
HETATM    2  C   UNL     1       8.295  30.959  60.464  1.00  0.00     0.021 A 
HETATM    3  C   UNL     1       9.253  30.350  61.437  1.00  0.00     0.069 C 
HETATM    4  C   UNL     1       8.236  30.747  59.092  1.00  0.00    -0.016 A 
HETATM    5  C   UNL     1       7.084  31.424  58.625  1.00  0.00     0.035 A 
HETATM    6  C   UNL     1       6.475  32.046  59.694  1.00  0.00     0.014 A 
HETATM    7  C   UNL     1       5.281  32.938  59.646  1.00  0.00     0.068 C 
ENDROOT
BRANCH   4   8
HETATM    8  C   UNL     1       9.150  29.925  58.241  1.00  0.00     0.165 C 
BRANCH   8   9
HETATM    9  N   UNL     1       8.337  28.963  57.534  1.00  0.00    -0.339 N 
HETATM   10  C   UNL     1       8.473  28.814  56.182  1.00  0.00     0.316 C 
HETATM   11  N   UNL     1       7.475  28.028  55.677  1.00  0.00    -0.339 N 
HETATM   12  O   UNL     1       9.344  29.344  55.508  1.00  0.00    -0.247 OA
HETATM   13  H   UNL     1       7.123  27.312  56.295  1.00  0.00     0.164 HD
HETATM   14  H   UNL     1       7.408  28.810  57.895  1.00  0.00     0.164 HD
BRANCH  11  15
HETATM   15  C   UNL     1       7.384  27.766  54.260  1.00  0.00     0.162 C 
BRANCH  15  16
HETATM   16  C   UNL     1       7.439  26.282  53.999  1.00  0.00    -0.040 A 
HETATM   17  C   UNL     1       7.126  25.376  55.024  1.00  0.00     0.009 A 
HETATM   18  C   UNL     1       7.189  24.000  54.801  1.00  0.00     0.001 A 
HETATM   19  C   UNL     1       7.559  23.515  53.548  1.00  0.00     0.000 A 
HETATM   20  C   UNL     1       7.866  24.407  52.520  1.00  0.00     0.001 A 
HETATM   21  C   UNL     1       7.807  25.783  52.743  1.00  0.00     0.009 A 
ENDBRANCH  15  16
ENDBRANCH  11  15
ENDBRANCH   8   9
ENDBRANCH   4   8
BRANCH   1  22
HETATM   22  C   UNL     1       6.978  32.292  62.142  1.00  0.00     0.039 A 
HETATM   23  C   UNL     1       8.021  32.846  62.893  1.00  0.00     0.030 A 
HETATM   24  C   UNL     1       7.769  33.363  64.167  1.00  0.00     0.009 A 
HETATM   25  C   UNL     1       6.481  33.319  64.711  1.00  0.00    -0.062 A 
HETATM   26  C   UNL     1       6.204  33.912  66.061  1.00  0.00     0.048 C 
HETATM   27  C   UNL     1       5.440  32.769  63.953  1.00  0.00     0.009 A 
HETATM   28  C   UNL     1       5.685  32.255  62.676  1.00  0.00     0.030 A 
ENDBRANCH   1  22
TORSDOF 5
ENDMDL
MODEL 10
REMARK VINA RESULT:      -8.7      1.846      2.817
REMARK  5 active torsions:
REMARK  status: ('A' for Active; 'I' for Inactive)
REMARK    1  A    between atoms: C_5  and  N_6 
REMARK    2  A    between atoms: C_9  and  C_10 
REMARK    3  A    between atoms: C_10  and  N_11 
REMARK       I    between atoms: N_11  and  C_12 
REMARK       I    between atoms: C_12  and  N_13 
REMARK    4  A    between atoms: N_13  and  C_14 
REMARK    5  A    between atoms: C_14  and  C_15 
ROOT
HETATM    1  N   UNL     1       6.959  24.956  55.699  1.00  0.00    -0.319 N 
HETATM    2  C   UNL     1       5.901  25.803  55.361  1.00  0.00     0.021 A 
HETATM    3  C   UNL     1       4.957  25.547  54.231  1.00  0.00     0.069 C 
HETATM    4  C   UNL     1       5.843  26.834  56.291  1.00  0.00    -0.016 A 
HETATM    5  C   UNL     1       6.860  26.581  57.243  1.00  0.00     0.035 A 
HETATM    6  C   UNL     1       7.527  25.431  56.878  1.00  0.00     0.014 A 
HETATM    7  C   UNL     1       8.723  24.843  57.548  1.00  0.00     0.068 C 
ENDROOT
BRANCH   4   8
HETATM    8  C   UNL     1       4.878  27.974  56.353  1.00  0.00     0.165 C 
BRANCH   8   9
HETATM    9  N   UNL     1       5.184  28.740  57.538  1.00  0.00    -0.339 N 
HETATM   10  C   UNL     1       5.783  29.964  57.427  1.00  0.00     0.316 C 
HETATM   11  N   UNL     1       6.185  30.421  58.651  1.00  0.00    -0.339 N 
HETATM   12  O   UNL     1       5.972  30.552  56.373  1.00  0.00    -0.247 OA
HETATM   13  H   UNL     1       5.619  30.135  59.435  1.00  0.00     0.164 HD
HETATM   14  H   UNL     1       5.427  28.213  58.363  1.00  0.00     0.164 HD
BRANCH  11  15
HETATM   15  C   UNL     1       6.886  31.677  58.779  1.00  0.00     0.162 C 
BRANCH  15  16
HETATM   16  C   UNL     1       6.080  32.642  59.609  1.00  0.00    -0.040 A 
HETATM   17  C   UNL     1       6.405  32.851  60.958  1.00  0.00     0.009 A 
HETATM   18  C   UNL     1       5.658  33.730  61.742  1.00  0.00     0.001 A 
HETATM   19  C   UNL     1       4.581  34.415  61.184  1.00  0.00     0.000 A 
HETATM   20  C   UNL     1       4.252  34.221  59.842  1.00  0.00     0.001 A 
HETATM   21  C   UNL     1       4.998  33.339  59.058  1.00  0.00     0.009 A 
ENDBRANCH  15  16
ENDBRANCH  11  15
ENDBRANCH   8   9
ENDBRANCH   4   8
BRANCH   1  22
HETATM   22  C   UNL     1       7.392  23.818  54.959  1.00  0.00     0.039 A 
HETATM   23  C   UNL     1       7.351  22.547  55.544  1.00  0.00     0.030 A 
HETATM   24  C   UNL     1       7.752  21.426  54.813  1.00  0.00     0.009 A 
HETATM   25  C   UNL     1       8.214  21.561  53.499  1.00  0.00    -0.062 A 
HETATM   26  C   UNL     1       8.605  20.353  52.701  1.00  0.00     0.048 C 
HETATM   27  C   UNL     1       8.247  22.833  52.916  1.00  0.00     0.009 A 
HETATM   28  C   UNL     1       7.841  23.958  53.642  1.00  0.00     0.030 A 
ENDBRANCH   1  22
TORSDOF 5
ENDMDL
