MODEL 1
REMARK VINA RESULT:      -9.2      0.000      0.000
REMARK  3 active torsions:
REMARK  status: ('A' for Active; 'I' for Inactive)
REMARK    1  A    between atoms: C_2  and  N_3 
REMARK    2  A    between atoms: C_2  and  C_10 
REMARK    3  A    between atoms: C_13  and  C_14 
ROOT
HETATM    1  C   UNL     1       7.395  27.001  56.412  1.00  0.00    -0.028 A 
HETATM    2  C   UNL     1       8.151  26.271  57.344  1.00  0.00     0.010 A 
HETATM    3  C   UNL     1       8.347  24.894  57.187  1.00  0.00     0.014 A 
HETATM    4  C   UNL     1       7.797  24.191  56.103  1.00  0.00    -0.006 A 
HETATM    5  C   UNL     1       7.010  24.920  55.199  1.00  0.00     0.014 A 
HETATM    6  C   UNL     1       6.817  26.300  55.345  1.00  0.00     0.010 A 
ENDROOT
BRANCH   4   7
HETATM    7  C   UNL     1       8.035  22.751  55.953  1.00  0.00     0.082 A 
HETATM    8  N   UNL     1       8.293  22.040  57.083  1.00  0.00    -0.240 NA
HETATM    9  C   UNL     1       8.514  20.715  56.966  1.00  0.00     0.236 A 
HETATM   10  N   UNL     1       8.522  19.975  55.847  1.00  0.00    -0.224 NA
HETATM   11  C   UNL     1       8.285  20.721  54.759  1.00  0.00     0.141 A 
HETATM   12  C   UNL     1       8.041  22.086  54.715  1.00  0.00     0.041 A 
HETATM   13  N   UNL     1       8.251  20.234  53.481  1.00  0.00    -0.350 N 
HETATM   14  C   UNL     1       7.884  22.419  53.337  1.00  0.00     0.034 A 
HETATM   15  C   UNL     1       8.009  21.257  52.603  1.00  0.00     0.091 A 
HETATM   16  H   UNL     1       8.400  19.262  53.246  1.00  0.00     0.166 HD
ENDBRANCH   4   7
BRANCH   1  17
HETATM   17  C   UNL     1       7.218  28.496  56.607  1.00  0.00     0.217 C 
HETATM   18  C   UNL     1       5.945  28.895  57.363  1.00  0.00     0.045 C 
BRANCH  17  19
HETATM   19  N   UNL     1       8.464  29.147  57.214  1.00  0.00    -0.063 N 
HETATM   20  H   UNL     1       8.858  28.407  57.813  1.00  0.00     0.280 HD
HETATM   21  C   UNL     1       9.521  29.467  56.181  1.00  0.00     0.235 C 
HETATM   22  C   UNL     1      10.814  29.871  56.875  1.00  0.00     0.028 C 
HETATM   23  C   UNL     1      10.596  31.036  57.832  1.00  0.00     0.003 C 
HETATM   24  C   UNL     1       9.491  30.721  58.832  1.00  0.00     0.028 C 
HETATM   25  C   UNL     1       8.198  30.315  58.136  1.00  0.00     0.235 C 
ENDBRANCH  17  19
ENDBRANCH   1  17
TORSDOF 3
ENDMDL
MODEL 2
REMARK VINA RESULT:      -9.2      1.138      2.258
REMARK  3 active torsions:
REMARK  status: ('A' for Active; 'I' for Inactive)
REMARK    1  A    between atoms: C_2  and  N_3 
REMARK    2  A    between atoms: C_2  and  C_10 
REMARK    3  A    between atoms: C_13  and  C_14 
ROOT
HETATM    1  C   UNL     1       7.388  26.948  54.853  1.00  0.00    -0.028 A 
HETATM    2  C   UNL     1       7.350  26.008  55.895  1.00  0.00     0.010 A 
HETATM    3  C   UNL     1       7.533  24.644  55.637  1.00  0.00     0.014 A 
HETATM    4  C   UNL     1       7.756  24.164  54.336  1.00  0.00    -0.006 A 
HETATM    5  C   UNL     1       7.752  25.106  53.296  1.00  0.00     0.014 A 
HETATM    6  C   UNL     1       7.579  26.473  53.548  1.00  0.00     0.010 A 
ENDROOT
BRANCH   4   7
HETATM    7  C   UNL     1       7.964  22.732  54.098  1.00  0.00     0.082 A 
HETATM    8  N   UNL     1       7.822  22.284  52.821  1.00  0.00    -0.240 NA
HETATM    9  C   UNL     1       8.008  20.971  52.581  1.00  0.00     0.236 A 
HETATM   10  N   UNL     1       8.321  20.007  53.462  1.00  0.00    -0.224 NA
HETATM   11  C   UNL     1       8.430  20.491  54.706  1.00  0.00     0.141 A 
HETATM   12  C   UNL     1       8.268  21.808  55.112  1.00  0.00     0.041 A 
HETATM   13  N   UNL     1       8.724  19.732  55.807  1.00  0.00    -0.350 N 
HETATM   14  C   UNL     1       8.449  21.815  56.528  1.00  0.00     0.034 A 
HETATM   15  C   UNL     1       8.738  20.526  56.924  1.00  0.00     0.091 A 
HETATM   16  H   UNL     1       8.888  18.735  55.774  1.00  0.00     0.166 HD
ENDBRANCH   4   7
BRANCH   1  17
HETATM   17  C   UNL     1       7.202  28.420  55.173  1.00  0.00     0.217 C 
HETATM   18  C   UNL     1       5.741  28.867  55.299  1.00  0.00     0.045 C 
BRANCH  17  19
HETATM   19  N   UNL     1       8.031  28.852  56.385  1.00  0.00    -0.063 N 
HETATM   20  H   UNL     1       8.218  27.969  56.881  1.00  0.00     0.280 HD
HETATM   21  C   UNL     1       9.379  29.420  56.001  1.00  0.00     0.235 C 
HETATM   22  C   UNL     1      10.239  29.591  57.246  1.00  0.00     0.028 C 
HETATM   23  C   UNL     1       9.546  30.454  58.292  1.00  0.00     0.003 C 
HETATM   24  C   UNL     1       8.167  29.901  58.629  1.00  0.00     0.028 C 
HETATM   25  C   UNL     1       7.308  29.730  57.382  1.00  0.00     0.235 C 
ENDBRANCH  17  19
ENDBRANCH   1  17
TORSDOF 3
ENDMDL
MODEL 3
REMARK VINA RESULT:      -9.2      4.162      6.157
REMARK  3 active torsions:
REMARK  status: ('A' for Active; 'I' for Inactive)
REMARK    1  A    between atoms: C_2  and  N_3 
REMARK    2  A    between atoms: C_2  and  C_10 
REMARK    3  A    between atoms: C_13  and  C_14 
ROOT
HETATM    1  C   UNL     1       5.970  25.994  52.305  1.00  0.00    -0.028 A 
HETATM    2  C   UNL     1       7.120  25.467  51.695  1.00  0.00     0.010 A 
HETATM    3  C   UNL     1       7.689  24.272  52.149  1.00  0.00     0.014 A 
HETATM    4  C   UNL     1       7.140  23.558  53.227  1.00  0.00    -0.006 A 
HETATM    5  C   UNL     1       6.015  24.112  53.856  1.00  0.00     0.014 A 
HETATM    6  C   UNL     1       5.435  25.303  53.401  1.00  0.00     0.010 A 
ENDROOT
BRANCH   4   7
HETATM    7  C   UNL     1       7.746  22.298  53.669  1.00  0.00     0.082 A 
HETATM    8  N   UNL     1       8.002  21.359  52.718  1.00  0.00    -0.240 NA
HETATM    9  C   UNL     1       8.558  20.194  53.105  1.00  0.00     0.236 A 
HETATM   10  N   UNL     1       8.903  19.815  54.345  1.00  0.00    -0.224 NA
HETATM   11  C   UNL     1       8.614  20.760  55.249  1.00  0.00     0.141 A 
HETATM   12  C   UNL     1       8.043  22.003  55.011  1.00  0.00     0.041 A 
HETATM   13  N   UNL     1       8.841  20.639  56.593  1.00  0.00    -0.350 N 
HETATM   14  C   UNL     1       7.904  22.629  56.286  1.00  0.00     0.034 A 
HETATM   15  C   UNL     1       8.412  21.770  57.237  1.00  0.00     0.091 A 
HETATM   16  H   UNL     1       9.252  19.821  57.022  1.00  0.00     0.166 HD
ENDBRANCH   4   7
BRANCH   1  17
HETATM   17  C   UNL     1       5.372  27.284  51.774  1.00  0.00     0.217 C 
HETATM   18  C   UNL     1       5.938  28.559  52.409  1.00  0.00     0.045 C 
BRANCH  17  19
HETATM   19  N   UNL     1       5.411  27.348  50.245  1.00  0.00    -0.063 N 
HETATM   20  H   UNL     1       6.335  26.960  50.008  1.00  0.00     0.280 HD
HETATM   21  C   UNL     1       4.389  26.443  49.594  1.00  0.00     0.235 C 
HETATM   22  C   UNL     1       4.651  26.364  48.096  1.00  0.00     0.028 C 
HETATM   23  C   UNL     1       4.663  27.747  47.456  1.00  0.00     0.003 C 
HETATM   24  C   UNL     1       5.657  28.664  48.157  1.00  0.00     0.028 C 
HETATM   25  C   UNL     1       5.394  28.740  49.656  1.00  0.00     0.235 C 
ENDBRANCH  17  19
ENDBRANCH   1  17
TORSDOF 3
ENDMDL
MODEL 4
REMARK VINA RESULT:      -9.1      1.711      8.229
REMARK  3 active torsions:
REMARK  status: ('A' for Active; 'I' for Inactive)
REMARK    1  A    between atoms: C_2  and  N_3 
REMARK    2  A    between atoms: C_2  and  C_10 
REMARK    3  A    between atoms: C_13  and  C_14 
ROOT
HETATM    1  C   UNL     1       7.083  25.829  55.522  1.00  0.00    -0.028 A 
HETATM    2  C   UNL     1       7.233  27.017  54.789  1.00  0.00     0.010 A 
HETATM    3  C   UNL     1       7.892  28.122  55.342  1.00  0.00     0.014 A 
HETATM    4  C   UNL     1       8.421  28.088  56.642  1.00  0.00    -0.006 A 
HETATM    5  C   UNL     1       8.231  26.911  57.382  1.00  0.00     0.014 A 
HETATM    6  C   UNL     1       7.580  25.799  56.832  1.00  0.00     0.010 A 
ENDROOT
BRANCH   4   7
HETATM    7  C   UNL     1       9.124  29.254  57.189  1.00  0.00     0.082 A 
HETATM    8  N   UNL     1      10.433  29.409  56.853  1.00  0.00    -0.240 NA
HETATM    9  C   UNL     1      11.096  30.474  57.346  1.00  0.00     0.236 A 
HETATM   10  N   UNL     1      10.628  31.435  58.156  1.00  0.00    -0.224 NA
HETATM   11  C   UNL     1       9.343  31.230  58.476  1.00  0.00     0.141 A 
HETATM   12  C   UNL     1       8.529  30.189  58.054  1.00  0.00     0.041 A 
HETATM   13  N   UNL     1       8.614  32.043  59.300  1.00  0.00    -0.350 N 
HETATM   14  C   UNL     1       7.266  30.388  58.687  1.00  0.00     0.034 A 
HETATM   15  C   UNL     1       7.346  31.541  59.439  1.00  0.00     0.091 A 
HETATM   16  H   UNL     1       8.983  32.875  59.740  1.00  0.00     0.166 HD
ENDBRANCH   4   7
BRANCH   1  17
HETATM   17  C   UNL     1       6.377  24.646  54.883  1.00  0.00     0.217 C 
HETATM   18  C   UNL     1       5.480  25.004  53.693  1.00  0.00     0.045 C 
BRANCH  17  19
HETATM   19  N   UNL     1       7.350  23.516  54.538  1.00  0.00    -0.063 N 
HETATM   20  H   UNL     1       8.274  23.970  54.572  1.00  0.00     0.280 HD
HETATM   21  C   UNL     1       7.374  22.423  55.583  1.00  0.00     0.235 C 
HETATM   22  C   UNL     1       8.530  21.472  55.308  1.00  0.00     0.028 C 
HETATM   23  C   UNL     1       8.459  20.897  53.898  1.00  0.00     0.003 C 
HETATM   24  C   UNL     1       8.381  22.008  52.859  1.00  0.00     0.028 C 
HETATM   25  C   UNL     1       7.223  22.960  53.138  1.00  0.00     0.235 C 
ENDBRANCH  17  19
ENDBRANCH   1  17
TORSDOF 3
ENDMDL
MODEL 5
REMARK VINA RESULT:      -9.1      4.571      6.537
REMARK  3 active torsions:
REMARK  status: ('A' for Active; 'I' for Inactive)
REMARK    1  A    between atoms: C_2  and  N_3 
REMARK    2  A    between atoms: C_2  and  C_10 
REMARK    3  A    between atoms: C_13  and  C_14 
ROOT
HETATM    1  C   UNL     1       5.435  26.737  52.130  1.00  0.00    -0.028 A 
HETATM    2  C   UNL     1       4.686  25.877  52.951  1.00  0.00     0.010 A 
HETATM    3  C   UNL     1       5.317  24.898  53.727  1.00  0.00     0.014 A 
HETATM    4  C   UNL     1       6.712  24.733  53.713  1.00  0.00    -0.006 A 
HETATM    5  C   UNL     1       7.447  25.569  52.860  1.00  0.00     0.014 A 
HETATM    6  C   UNL     1       6.824  26.557  52.087  1.00  0.00     0.010 A 
ENDROOT
BRANCH   4   7
HETATM    7  C   UNL     1       7.348  23.711  54.552  1.00  0.00     0.082 A 
HETATM    8  N   UNL     1       7.581  24.028  55.854  1.00  0.00    -0.240 NA
HETATM    9  C   UNL     1       8.165  23.102  56.641  1.00  0.00     0.236 A 
HETATM   10  N   UNL     1       8.568  21.867  56.303  1.00  0.00    -0.224 NA
HETATM   11  C   UNL     1       8.338  21.608  55.009  1.00  0.00     0.141 A 
HETATM   12  C   UNL     1       7.750  22.451  54.076  1.00  0.00     0.041 A 
HETATM   13  N   UNL     1       8.662  20.434  54.387  1.00  0.00    -0.350 N 
HETATM   14  C   UNL     1       7.756  21.742  52.838  1.00  0.00     0.034 A 
HETATM   15  C   UNL     1       8.314  20.501  53.063  1.00  0.00     0.091 A 
HETATM   16  H   UNL     1       9.104  19.653  54.854  1.00  0.00     0.166 HD
ENDBRANCH   4   7
BRANCH   1  17
HETATM   17  C   UNL     1       4.717  27.798  51.315  1.00  0.00     0.217 C 
HETATM   18  C   UNL     1       5.627  28.894  50.750  1.00  0.00     0.045 C 
BRANCH  17  19
HETATM   19  N   UNL     1       3.830  27.183  50.229  1.00  0.00    -0.063 N 
HETATM   20  H   UNL     1       3.169  26.595  50.756  1.00  0.00     0.280 HD
HETATM   21  C   UNL     1       2.996  28.213  49.501  1.00  0.00     0.235 C 
HETATM   22  C   UNL     1       1.967  27.515  48.622  1.00  0.00     0.028 C 
HETATM   23  C   UNL     1       2.626  26.542  47.653  1.00  0.00     0.003 C 
HETATM   24  C   UNL     1       3.507  25.545  48.395  1.00  0.00     0.028 C 
HETATM   25  C   UNL     1       4.535  26.245  49.275  1.00  0.00     0.235 C 
ENDBRANCH  17  19
ENDBRANCH   1  17
TORSDOF 3
ENDMDL
MODEL 6
REMARK VINA RESULT:      -8.9      4.986      8.243
REMARK  3 active torsions:
REMARK  status: ('A' for Active; 'I' for Inactive)
REMARK    1  A    between atoms: C_2  and  N_3 
REMARK    2  A    between atoms: C_2  and  C_10 
REMARK    3  A    between atoms: C_13  and  C_14 
ROOT
HETATM    1  C   UNL     1       6.754  24.712  53.807  1.00  0.00    -0.028 A 
HETATM    2  C   UNL     1       7.510  25.091  52.686  1.00  0.00     0.010 A 
HETATM    3  C   UNL     1       6.894  25.658  51.565  1.00  0.00     0.014 A 
HETATM    4  C   UNL     1       5.506  25.867  51.514  1.00  0.00    -0.006 A 
HETATM    5  C   UNL     1       4.754  25.448  52.622  1.00  0.00     0.014 A 
HETATM    6  C   UNL     1       5.364  24.888  53.751  1.00  0.00     0.010 A 
ENDROOT
BRANCH   4   7
HETATM    7  C   UNL     1       4.890  26.482  50.333  1.00  0.00     0.082 A 
HETATM    8  N   UNL     1       4.235  25.659  49.470  1.00  0.00    -0.240 NA
HETATM    9  C   UNL     1       3.662  26.205  48.379  1.00  0.00     0.236 A 
HETATM   10  N   UNL     1       3.653  27.495  48.009  1.00  0.00    -0.224 NA
HETATM   11  C   UNL     1       4.326  28.263  48.876  1.00  0.00     0.141 A 
HETATM   12  C   UNL     1       4.967  27.854  50.038  1.00  0.00     0.041 A 
HETATM   13  N   UNL     1       4.493  29.614  48.743  1.00  0.00    -0.350 N 
HETATM   14  C   UNL     1       5.564  29.022  50.597  1.00  0.00     0.034 A 
HETATM   15  C   UNL     1       5.247  30.091  49.784  1.00  0.00     0.091 A 
HETATM   16  H   UNL     1       4.119  30.153  47.974  1.00  0.00     0.166 HD
ENDBRANCH   4   7
BRANCH   1  17
HETATM   17  C   UNL     1       7.459  24.115  55.012  1.00  0.00     0.217 C 
HETATM   18  C   UNL     1       6.888  24.548  56.367  1.00  0.00     0.045 C 
BRANCH  17  19
HETATM   19  N   UNL     1       7.579  22.592  54.909  1.00  0.00    -0.063 N 
HETATM   20  H   UNL     1       6.603  22.276  54.821  1.00  0.00     0.280 HD
HETATM   21  C   UNL     1       8.288  22.144  53.651  1.00  0.00     0.235 C 
HETATM   22  C   UNL     1       8.149  20.636  53.491  1.00  0.00     0.028 C 
HETATM   23  C   UNL     1       8.662  19.893  54.718  1.00  0.00     0.003 C 
HETATM   24  C   UNL     1       7.979  20.393  55.985  1.00  0.00     0.028 C 
HETATM   25  C   UNL     1       8.118  21.903  56.142  1.00  0.00     0.235 C 
ENDBRANCH  17  19
ENDBRANCH   1  17
TORSDOF 3
ENDMDL
MODEL 7
REMARK VINA RESULT:      -8.8      1.547      8.053
REMARK  3 active torsions:
REMARK  status: ('A' for Active; 'I' for Inactive)
REMARK    1  A    between atoms: C_2  and  N_3 
REMARK    2  A    between atoms: C_2  and  C_10 
REMARK    3  A    between atoms: C_13  and  C_14 
ROOT
HETATM    1  C   UNL     1       7.419  25.437  54.533  1.00  0.00    -0.028 A 
HETATM    2  C   UNL     1       7.355  26.738  54.007  1.00  0.00     0.010 A 
HETATM    3  C   UNL     1       7.534  27.854  54.832  1.00  0.00     0.014 A 
HETATM    4  C   UNL     1       7.779  27.721  56.208  1.00  0.00    -0.006 A 
HETATM    5  C   UNL     1       7.801  26.420  56.732  1.00  0.00     0.014 A 
HETATM    6  C   UNL     1       7.632  25.298  55.912  1.00  0.00     0.010 A 
ENDROOT
BRANCH   4   7
HETATM    7  C   UNL     1       7.982  28.909  57.045  1.00  0.00     0.082 A 
HETATM    8  N   UNL     1       6.881  29.465  57.619  1.00  0.00    -0.240 NA
HETATM    9  C   UNL     1       7.047  30.557  58.392  1.00  0.00     0.236 A 
HETATM   10  N   UNL     1       8.190  31.199  58.679  1.00  0.00    -0.224 NA
HETATM   11  C   UNL     1       9.242  30.629  58.076  1.00  0.00     0.141 A 
HETATM   12  C   UNL     1       9.235  29.510  57.256  1.00  0.00     0.041 A 
HETATM   13  N   UNL     1      10.529  31.083  58.178  1.00  0.00    -0.350 N 
HETATM   14  C   UNL     1      10.584  29.316  56.833  1.00  0.00     0.034 A 
HETATM   15  C   UNL     1      11.358  30.293  57.425  1.00  0.00     0.091 A 
HETATM   16  H   UNL     1      10.799  31.891  58.723  1.00  0.00     0.166 HD
ENDBRANCH   4   7
BRANCH   1  17
HETATM   17  C   UNL     1       7.237  24.250  53.605  1.00  0.00     0.217 C 
HETATM   18  C   UNL     1       7.628  24.513  52.146  1.00  0.00     0.045 C 
BRANCH  17  19
HETATM   19  N   UNL     1       7.906  22.987  54.151  1.00  0.00    -0.063 N 
HETATM   20  H   UNL     1       8.871  23.288  54.350  1.00  0.00     0.280 HD
HETATM   21  C   UNL     1       7.320  22.536  55.470  1.00  0.00     0.235 C 
HETATM   22  C   UNL     1       8.189  21.439  56.072  1.00  0.00     0.028 C 
HETATM   23  C   UNL     1       8.364  20.272  55.109  1.00  0.00     0.003 C 
HETATM   24  C   UNL     1       8.903  20.748  53.766  1.00  0.00     0.028 C 
HETATM   25  C   UNL     1       8.033  21.846  53.166  1.00  0.00     0.235 C 
ENDBRANCH  17  19
ENDBRANCH   1  17
TORSDOF 3
ENDMDL
MODEL 8
REMARK VINA RESULT:      -8.7      1.980      8.062
REMARK  3 active torsions:
REMARK  status: ('A' for Active; 'I' for Inactive)
REMARK    1  A    between atoms: C_2  and  N_3 
REMARK    2  A    between atoms: C_2  and  C_10 
REMARK    3  A    between atoms: C_13  and  C_14 
ROOT
HETATM    1  C   UNL     1       6.684  25.133  54.426  1.00  0.00    -0.028 A 
HETATM    2  C   UNL     1       7.490  26.229  54.076  1.00  0.00     0.010 A 
HETATM    3  C   UNL     1       7.284  27.485  54.659  1.00  0.00     0.014 A 
HETATM    4  C   UNL     1       6.270  27.700  55.606  1.00  0.00    -0.006 A 
HETATM    5  C   UNL     1       5.443  26.610  55.919  1.00  0.00     0.014 A 
HETATM    6  C   UNL     1       5.649  25.348  55.346  1.00  0.00     0.010 A 
ENDROOT
BRANCH   4   7
HETATM    7  C   UNL     1       6.089  29.022  56.215  1.00  0.00     0.082 A 
HETATM    8  N   UNL     1       5.157  29.843  55.661  1.00  0.00    -0.240 NA
HETATM    9  C   UNL     1       4.976  31.063  56.206  1.00  0.00     0.236 A 
HETATM   10  N   UNL     1       5.618  31.601  57.255  1.00  0.00    -0.224 NA
HETATM   11  C   UNL     1       6.540  30.767  57.753  1.00  0.00     0.141 A 
HETATM   12  C   UNL     1       6.843  29.488  57.306  1.00  0.00     0.041 A 
HETATM   13  N   UNL     1       7.354  31.059  58.812  1.00  0.00    -0.350 N 
HETATM   14  C   UNL     1       7.910  29.020  58.129  1.00  0.00     0.034 A 
HETATM   15  C   UNL     1       8.195  30.004  59.053  1.00  0.00     0.091 A 
HETATM   16  H   UNL     1       7.329  31.935  59.316  1.00  0.00     0.166 HD
ENDBRANCH   4   7
BRANCH   1  17
HETATM   17  C   UNL     1       6.947  23.783  53.785  1.00  0.00     0.217 C 
HETATM   18  C   UNL     1       7.935  23.813  52.613  1.00  0.00     0.045 C 
BRANCH  17  19
HETATM   19  N   UNL     1       7.331  22.722  54.820  1.00  0.00    -0.063 N 
HETATM   20  H   UNL     1       6.445  22.526  55.308  1.00  0.00     0.280 HD
HETATM   21  C   UNL     1       7.768  21.419  54.190  1.00  0.00     0.235 C 
HETATM   22  C   UNL     1       7.888  20.343  55.261  1.00  0.00     0.028 C 
HETATM   23  C   UNL     1       8.833  20.769  56.378  1.00  0.00     0.003 C 
HETATM   24  C   UNL     1       8.412  22.110  56.966  1.00  0.00     0.028 C 
HETATM   25  C   UNL     1       8.291  23.185  55.892  1.00  0.00     0.235 C 
ENDBRANCH  17  19
ENDBRANCH   1  17
TORSDOF 3
ENDMDL
MODEL 9
REMARK VINA RESULT:      -8.5      1.612      2.044
REMARK  3 active torsions:
REMARK  status: ('A' for Active; 'I' for Inactive)
REMARK    1  A    between atoms: C_2  and  N_3 
REMARK    2  A    between atoms: C_2  and  C_10 
REMARK    3  A    between atoms: C_13  and  C_14 
ROOT
HETATM    1  C   UNL     1       6.364  26.847  55.207  1.00  0.00    -0.028 A 
HETATM    2  C   UNL     1       5.852  25.989  56.193  1.00  0.00     0.010 A 
HETATM    3  C   UNL     1       6.322  24.676  56.316  1.00  0.00     0.014 A 
HETATM    4  C   UNL     1       7.314  24.166  55.462  1.00  0.00    -0.006 A 
HETATM    5  C   UNL     1       7.791  25.018  54.454  1.00  0.00     0.014 A 
HETATM    6  C   UNL     1       7.332  26.335  54.331  1.00  0.00     0.010 A 
ENDROOT
BRANCH   4   7
HETATM    7  C   UNL     1       7.801  22.793  55.626  1.00  0.00     0.082 A 
HETATM    8  N   UNL     1       8.107  22.384  56.887  1.00  0.00    -0.240 NA
HETATM    9  C   UNL     1       8.557  21.125  57.059  1.00  0.00     0.236 A 
HETATM   10  N   UNL     1       8.758  20.186  56.122  1.00  0.00    -0.224 NA
HETATM   11  C   UNL     1       8.465  20.639  54.896  1.00  0.00     0.141 A 
HETATM   12  C   UNL     1       7.996  21.901  54.557  1.00  0.00     0.041 A 
HETATM   13  N   UNL     1       8.592  19.903  53.750  1.00  0.00    -0.350 N 
HETATM   14  C   UNL     1       7.868  21.912  53.136  1.00  0.00     0.034 A 
HETATM   15  C   UNL     1       8.233  20.666  52.669  1.00  0.00     0.091 A 
HETATM   16  H   UNL     1       8.918  18.947  53.729  1.00  0.00     0.166 HD
ENDBRANCH   4   7
BRANCH   1  17
HETATM   17  C   UNL     1       5.842  28.269  55.115  1.00  0.00     0.217 C 
HETATM   18  C   UNL     1       4.390  28.387  54.635  1.00  0.00     0.045 C 
BRANCH  17  19
HETATM   19  N   UNL     1       6.074  29.050  56.411  1.00  0.00    -0.063 N 
HETATM   20  H   UNL     1       5.571  28.500  57.122  1.00  0.00     0.280 HD
HETATM   21  C   UNL     1       7.526  29.067  56.833  1.00  0.00     0.235 C 
HETATM   22  C   UNL     1       7.646  29.634  58.241  1.00  0.00     0.028 C 
HETATM   23  C   UNL     1       7.018  31.018  58.343  1.00  0.00     0.003 C 
HETATM   24  C   UNL     1       5.572  30.998  57.863  1.00  0.00     0.028 C 
HETATM   25  C   UNL     1       5.454  30.429  56.454  1.00  0.00     0.235 C 
ENDBRANCH  17  19
ENDBRANCH   1  17
TORSDOF 3
ENDMDL
MODEL 10
REMARK VINA RESULT:      -8.5      2.713      3.801
REMARK  3 active torsions:
REMARK  status: ('A' for Active; 'I' for Inactive)
REMARK    1  A    between atoms: C_2  and  N_3 
REMARK    2  A    between atoms: C_2  and  C_10 
REMARK    3  A    between atoms: C_13  and  C_14 
ROOT
HETATM    1  C   UNL     1       6.129  26.457  53.561  1.00  0.00    -0.028 A 
HETATM    2  C   UNL     1       5.289  25.332  53.566  1.00  0.00     0.010 A 
HETATM    3  C   UNL     1       5.822  24.040  53.635  1.00  0.00     0.014 A 
HETATM    4  C   UNL     1       7.207  23.817  53.698  1.00  0.00    -0.006 A 
HETATM    5  C   UNL     1       8.041  24.945  53.653  1.00  0.00     0.014 A 
HETATM    6  C   UNL     1       7.514  26.242  53.592  1.00  0.00     0.010 A 
ENDROOT
BRANCH   4   7
HETATM    7  C   UNL     1       7.738  22.453  53.790  1.00  0.00     0.082 A 
HETATM    8  N   UNL     1       7.875  21.757  52.630  1.00  0.00    -0.240 NA
HETATM    9  C   UNL     1       8.360  20.500  52.693  1.00  0.00     0.236 A 
HETATM   10  N   UNL     1       8.735  19.815  53.784  1.00  0.00    -0.224 NA
HETATM   11  C   UNL     1       8.563  20.531  54.902  1.00  0.00     0.141 A 
HETATM   12  C   UNL     1       8.077  21.827  55.002  1.00  0.00     0.041 A 
HETATM   13  N   UNL     1       8.846  20.077  56.161  1.00  0.00    -0.350 N 
HETATM   14  C   UNL     1       8.048  22.136  56.395  1.00  0.00     0.034 A 
HETATM   15  C   UNL     1       8.536  21.044  57.081  1.00  0.00     0.091 A 
HETATM   16  H   UNL     1       9.214  19.156  56.357  1.00  0.00     0.166 HD
ENDBRANCH   4   7
BRANCH   1  17
HETATM   17  C   UNL     1       5.513  27.844  53.502  1.00  0.00     0.217 C 
HETATM   18  C   UNL     1       4.083  27.885  52.952  1.00  0.00     0.045 C 
BRANCH  17  19
HETATM   19  N   UNL     1       5.627  28.579  54.840  1.00  0.00    -0.063 N 
HETATM   20  H   UNL     1       6.630  28.798  54.914  1.00  0.00     0.280 HD
HETATM   21  C   UNL     1       4.900  29.906  54.843  1.00  0.00     0.235 C 
HETATM   22  C   UNL     1       5.261  30.688  56.099  1.00  0.00     0.028 C 
HETATM   23  C   UNL     1       4.969  29.886  57.361  1.00  0.00     0.003 C 
HETATM   24  C   UNL     1       5.663  28.530  57.320  1.00  0.00     0.028 C 
HETATM   25  C   UNL     1       5.301  27.750  56.061  1.00  0.00     0.235 C 
ENDBRANCH  17  19
ENDBRANCH   1  17
TORSDOF 3
ENDMDL
