MODEL 1
REMARK VINA RESULT:     -10.3      0.000      0.000
REMARK  6 active torsions:
REMARK  status: ('A' for Active; 'I' for Inactive)
REMARK    1  A    between atoms: C_6  and  C_7 
REMARK    2  A    between atoms: C_10  and  O_11 
REMARK    3  A    between atoms: C_15  and  C_16 
REMARK    4  A    between atoms: C_16  and  C_17 
REMARK       I    between atoms: C_17  and  N_18 
REMARK    5  A    between atoms: N_18  and  C_19 
REMARK    6  A    between atoms: C_19  and  C_20 
ROOT
HETATM    1  C   UNL     1       8.095  29.095  58.518  1.00  0.00     0.146 C 
ENDROOT
BRANCH   1   2
HETATM    2  C   UNL     1       9.049  30.241  58.430  1.00  0.00     0.006 A 
HETATM    3  C   UNL     1      10.034  30.394  57.466  1.00  0.00     0.033 A 
HETATM    4  C   UNL     1      10.430  29.559  56.306  1.00  0.00     0.070 C 
HETATM    5  N   UNL     1      10.667  31.563  57.762  1.00  0.00    -0.282 N 
HETATM    6  H   UNL     1      11.438  32.003  57.269  1.00  0.00     0.189 HD
HETATM    7  N   UNL     1      10.193  32.167  58.852  1.00  0.00    -0.173 NA
HETATM    8  C   UNL     1       9.175  31.398  59.274  1.00  0.00     0.096 A 
BRANCH   8   9
HETATM    9  C   UNL     1       8.415  31.802  60.468  1.00  0.00    -0.005 A 
HETATM   10  C   UNL     1       8.952  31.746  61.757  1.00  0.00     0.016 A 
HETATM   11  C   UNL     1       8.186  32.126  62.868  1.00  0.00     0.037 A 
HETATM   12  C   UNL     1       6.862  32.534  62.716  1.00  0.00     0.068 A 
HETATM   13  C   UNL     1       6.313  32.596  61.439  1.00  0.00     0.037 A 
HETATM   14  C   UNL     1       7.086  32.234  60.328  1.00  0.00     0.016 A 
BRANCH  12  15
HETATM   15  O   UNL     1       6.217  32.853  63.879  1.00  0.00    -0.356 OA
HETATM   16  C   UNL     1       6.998  33.506  64.872  1.00  0.00     0.210 C 
ENDBRANCH  12  15
ENDBRANCH   8   9
ENDBRANCH   1   2
BRANCH   1  17
HETATM   17  C   UNL     1       7.272  28.835  57.268  1.00  0.00     0.222 C 
HETATM   18  N   UNL     1       7.508  27.648  56.618  1.00  0.00    -0.350 N 
HETATM   19  H   UNL     1       8.102  26.945  57.041  1.00  0.00     0.163 HD
HETATM   20  O   UNL     1       6.508  29.692  56.826  1.00  0.00    -0.273 OA
BRANCH  18  21
HETATM   21  C   UNL     1       7.013  27.394  55.274  1.00  0.00     0.150 C 
HETATM   22  C   UNL     1       7.798  28.248  54.281  1.00  0.00     0.040 C 
BRANCH  21  23
HETATM   23  C   UNL     1       7.121  25.932  54.970  1.00  0.00     0.127 A 
HETATM   24  N   UNL     1       7.101  24.933  55.833  1.00  0.00    -0.231 NA
HETATM   25  C   UNL     1       7.390  23.806  55.106  1.00  0.00     0.085 A 
HETATM   26  C   UNL     1       7.550  24.112  53.759  1.00  0.00     0.062 A 
HETATM   27  C   UNL     1       7.553  22.481  55.535  1.00  0.00     0.034 A 
HETATM   28  N   UNL     1       7.352  25.466  53.694  1.00  0.00    -0.341 N 
HETATM   29  C   UNL     1       7.859  23.154  52.790  1.00  0.00     0.032 A 
HETATM   30  H   UNL     1       7.410  26.041  52.863  1.00  0.00     0.167 HD
HETATM   31  C   UNL     1       8.023  21.837  53.238  1.00  0.00     0.002 A 
HETATM   32  C   UNL     1       7.874  21.503  54.587  1.00  0.00     0.002 A 
ENDBRANCH  21  23
ENDBRANCH  18  21
ENDBRANCH   1  17
TORSDOF 6
ENDMDL
MODEL 2
REMARK VINA RESULT:     -10.1      2.741      9.435
REMARK  6 active torsions:
REMARK  status: ('A' for Active; 'I' for Inactive)
REMARK    1  A    between atoms: C_6  and  C_7 
REMARK    2  A    between atoms: C_10  and  O_11 
REMARK    3  A    between atoms: C_15  and  C_16 
REMARK    4  A    between atoms: C_16  and  C_17 
REMARK       I    between atoms: C_17  and  N_18 
REMARK    5  A    between atoms: N_18  and  C_19 
REMARK    6  A    between atoms: C_19  and  C_20 
ROOT
HETATM    1  C   UNL     1       6.989  27.775  53.325  1.00  0.00     0.146 C 
ENDROOT
BRANCH   1   2
HETATM    2  C   UNL     1       6.113  26.868  52.524  1.00  0.00     0.006 A 
HETATM    3  C   UNL     1       5.194  27.275  51.569  1.00  0.00     0.033 A 
HETATM    4  C   UNL     1       4.812  28.616  51.063  1.00  0.00     0.070 C 
HETATM    5  N   UNL     1       4.619  26.136  51.095  1.00  0.00    -0.282 N 
HETATM    6  H   UNL     1       3.904  26.043  50.380  1.00  0.00     0.189 HD
HETATM    7  N   UNL     1       5.068  25.026  51.682  1.00  0.00    -0.173 NA
HETATM    8  C   UNL     1       6.013  25.434  52.546  1.00  0.00     0.096 A 
BRANCH   8   9
HETATM    9  C   UNL     1       6.729  24.434  53.354  1.00  0.00    -0.005 A 
HETATM   10  C   UNL     1       6.543  24.307  54.733  1.00  0.00     0.016 A 
HETATM   11  C   UNL     1       7.259  23.350  55.466  1.00  0.00     0.037 A 
HETATM   12  C   UNL     1       8.198  22.528  54.842  1.00  0.00     0.068 A 
HETATM   13  C   UNL     1       8.392  22.643  53.469  1.00  0.00     0.037 A 
HETATM   14  C   UNL     1       7.662  23.586  52.736  1.00  0.00     0.016 A 
BRANCH  12  15
HETATM   15  O   UNL     1       8.846  21.656  55.671  1.00  0.00    -0.356 OA
HETATM   16  C   UNL     1       8.072  20.573  56.173  1.00  0.00     0.210 C 
ENDBRANCH  12  15
ENDBRANCH   8   9
ENDBRANCH   1   2
BRANCH   1  17
HETATM   17  C   UNL     1       6.517  28.054  54.741  1.00  0.00     0.222 C 
HETATM   18  N   UNL     1       7.369  27.685  55.754  1.00  0.00    -0.350 N 
HETATM   19  H   UNL     1       8.309  27.371  55.539  1.00  0.00     0.163 HD
HETATM   20  O   UNL     1       5.391  28.502  54.954  1.00  0.00    -0.273 OA
BRANCH  18  21
HETATM   21  C   UNL     1       6.939  27.626  57.141  1.00  0.00     0.150 C 
HETATM   22  C   UNL     1       7.468  26.342  57.776  1.00  0.00     0.040 C 
BRANCH  21  23
HETATM   23  C   UNL     1       7.411  28.850  57.863  1.00  0.00     0.127 A 
HETATM   24  N   UNL     1       8.606  29.059  58.383  1.00  0.00    -0.231 NA
HETATM   25  C   UNL     1       8.511  30.242  59.073  1.00  0.00     0.085 A 
HETATM   26  C   UNL     1       7.242  30.793  58.939  1.00  0.00     0.062 A 
HETATM   27  C   UNL     1       9.469  30.900  59.857  1.00  0.00     0.034 A 
HETATM   28  N   UNL     1       6.567  29.901  58.148  1.00  0.00    -0.341 N 
HETATM   29  C   UNL     1       6.863  31.993  59.546  1.00  0.00     0.032 A 
HETATM   30  H   UNL     1       5.600  29.971  57.855  1.00  0.00     0.167 HD
HETATM   31  C   UNL     1       7.830  32.634  60.330  1.00  0.00     0.002 A 
HETATM   32  C   UNL     1       9.112  32.099  60.486  1.00  0.00     0.002 A 
ENDBRANCH  21  23
ENDBRANCH  18  21
ENDBRANCH   1  17
TORSDOF 6
ENDMDL
MODEL 3
REMARK VINA RESULT:     -10.1      2.512      9.807
REMARK  6 active torsions:
REMARK  status: ('A' for Active; 'I' for Inactive)
REMARK    1  A    between atoms: C_6  and  C_7 
REMARK    2  A    between atoms: C_10  and  O_11 
REMARK    3  A    between atoms: C_15  and  C_16 
REMARK    4  A    between atoms: C_16  and  C_17 
REMARK       I    between atoms: C_17  and  N_18 
REMARK    5  A    between atoms: N_18  and  C_19 
REMARK    6  A    between atoms: C_19  and  C_20 
ROOT
HETATM    1  C   UNL     1       5.930  26.327  57.121  1.00  0.00     0.146 C 
ENDROOT
BRANCH   1   2
HETATM    2  C   UNL     1       5.515  26.608  55.714  1.00  0.00     0.006 A 
HETATM    3  C   UNL     1       4.680  27.641  55.314  1.00  0.00     0.033 A 
HETATM    4  C   UNL     1       3.990  28.713  56.071  1.00  0.00     0.070 C 
HETATM    5  N   UNL     1       4.566  27.526  53.962  1.00  0.00    -0.282 N 
HETATM    6  H   UNL     1       4.039  28.113  53.323  1.00  0.00     0.189 HD
HETATM    7  N   UNL     1       5.235  26.490  53.455  1.00  0.00    -0.173 NA
HETATM    8  C   UNL     1       5.858  25.919  54.501  1.00  0.00     0.096 A 
BRANCH   8   9
HETATM    9  C   UNL     1       6.709  24.740  54.274  1.00  0.00    -0.005 A 
HETATM   10  C   UNL     1       7.294  24.460  53.036  1.00  0.00     0.016 A 
HETATM   11  C   UNL     1       8.084  23.315  52.862  1.00  0.00     0.037 A 
HETATM   12  C   UNL     1       8.275  22.412  53.907  1.00  0.00     0.068 A 
HETATM   13  C   UNL     1       7.699  22.678  55.146  1.00  0.00     0.037 A 
HETATM   14  C   UNL     1       6.926  23.832  55.324  1.00  0.00     0.016 A 
BRANCH  12  15
HETATM   15  O   UNL     1       9.045  21.324  53.601  1.00  0.00    -0.356 OA
HETATM   16  C   UNL     1       8.407  20.293  52.856  1.00  0.00     0.210 C 
ENDBRANCH  12  15
ENDBRANCH   8   9
ENDBRANCH   1   2
BRANCH   1  17
HETATM   17  C   UNL     1       7.245  26.954  57.550  1.00  0.00     0.222 C 
HETATM   18  N   UNL     1       7.222  28.301  57.816  1.00  0.00    -0.350 N 
HETATM   19  H   UNL     1       6.339  28.798  57.847  1.00  0.00     0.163 HD
HETATM   20  O   UNL     1       8.284  26.294  57.564  1.00  0.00    -0.273 OA
BRANCH  18  21
HETATM   21  C   UNL     1       8.441  29.081  57.955  1.00  0.00     0.150 C 
HETATM   22  C   UNL     1       8.754  29.763  56.625  1.00  0.00     0.040 C 
BRANCH  21  23
HETATM   23  C   UNL     1       8.279  30.067  59.071  1.00  0.00     0.127 A 
HETATM   24  N   UNL     1       9.072  30.230  60.113  1.00  0.00    -0.231 NA
HETATM   25  C   UNL     1       8.433  31.127  60.931  1.00  0.00     0.085 A 
HETATM   26  C   UNL     1       7.242  31.558  60.360  1.00  0.00     0.062 A 
HETATM   27  C   UNL     1       8.806  31.609  62.195  1.00  0.00     0.034 A 
HETATM   28  N   UNL     1       7.176  30.887  59.167  1.00  0.00    -0.341 N 
HETATM   29  C   UNL     1       6.382  32.468  60.981  1.00  0.00     0.032 A 
HETATM   30  H   UNL     1       6.427  30.942  58.489  1.00  0.00     0.167 HD
HETATM   31  C   UNL     1       6.767  32.935  62.244  1.00  0.00     0.002 A 
HETATM   32  C   UNL     1       7.957  32.514  62.844  1.00  0.00     0.002 A 
ENDBRANCH  21  23
ENDBRANCH  18  21
ENDBRANCH   1  17
TORSDOF 6
ENDMDL
MODEL 4
REMARK VINA RESULT:     -10.0      4.268      8.100
REMARK  6 active torsions:
REMARK  status: ('A' for Active; 'I' for Inactive)
REMARK    1  A    between atoms: C_6  and  C_7 
REMARK    2  A    between atoms: C_10  and  O_11 
REMARK    3  A    between atoms: C_15  and  C_16 
REMARK    4  A    between atoms: C_16  and  C_17 
REMARK       I    between atoms: C_17  and  N_18 
REMARK    5  A    between atoms: N_18  and  C_19 
REMARK    6  A    between atoms: C_19  and  C_20 
ROOT
HETATM    1  C   UNL     1       7.964  23.630  52.774  1.00  0.00     0.146 C 
ENDROOT
BRANCH   1   2
HETATM    2  C   UNL     1       7.896  22.727  53.962  1.00  0.00     0.006 A 
HETATM    3  C   UNL     1       8.063  21.351  53.936  1.00  0.00     0.033 A 
HETATM    4  C   UNL     1       8.344  20.403  52.830  1.00  0.00     0.070 C 
HETATM    5  N   UNL     1       7.918  20.933  55.224  1.00  0.00    -0.282 N 
HETATM    6  H   UNL     1       7.982  19.988  55.589  1.00  0.00     0.189 HD
HETATM    7  N   UNL     1       7.646  21.919  56.078  1.00  0.00    -0.173 NA
HETATM    8  C   UNL     1       7.654  23.044  55.343  1.00  0.00     0.096 A 
BRANCH   8   9
HETATM    9  C   UNL     1       7.401  24.335  56.001  1.00  0.00    -0.005 A 
HETATM   10  C   UNL     1       6.154  24.966  55.969  1.00  0.00     0.016 A 
HETATM   11  C   UNL     1       5.962  26.204  56.596  1.00  0.00     0.037 A 
HETATM   12  C   UNL     1       7.018  26.852  57.237  1.00  0.00     0.068 A 
HETATM   13  C   UNL     1       8.265  26.236  57.278  1.00  0.00     0.037 A 
HETATM   14  C   UNL     1       8.450  24.990  56.667  1.00  0.00     0.016 A 
BRANCH  12  15
HETATM   15  O   UNL     1       6.706  28.064  57.787  1.00  0.00    -0.356 OA
HETATM   16  C   UNL     1       7.798  28.944  58.028  1.00  0.00     0.210 C 
ENDBRANCH  12  15
ENDBRANCH   8   9
ENDBRANCH   1   2
BRANCH   1  17
HETATM   17  C   UNL     1       6.746  24.512  52.555  1.00  0.00     0.222 C 
HETATM   18  N   UNL     1       6.985  25.856  52.400  1.00  0.00    -0.350 N 
HETATM   19  H   UNL     1       7.935  26.196  52.306  1.00  0.00     0.163 HD
HETATM   20  O   UNL     1       5.610  24.043  52.609  1.00  0.00    -0.273 OA
BRANCH  18  21
HETATM   21  C   UNL     1       5.919  26.842  52.469  1.00  0.00     0.150 C 
HETATM   22  C   UNL     1       6.461  28.124  53.097  1.00  0.00     0.040 C 
BRANCH  21  23
HETATM   23  C   UNL     1       5.363  27.074  51.099  1.00  0.00     0.127 A 
HETATM   24  N   UNL     1       5.360  28.206  50.420  1.00  0.00    -0.231 NA
HETATM   25  C   UNL     1       4.606  27.967  49.298  1.00  0.00     0.085 A 
HETATM   26  C   UNL     1       4.172  26.647  49.265  1.00  0.00     0.062 A 
HETATM   27  C   UNL     1       4.233  28.841  48.267  1.00  0.00     0.034 A 
HETATM   28  N   UNL     1       4.684  26.093  50.409  1.00  0.00    -0.341 N 
HETATM   29  C   UNL     1       3.377  26.130  48.239  1.00  0.00     0.032 A 
HETATM   30  H   UNL     1       4.552  25.141  50.725  1.00  0.00     0.167 HD
HETATM   31  C   UNL     1       3.009  27.018  47.220  1.00  0.00     0.002 A 
HETATM   32  C   UNL     1       3.427  28.351  47.232  1.00  0.00     0.002 A 
ENDBRANCH  21  23
ENDBRANCH  18  21
ENDBRANCH   1  17
TORSDOF 6
ENDMDL
MODEL 5
REMARK VINA RESULT:      -9.8      2.501      9.601
REMARK  6 active torsions:
REMARK  status: ('A' for Active; 'I' for Inactive)
REMARK    1  A    between atoms: C_6  and  C_7 
REMARK    2  A    between atoms: C_10  and  O_11 
REMARK    3  A    between atoms: C_15  and  C_16 
REMARK    4  A    between atoms: C_16  and  C_17 
REMARK       I    between atoms: C_17  and  N_18 
REMARK    5  A    between atoms: N_18  and  C_19 
REMARK    6  A    between atoms: C_19  and  C_20 
ROOT
HETATM    1  C   UNL     1       7.522  27.709  54.012  1.00  0.00     0.146 C 
ENDROOT
BRANCH   1   2
HETATM    2  C   UNL     1       6.226  27.028  53.713  1.00  0.00     0.006 A 
HETATM    3  C   UNL     1       5.033  27.667  53.413  1.00  0.00     0.033 A 
HETATM    4  C   UNL     1       4.674  29.101  53.295  1.00  0.00     0.070 C 
HETATM    5  N   UNL     1       4.119  26.677  53.216  1.00  0.00    -0.282 N 
HETATM    6  H   UNL     1       3.137  26.768  52.972  1.00  0.00     0.189 HD
HETATM    7  N   UNL     1       4.613  25.451  53.388  1.00  0.00    -0.173 NA
HETATM    8  C   UNL     1       5.917  25.625  53.664  1.00  0.00     0.096 A 
BRANCH   8   9
HETATM    9  C   UNL     1       6.766  24.446  53.894  1.00  0.00    -0.005 A 
HETATM   10  C   UNL     1       7.512  23.844  52.877  1.00  0.00     0.016 A 
HETATM   11  C   UNL     1       8.295  22.712  53.138  1.00  0.00     0.037 A 
HETATM   12  C   UNL     1       8.321  22.139  54.409  1.00  0.00     0.068 A 
HETATM   13  C   UNL     1       7.585  22.727  55.433  1.00  0.00     0.037 A 
HETATM   14  C   UNL     1       6.818  23.870  55.174  1.00  0.00     0.016 A 
BRANCH  12  15
HETATM   15  O   UNL     1       9.103  21.023  54.527  1.00  0.00    -0.356 OA
HETATM   16  C   UNL     1       9.013  20.320  55.760  1.00  0.00     0.210 C 
ENDBRANCH  12  15
ENDBRANCH   8   9
ENDBRANCH   1   2
BRANCH   1  17
HETATM   17  C   UNL     1       7.859  27.847  55.487  1.00  0.00     0.222 C 
HETATM   18  N   UNL     1       8.640  28.922  55.837  1.00  0.00    -0.350 N 
HETATM   19  H   UNL     1       8.853  29.640  55.154  1.00  0.00     0.163 HD
HETATM   20  O   UNL     1       7.520  26.984  56.295  1.00  0.00    -0.273 OA
BRANCH  18  21
HETATM   21  C   UNL     1       9.272  29.023  57.142  1.00  0.00     0.150 C 
HETATM   22  C   UNL     1      10.682  29.585  56.975  1.00  0.00     0.040 C 
BRANCH  21  23
HETATM   23  C   UNL     1       8.428  29.873  58.041  1.00  0.00     0.127 A 
HETATM   24  N   UNL     1       7.269  30.436  57.753  1.00  0.00    -0.231 NA
HETATM   25  C   UNL     1       6.966  31.237  58.824  1.00  0.00     0.085 A 
HETATM   26  C   UNL     1       7.938  31.134  59.812  1.00  0.00     0.062 A 
HETATM   27  C   UNL     1       5.879  32.103  59.016  1.00  0.00     0.034 A 
HETATM   28  N   UNL     1       8.847  30.244  59.301  1.00  0.00    -0.341 N 
HETATM   29  C   UNL     1       7.888  31.849  61.011  1.00  0.00     0.032 A 
HETATM   30  H   UNL     1       9.703  29.940  59.745  1.00  0.00     0.167 HD
HETATM   31  C   UNL     1       6.799  32.712  61.183  1.00  0.00     0.002 A 
HETATM   32  C   UNL     1       5.810  32.840  60.204  1.00  0.00     0.002 A 
ENDBRANCH  21  23
ENDBRANCH  18  21
ENDBRANCH   1  17
TORSDOF 6
ENDMDL
MODEL 6
REMARK VINA RESULT:      -9.6      2.967      9.370
REMARK  6 active torsions:
REMARK  status: ('A' for Active; 'I' for Inactive)
REMARK    1  A    between atoms: C_6  and  C_7 
REMARK    2  A    between atoms: C_10  and  O_11 
REMARK    3  A    between atoms: C_15  and  C_16 
REMARK    4  A    between atoms: C_16  and  C_17 
REMARK       I    between atoms: C_17  and  N_18 
REMARK    5  A    between atoms: N_18  and  C_19 
REMARK    6  A    between atoms: C_19  and  C_20 
ROOT
HETATM    1  C   UNL     1       6.936  24.021  56.623  1.00  0.00     0.146 C 
ENDROOT
BRANCH   1   2
HETATM    2  C   UNL     1       7.366  23.062  55.561  1.00  0.00     0.006 A 
HETATM    3  C   UNL     1       8.013  21.856  55.782  1.00  0.00     0.033 A 
HETATM    4  C   UNL     1       8.448  21.173  57.024  1.00  0.00     0.070 C 
HETATM    5  N   UNL     1       8.219  21.312  54.551  1.00  0.00    -0.282 N 
HETATM    6  H   UNL     1       8.660  20.428  54.320  1.00  0.00     0.189 HD
HETATM    7  N   UNL     1       7.784  22.077  53.549  1.00  0.00    -0.173 NA
HETATM    8  C   UNL     1       7.224  23.150  54.134  1.00  0.00     0.096 A 
BRANCH   8   9
HETATM    9  C   UNL     1       6.622  24.196  53.291  1.00  0.00    -0.005 A 
HETATM   10  C   UNL     1       5.309  24.641  53.465  1.00  0.00     0.016 A 
HETATM   11  C   UNL     1       4.772  25.629  52.628  1.00  0.00     0.037 A 
HETATM   12  C   UNL     1       5.523  26.164  51.581  1.00  0.00     0.068 A 
HETATM   13  C   UNL     1       6.833  25.731  51.397  1.00  0.00     0.037 A 
HETATM   14  C   UNL     1       7.374  24.758  52.246  1.00  0.00     0.016 A 
BRANCH  12  15
HETATM   15  O   UNL     1       4.876  27.100  50.823  1.00  0.00    -0.356 OA
HETATM   16  C   UNL     1       5.294  28.449  50.999  1.00  0.00     0.210 C 
ENDBRANCH  12  15
ENDBRANCH   8   9
ENDBRANCH   1   2
BRANCH   1  17
HETATM   17  C   UNL     1       7.668  25.352  56.634  1.00  0.00     0.222 C 
HETATM   18  N   UNL     1       7.077  26.380  55.941  1.00  0.00    -0.350 N 
HETATM   19  H   UNL     1       6.142  26.270  55.566  1.00  0.00     0.163 HD
HETATM   20  O   UNL     1       8.773  25.460  57.164  1.00  0.00    -0.273 OA
BRANCH  18  21
HETATM   21  C   UNL     1       7.789  27.608  55.627  1.00  0.00     0.150 C 
HETATM   22  C   UNL     1       7.337  28.114  54.259  1.00  0.00     0.040 C 
BRANCH  21  23
HETATM   23  C   UNL     1       7.550  28.615  56.709  1.00  0.00     0.127 A 
HETATM   24  N   UNL     1       6.655  29.585  56.713  1.00  0.00    -0.231 NA
HETATM   25  C   UNL     1       6.922  30.335  57.831  1.00  0.00     0.085 A 
HETATM   26  C   UNL     1       7.978  29.790  58.553  1.00  0.00     0.062 A 
HETATM   27  C   UNL     1       6.312  31.513  58.286  1.00  0.00     0.034 A 
HETATM   28  N   UNL     1       8.346  28.685  57.832  1.00  0.00    -0.341 N 
HETATM   29  C   UNL     1       8.468  30.355  59.733  1.00  0.00     0.032 A 
HETATM   30  H   UNL     1       9.102  28.049  58.053  1.00  0.00     0.167 HD
HETATM   31  C   UNL     1       7.851  31.534  60.169  1.00  0.00     0.002 A 
HETATM   32  C   UNL     1       6.792  32.107  59.460  1.00  0.00     0.002 A 
ENDBRANCH  21  23
ENDBRANCH  18  21
ENDBRANCH   1  17
TORSDOF 6
ENDMDL
MODEL 7
REMARK VINA RESULT:      -9.2      4.687      8.820
REMARK  6 active torsions:
REMARK  status: ('A' for Active; 'I' for Inactive)
REMARK    1  A    between atoms: C_6  and  C_7 
REMARK    2  A    between atoms: C_10  and  O_11 
REMARK    3  A    between atoms: C_15  and  C_16 
REMARK    4  A    between atoms: C_16  and  C_17 
REMARK       I    between atoms: C_17  and  N_18 
REMARK    5  A    between atoms: N_18  and  C_19 
REMARK    6  A    between atoms: C_19  and  C_20 
ROOT
HETATM    1  C   UNL     1       7.425  27.884  53.864  1.00  0.00     0.146 C 
ENDROOT
BRANCH   1   2
HETATM    2  C   UNL     1       7.485  27.401  55.276  1.00  0.00     0.006 A 
HETATM    3  C   UNL     1       7.470  28.208  56.403  1.00  0.00     0.033 A 
HETATM    4  C   UNL     1       7.390  29.679  56.572  1.00  0.00     0.070 C 
HETATM    5  N   UNL     1       7.546  27.364  57.468  1.00  0.00    -0.282 N 
HETATM    6  H   UNL     1       7.552  27.597  58.456  1.00  0.00     0.189 HD
HETATM    7  N   UNL     1       7.635  26.079  57.126  1.00  0.00    -0.173 NA
HETATM    8  C   UNL     1       7.570  26.059  55.784  1.00  0.00     0.096 A 
BRANCH   8   9
HETATM    9  C   UNL     1       7.625  24.768  55.080  1.00  0.00    -0.005 A 
HETATM   10  C   UNL     1       7.779  24.671  53.694  1.00  0.00     0.016 A 
HETATM   11  C   UNL     1       7.810  23.419  53.064  1.00  0.00     0.037 A 
HETATM   12  C   UNL     1       7.652  22.245  53.799  1.00  0.00     0.068 A 
HETATM   13  C   UNL     1       7.499  22.325  55.180  1.00  0.00     0.037 A 
HETATM   14  C   UNL     1       7.487  23.576  55.810  1.00  0.00     0.016 A 
BRANCH  12  15
HETATM   15  O   UNL     1       7.676  21.093  53.064  1.00  0.00    -0.356 OA
HETATM   16  C   UNL     1       8.883  20.342  53.111  1.00  0.00     0.210 C 
ENDBRANCH  12  15
ENDBRANCH   8   9
ENDBRANCH   1   2
BRANCH   1  17
HETATM   17  C   UNL     1       6.027  28.104  53.310  1.00  0.00     0.222 C 
HETATM   18  N   UNL     1       5.931  28.886  52.185  1.00  0.00    -0.350 N 
HETATM   19  H   UNL     1       6.769  29.177  51.695  1.00  0.00     0.163 HD
HETATM   20  O   UNL     1       5.039  27.673  53.903  1.00  0.00    -0.273 OA
BRANCH  18  21
HETATM   21  C   UNL     1       4.659  29.412  51.717  1.00  0.00     0.150 C 
HETATM   22  C   UNL     1       4.861  30.840  51.215  1.00  0.00     0.040 C 
BRANCH  21  23
HETATM   23  C   UNL     1       4.107  28.512  50.655  1.00  0.00     0.127 A 
HETATM   24  N   UNL     1       4.757  27.586  49.975  1.00  0.00    -0.231 NA
HETATM   25  C   UNL     1       3.882  27.144  49.015  1.00  0.00     0.085 A 
HETATM   26  C   UNL     1       2.653  27.783  49.133  1.00  0.00     0.062 A 
HETATM   27  C   UNL     1       4.076  26.208  47.989  1.00  0.00     0.034 A 
HETATM   28  N   UNL     1       2.813  28.632  50.196  1.00  0.00    -0.341 N 
HETATM   29  C   UNL     1       1.577  27.532  48.278  1.00  0.00     0.032 A 
HETATM   30  H   UNL     1       2.120  29.274  50.561  1.00  0.00     0.167 HD
HETATM   31  C   UNL     1       1.791  26.598  47.256  1.00  0.00     0.002 A 
HETATM   32  C   UNL     1       3.018  25.946  47.111  1.00  0.00     0.002 A 
ENDBRANCH  21  23
ENDBRANCH  18  21
ENDBRANCH   1  17
TORSDOF 6
ENDMDL
MODEL 8
REMARK VINA RESULT:      -9.2      2.906      9.361
REMARK  6 active torsions:
REMARK  status: ('A' for Active; 'I' for Inactive)
REMARK    1  A    between atoms: C_6  and  C_7 
REMARK    2  A    between atoms: C_10  and  O_11 
REMARK    3  A    between atoms: C_15  and  C_16 
REMARK    4  A    between atoms: C_16  and  C_17 
REMARK       I    between atoms: C_17  and  N_18 
REMARK    5  A    between atoms: N_18  and  C_19 
REMARK    6  A    between atoms: C_19  and  C_20 
ROOT
HETATM    1  C   UNL     1       4.277  28.430  55.938  1.00  0.00     0.146 C 
ENDROOT
BRANCH   1   2
HETATM    2  C   UNL     1       4.553  28.946  54.563  1.00  0.00     0.006 A 
HETATM    3  C   UNL     1       4.238  30.215  54.103  1.00  0.00     0.033 A 
HETATM    4  C   UNL     1       3.591  31.379  54.756  1.00  0.00     0.070 C 
HETATM    5  N   UNL     1       4.658  30.258  52.808  1.00  0.00    -0.282 N 
HETATM    6  H   UNL     1       4.599  31.031  52.154  1.00  0.00     0.189 HD
HETATM    7  N   UNL     1       5.194  29.114  52.383  1.00  0.00    -0.173 NA
HETATM    8  C   UNL     1       5.175  28.291  53.446  1.00  0.00     0.096 A 
BRANCH   8   9
HETATM    9  C   UNL     1       5.722  26.931  53.312  1.00  0.00    -0.005 A 
HETATM   10  C   UNL     1       4.980  25.870  52.785  1.00  0.00     0.016 A 
HETATM   11  C   UNL     1       5.536  24.587  52.691  1.00  0.00     0.037 A 
HETATM   12  C   UNL     1       6.827  24.332  53.154  1.00  0.00     0.068 A 
HETATM   13  C   UNL     1       7.577  25.379  53.680  1.00  0.00     0.037 A 
HETATM   14  C   UNL     1       7.027  26.664  53.755  1.00  0.00     0.016 A 
BRANCH  12  15
HETATM   15  O   UNL     1       7.241  23.035  53.029  1.00  0.00    -0.356 OA
HETATM   16  C   UNL     1       7.726  22.413  54.213  1.00  0.00     0.210 C 
ENDBRANCH  12  15
ENDBRANCH   8   9
ENDBRANCH   1   2
BRANCH   1  17
HETATM   17  C   UNL     1       5.504  28.161  56.791  1.00  0.00     0.222 C 
HETATM   18  N   UNL     1       6.312  29.241  57.057  1.00  0.00    -0.350 N 
HETATM   19  H   UNL     1       6.013  30.175  56.802  1.00  0.00     0.163 HD
HETATM   20  O   UNL     1       5.793  27.017  57.139  1.00  0.00    -0.273 OA
BRANCH  18  21
HETATM   21  C   UNL     1       7.648  29.087  57.608  1.00  0.00     0.150 C 
HETATM   22  C   UNL     1       8.676  29.340  56.507  1.00  0.00     0.040 C 
BRANCH  21  23
HETATM   23  C   UNL     1       7.822  30.018  58.768  1.00  0.00     0.127 A 
HETATM   24  N   UNL     1       8.782  29.996  59.673  1.00  0.00    -0.231 NA
HETATM   25  C   UNL     1       8.430  30.930  60.614  1.00  0.00     0.085 A 
HETATM   26  C   UNL     1       7.248  31.570  60.259  1.00  0.00     0.062 A 
HETATM   27  C   UNL     1       9.066  31.274  61.816  1.00  0.00     0.034 A 
HETATM   28  N   UNL     1       6.892  30.989  59.071  1.00  0.00    -0.341 N 
HETATM   29  C   UNL     1       6.652  32.562  61.042  1.00  0.00     0.032 A 
HETATM   30  H   UNL     1       6.065  31.197  58.525  1.00  0.00     0.167 HD
HETATM   31  C   UNL     1       7.298  32.889  62.241  1.00  0.00     0.002 A 
HETATM   32  C   UNL     1       8.484  32.257  62.625  1.00  0.00     0.002 A 
ENDBRANCH  21  23
ENDBRANCH  18  21
ENDBRANCH   1  17
TORSDOF 6
ENDMDL
MODEL 9
REMARK VINA RESULT:      -9.1      1.736      2.518
REMARK  6 active torsions:
REMARK  status: ('A' for Active; 'I' for Inactive)
REMARK    1  A    between atoms: C_6  and  C_7 
REMARK    2  A    between atoms: C_10  and  O_11 
REMARK    3  A    between atoms: C_15  and  C_16 
REMARK    4  A    between atoms: C_16  and  C_17 
REMARK       I    between atoms: C_17  and  N_18 
REMARK    5  A    between atoms: N_18  and  C_19 
REMARK    6  A    between atoms: C_19  and  C_20 
ROOT
HETATM    1  C   UNL     1       7.947  29.223  58.355  1.00  0.00     0.146 C 
ENDROOT
BRANCH   1   2
HETATM    2  C   UNL     1       9.011  30.272  58.351  1.00  0.00     0.006 A 
HETATM    3  C   UNL     1      10.041  30.368  57.427  1.00  0.00     0.033 A 
HETATM    4  C   UNL     1      10.397  29.547  56.244  1.00  0.00     0.070 C 
HETATM    5  N   UNL     1      10.773  31.455  57.797  1.00  0.00    -0.282 N 
HETATM    6  H   UNL     1      11.600  31.837  57.349  1.00  0.00     0.189 HD
HETATM    7  N   UNL     1      10.320  32.056  58.897  1.00  0.00    -0.173 NA
HETATM    8  C   UNL     1       9.216  31.374  59.250  1.00  0.00     0.096 A 
BRANCH   8   9
HETATM    9  C   UNL     1       8.456  31.801  60.435  1.00  0.00    -0.005 A 
HETATM   10  C   UNL     1       8.989  31.763  61.726  1.00  0.00     0.016 A 
HETATM   11  C   UNL     1       8.223  32.163  62.829  1.00  0.00     0.037 A 
HETATM   12  C   UNL     1       6.900  32.575  62.668  1.00  0.00     0.068 A 
HETATM   13  C   UNL     1       6.355  32.620  61.388  1.00  0.00     0.037 A 
HETATM   14  C   UNL     1       7.129  32.237  60.285  1.00  0.00     0.016 A 
BRANCH  12  15
HETATM   15  O   UNL     1       6.254  32.916  63.824  1.00  0.00    -0.356 OA
HETATM   16  C   UNL     1       7.072  33.399  64.882  1.00  0.00     0.210 C 
ENDBRANCH  12  15
ENDBRANCH   8   9
ENDBRANCH   1   2
BRANCH   1  17
HETATM   17  C   UNL     1       6.834  29.421  57.341  1.00  0.00     0.222 C 
HETATM   18  N   UNL     1       5.570  29.064  57.744  1.00  0.00    -0.350 N 
HETATM   19  H   UNL     1       5.396  28.813  58.710  1.00  0.00     0.163 HD
HETATM   20  O   UNL     1       7.082  29.795  56.196  1.00  0.00    -0.273 OA
BRANCH  18  21
HETATM   21  C   UNL     1       4.469  28.929  56.804  1.00  0.00     0.150 C 
HETATM   22  C   UNL     1       4.090  30.310  56.274  1.00  0.00     0.040 C 
BRANCH  21  23
HETATM   23  C   UNL     1       4.863  27.991  55.705  1.00  0.00     0.127 A 
HETATM   24  N   UNL     1       4.584  28.104  54.420  1.00  0.00    -0.231 NA
HETATM   25  C   UNL     1       5.011  26.936  53.841  1.00  0.00     0.085 A 
HETATM   26  C   UNL     1       5.603  26.102  54.783  1.00  0.00     0.062 A 
HETATM   27  C   UNL     1       4.907  26.506  52.510  1.00  0.00     0.034 A 
HETATM   28  N   UNL     1       5.517  26.804  55.957  1.00  0.00    -0.341 N 
HETATM   29  C   UNL     1       6.118  24.842  54.471  1.00  0.00     0.032 A 
HETATM   30  H   UNL     1       5.834  26.493  56.866  1.00  0.00     0.167 HD
HETATM   31  C   UNL     1       6.001  24.427  53.138  1.00  0.00     0.002 A 
HETATM   32  C   UNL     1       5.406  25.242  52.172  1.00  0.00     0.002 A 
ENDBRANCH  21  23
ENDBRANCH  18  21
ENDBRANCH   1  17
TORSDOF 6
ENDMDL
MODEL 10
REMARK VINA RESULT:      -9.0      4.372      6.363
REMARK  6 active torsions:
REMARK  status: ('A' for Active; 'I' for Inactive)
REMARK    1  A    between atoms: C_6  and  C_7 
REMARK    2  A    between atoms: C_10  and  O_11 
REMARK    3  A    between atoms: C_15  and  C_16 
REMARK    4  A    between atoms: C_16  and  C_17 
REMARK       I    between atoms: C_17  and  N_18 
REMARK    5  A    between atoms: N_18  and  C_19 
REMARK    6  A    between atoms: C_19  and  C_20 
ROOT
HETATM    1  C   UNL     1       7.527  27.537  54.062  1.00  0.00     0.146 C 
ENDROOT
BRANCH   1   2
HETATM    2  C   UNL     1       7.463  26.709  55.305  1.00  0.00     0.006 A 
HETATM    3  C   UNL     1       7.083  25.377  55.363  1.00  0.00     0.033 A 
HETATM    4  C   UNL     1       6.658  24.417  54.317  1.00  0.00     0.070 C 
HETATM    5  N   UNL     1       7.163  25.024  56.676  1.00  0.00    -0.282 N 
HETATM    6  H   UNL     1       6.966  24.122  57.097  1.00  0.00     0.189 HD
HETATM    7  N   UNL     1       7.539  26.022  57.476  1.00  0.00    -0.173 NA
HETATM    8  C   UNL     1       7.763  27.069  56.663  1.00  0.00     0.096 A 
BRANCH   8   9
HETATM    9  C   UNL     1       8.215  28.345  57.242  1.00  0.00    -0.005 A 
HETATM   10  C   UNL     1       7.378  29.166  58.002  1.00  0.00     0.016 A 
HETATM   11  C   UNL     1       7.846  30.381  58.519  1.00  0.00     0.037 A 
HETATM   12  C   UNL     1       9.146  30.815  58.259  1.00  0.00     0.068 A 
HETATM   13  C   UNL     1       9.992  30.007  57.505  1.00  0.00     0.037 A 
HETATM   14  C   UNL     1       9.528  28.784  57.004  1.00  0.00     0.016 A 
BRANCH  12  15
HETATM   15  O   UNL     1       9.472  32.028  58.799  1.00  0.00    -0.356 OA
HETATM   16  C   UNL     1       8.863  32.344  60.046  1.00  0.00     0.210 C 
ENDBRANCH  12  15
ENDBRANCH   8   9
ENDBRANCH   1   2
BRANCH   1  17
HETATM   17  C   UNL     1       6.217  28.178  53.639  1.00  0.00     0.222 C 
HETATM   18  N   UNL     1       5.901  28.100  52.304  1.00  0.00    -0.350 N 
HETATM   19  H   UNL     1       6.459  27.527  51.682  1.00  0.00     0.163 HD
HETATM   20  O   UNL     1       5.533  28.808  54.445  1.00  0.00    -0.273 OA
BRANCH  18  21
HETATM   21  C   UNL     1       4.841  28.901  51.714  1.00  0.00     0.150 C 
HETATM   22  C   UNL     1       5.430  30.216  51.207  1.00  0.00     0.040 C 
BRANCH  21  23
HETATM   23  C   UNL     1       4.175  28.123  50.622  1.00  0.00     0.127 A 
HETATM   24  N   UNL     1       4.683  27.119  49.932  1.00  0.00    -0.231 NA
HETATM   25  C   UNL     1       3.768  26.842  48.948  1.00  0.00     0.085 A 
HETATM   26  C   UNL     1       2.654  27.665  49.060  1.00  0.00     0.062 A 
HETATM   27  C   UNL     1       3.832  25.907  47.904  1.00  0.00     0.034 A 
HETATM   28  N   UNL     1       2.925  28.456  50.145  1.00  0.00    -0.341 N 
HETATM   29  C   UNL     1       1.569  27.606  48.182  1.00  0.00     0.032 A 
HETATM   30  H   UNL     1       2.336  29.192  50.513  1.00  0.00     0.167 HD
HETATM   31  C   UNL     1       1.652  26.670  47.142  1.00  0.00     0.002 A 
HETATM   32  C   UNL     1       2.763  25.835  47.002  1.00  0.00     0.002 A 
ENDBRANCH  21  23
ENDBRANCH  18  21
ENDBRANCH   1  17
TORSDOF 6
ENDMDL
