MODEL 1
REMARK VINA RESULT:      -9.5      0.000      0.000
REMARK  6 active torsions:
REMARK  status: ('A' for Active; 'I' for Inactive)
REMARK    1  A    between atoms: C_8  and  C_9 
REMARK    2  A    between atoms: C_9  and  C_10 
REMARK    3  A    between atoms: C_10  and  N_11 
REMARK    4  A    between atoms: C_10  and  C_19 
REMARK       I    between atoms: N_11  and  C_12 
REMARK    5  A    between atoms: C_12  and  C_13 
REMARK       I    between atoms: C_19  and  N_20 
REMARK    6  A    between atoms: N_20  and  C_21 
ROOT
HETATM    1  C   UNL     1       6.740  26.184  53.511  1.00  0.00     0.181 C 
ENDROOT
BRANCH   1   2
HETATM    2  C   UNL     1       7.851  25.132  53.320  1.00  0.00     0.075 C 
BRANCH   2   3
HETATM    3  C   UNL     1       7.994  24.143  54.441  1.00  0.00    -0.028 A 
HETATM    4  C   UNL     1       8.151  22.724  54.309  1.00  0.00    -0.002 A 
HETATM    5  C   UNL     1       8.247  21.840  53.213  1.00  0.00     0.014 A 
HETATM    6  C   UNL     1       8.206  22.188  55.595  1.00  0.00     0.042 A 
HETATM    7  C   UNL     1       8.385  20.466  53.442  1.00  0.00     0.001 A 
HETATM    8  C   UNL     1       8.427  19.964  54.739  1.00  0.00     0.002 A 
HETATM    9  C   UNL     1       8.339  20.816  55.843  1.00  0.00     0.030 A 
HETATM   10  N   UNL     1       8.112  23.238  56.477  1.00  0.00    -0.365 N 
HETATM   11  H   UNL     1       8.127  23.147  57.483  1.00  0.00     0.165 HD
HETATM   12  C   UNL     1       8.004  24.419  55.794  1.00  0.00     0.096 A 
ENDBRANCH   2   3
ENDBRANCH   1   2
BRANCH   1  13
HETATM   13  N   UNL     1       6.215  26.672  52.235  1.00  0.00    -0.343 N 
HETATM   14  C   UNL     1       5.277  26.002  51.490  1.00  0.00     0.259 C 
HETATM   15  O   UNL     1       4.796  24.940  51.884  1.00  0.00    -0.267 OA
HETATM   16  H   UNL     1       6.514  27.597  51.937  1.00  0.00     0.163 HD
BRANCH  14  17
HETATM   17  C   UNL     1       4.918  26.614  50.219  1.00  0.00     0.072 A 
HETATM   18  S   UNL     1       5.304  28.243  49.839  1.00  0.00    -0.097 SA
HETATM   19  C   UNL     1       4.604  28.124  48.285  1.00  0.00     0.050 A 
HETATM   20  C   UNL     1       4.081  26.872  48.049  1.00  0.00     0.009 A 
HETATM   21  C   UNL     1       4.258  26.005  49.165  1.00  0.00     0.025 A 
ENDBRANCH  14  17
ENDBRANCH   1  13
BRANCH   1  22
HETATM   22  C   UNL     1       7.162  27.434  54.333  1.00  0.00     0.245 C 
HETATM   23  N   UNL     1       6.521  27.583  55.550  1.00  0.00    -0.324 N 
HETATM   24  H   UNL     1       5.957  26.812  55.880  1.00  0.00     0.169 HD
HETATM   25  O   UNL     1       7.976  28.233  53.866  1.00  0.00    -0.271 OA
BRANCH  23  26
HETATM   26  C   UNL     1       6.734  28.617  56.488  1.00  0.00     0.052 A 
HETATM   27  C   UNL     1       6.071  29.842  56.505  1.00  0.00     0.145 A 
HETATM   28  N   UNL     1       6.300  30.820  57.420  1.00  0.00    -0.271 NA
HETATM   29  C   UNL     1       7.237  30.573  58.357  1.00  0.00     0.116 A 
HETATM   30  C   UNL     1       7.951  29.390  58.431  1.00  0.00     0.021 A 
HETATM   31  C   UNL     1       7.690  28.401  57.484  1.00  0.00     0.032 A 
ENDBRANCH  23  26
ENDBRANCH   1  22
TORSDOF 6
ENDMDL
MODEL 2
REMARK VINA RESULT:      -9.4      2.010      5.896
REMARK  6 active torsions:
REMARK  status: ('A' for Active; 'I' for Inactive)
REMARK    1  A    between atoms: C_8  and  C_9 
REMARK    2  A    between atoms: C_9  and  C_10 
REMARK    3  A    between atoms: C_10  and  N_11 
REMARK    4  A    between atoms: C_10  and  C_19 
REMARK       I    between atoms: N_11  and  C_12 
REMARK    5  A    between atoms: C_12  and  C_13 
REMARK       I    between atoms: C_19  and  N_20 
REMARK    6  A    between atoms: N_20  and  C_21 
ROOT
HETATM    1  C   UNL     1       7.514  25.943  55.000  1.00  0.00     0.181 C 
ENDROOT
BRANCH   1   2
HETATM    2  C   UNL     1       6.695  24.787  55.609  1.00  0.00     0.075 C 
BRANCH   2   3
HETATM    3  C   UNL     1       7.454  23.509  55.820  1.00  0.00    -0.028 A 
HETATM    4  C   UNL     1       7.750  22.520  54.824  1.00  0.00    -0.002 A 
HETATM    5  C   UNL     1       7.498  22.409  53.440  1.00  0.00     0.014 A 
HETATM    6  C   UNL     1       8.434  21.481  55.455  1.00  0.00     0.042 A 
HETATM    7  C   UNL     1       7.926  21.270  52.748  1.00  0.00     0.001 A 
HETATM    8  C   UNL     1       8.597  20.247  53.412  1.00  0.00     0.002 A 
HETATM    9  C   UNL     1       8.865  20.333  54.781  1.00  0.00     0.030 A 
HETATM   10  N   UNL     1       8.571  21.831  56.778  1.00  0.00    -0.365 N 
HETATM   11  H   UNL     1       9.031  21.265  57.477  1.00  0.00     0.165 HD
HETATM   12  C   UNL     1       8.003  23.055  57.004  1.00  0.00     0.096 A 
ENDBRANCH   2   3
ENDBRANCH   1   2
BRANCH   1  13
HETATM   13  N   UNL     1       7.261  27.216  55.678  1.00  0.00    -0.343 N 
HETATM   14  C   UNL     1       7.854  27.581  56.860  1.00  0.00     0.259 C 
HETATM   15  O   UNL     1       8.672  26.846  57.412  1.00  0.00    -0.267 OA
HETATM   16  H   UNL     1       6.673  27.888  55.192  1.00  0.00     0.163 HD
BRANCH  14  17
HETATM   17  C   UNL     1       7.436  28.861  57.413  1.00  0.00     0.072 A 
HETATM   18  S   UNL     1       6.067  29.714  56.829  1.00  0.00    -0.097 SA
HETATM   19  C   UNL     1       6.276  30.975  57.962  1.00  0.00     0.050 A 
HETATM   20  C   UNL     1       7.366  30.762  58.775  1.00  0.00     0.009 A 
HETATM   21  C   UNL     1       8.036  29.547  58.456  1.00  0.00     0.025 A 
ENDBRANCH  14  17
ENDBRANCH   1  13
BRANCH   1  22
HETATM   22  C   UNL     1       7.272  26.183  53.484  1.00  0.00     0.245 C 
HETATM   23  N   UNL     1       6.055  26.757  53.165  1.00  0.00    -0.324 N 
HETATM   24  H   UNL     1       5.490  27.111  53.924  1.00  0.00     0.169 HD
HETATM   25  O   UNL     1       8.116  25.825  52.660  1.00  0.00    -0.271 OA
BRANCH  23  26
HETATM   26  C   UNL     1       5.600  27.092  51.870  1.00  0.00     0.052 A 
HETATM   27  C   UNL     1       5.535  28.381  51.346  1.00  0.00     0.145 A 
HETATM   28  N   UNL     1       5.089  28.673  50.095  1.00  0.00    -0.271 NA
HETATM   29  C   UNL     1       4.682  27.637  49.334  1.00  0.00     0.116 A 
HETATM   30  C   UNL     1       4.707  26.321  49.759  1.00  0.00     0.021 A 
HETATM   31  C   UNL     1       5.177  26.049  51.042  1.00  0.00     0.032 A 
ENDBRANCH  23  26
ENDBRANCH   1  22
TORSDOF 6
ENDMDL
MODEL 3
REMARK VINA RESULT:      -9.3      2.557      7.250
REMARK  6 active torsions:
REMARK  status: ('A' for Active; 'I' for Inactive)
REMARK    1  A    between atoms: C_8  and  C_9 
REMARK    2  A    between atoms: C_9  and  C_10 
REMARK    3  A    between atoms: C_10  and  N_11 
REMARK    4  A    between atoms: C_10  and  C_19 
REMARK       I    between atoms: N_11  and  C_12 
REMARK    5  A    between atoms: C_12  and  C_13 
REMARK       I    between atoms: C_19  and  N_20 
REMARK    6  A    between atoms: N_20  and  C_21 
ROOT
HETATM    1  C   UNL     1       6.350  26.510  54.306  1.00  0.00     0.181 C 
ENDROOT
BRANCH   1   2
HETATM    2  C   UNL     1       7.517  27.479  54.581  1.00  0.00     0.075 C 
BRANCH   2   3
HETATM    3  C   UNL     1       7.491  28.146  55.926  1.00  0.00    -0.028 A 
HETATM    4  C   UNL     1       8.524  28.966  56.490  1.00  0.00    -0.002 A 
HETATM    5  C   UNL     1       9.780  29.421  56.035  1.00  0.00     0.014 A 
HETATM    6  C   UNL     1       8.107  29.345  57.766  1.00  0.00     0.042 A 
HETATM    7  C   UNL     1      10.569  30.222  56.869  1.00  0.00     0.001 A 
HETATM    8  C   UNL     1      10.126  30.573  58.141  1.00  0.00     0.002 A 
HETATM    9  C   UNL     1       8.885  30.141  58.615  1.00  0.00     0.030 A 
HETATM   10  N   UNL     1       6.861  28.800  57.964  1.00  0.00    -0.365 N 
HETATM   11  H   UNL     1       6.312  28.912  58.805  1.00  0.00     0.165 HD
HETATM   12  C   UNL     1       6.473  28.094  56.858  1.00  0.00     0.096 A 
ENDBRANCH   2   3
ENDBRANCH   1   2
BRANCH   1  13
HETATM   13  N   UNL     1       6.815  25.152  54.015  1.00  0.00    -0.343 N 
HETATM   14  C   UNL     1       6.886  24.153  54.952  1.00  0.00     0.259 C 
HETATM   15  O   UNL     1       6.527  24.346  56.113  1.00  0.00    -0.267 OA
HETATM   16  H   UNL     1       7.018  24.933  53.042  1.00  0.00     0.163 HD
BRANCH  14  17
HETATM   17  C   UNL     1       7.429  22.883  54.489  1.00  0.00     0.072 A 
HETATM   18  S   UNL     1       7.839  21.610  55.564  1.00  0.00    -0.097 SA
HETATM   19  C   UNL     1       8.322  20.587  54.285  1.00  0.00     0.050 A 
HETATM   20  C   UNL     1       8.180  21.193  53.057  1.00  0.00     0.009 A 
HETATM   21  C   UNL     1       7.669  22.517  53.176  1.00  0.00     0.025 A 
ENDBRANCH  14  17
ENDBRANCH   1  13
BRANCH   1  22
HETATM   22  C   UNL     1       5.418  26.928  53.136  1.00  0.00     0.245 C 
HETATM   23  N   UNL     1       5.982  26.847  51.875  1.00  0.00    -0.324 N 
HETATM   24  H   UNL     1       6.879  26.389  51.792  1.00  0.00     0.169 HD
HETATM   25  O   UNL     1       4.281  27.344  53.370  1.00  0.00    -0.271 OA
BRANCH  23  26
HETATM   26  C   UNL     1       5.346  27.152  50.652  1.00  0.00     0.052 A 
HETATM   27  C   UNL     1       5.283  28.414  50.066  1.00  0.00     0.145 A 
HETATM   28  N   UNL     1       4.660  28.677  48.887  1.00  0.00    -0.271 NA
HETATM   29  C   UNL     1       4.067  27.639  48.264  1.00  0.00     0.116 A 
HETATM   30  C   UNL     1       4.072  26.347  48.759  1.00  0.00     0.021 A 
HETATM   31  C   UNL     1       4.725  26.104  49.966  1.00  0.00     0.032 A 
ENDBRANCH  23  26
ENDBRANCH   1  22
TORSDOF 6
ENDMDL
MODEL 4
REMARK VINA RESULT:      -9.3      1.487      2.107
REMARK  6 active torsions:
REMARK  status: ('A' for Active; 'I' for Inactive)
REMARK    1  A    between atoms: C_8  and  C_9 
REMARK    2  A    between atoms: C_9  and  C_10 
REMARK    3  A    between atoms: C_10  and  N_11 
REMARK    4  A    between atoms: C_10  and  C_19 
REMARK       I    between atoms: N_11  and  C_12 
REMARK    5  A    between atoms: C_12  and  C_13 
REMARK       I    between atoms: C_19  and  N_20 
REMARK    6  A    between atoms: N_20  and  C_21 
ROOT
HETATM    1  C   UNL     1       6.482  25.204  53.377  1.00  0.00     0.181 C 
ENDROOT
BRANCH   1   2
HETATM    2  C   UNL     1       7.853  24.532  53.165  1.00  0.00     0.075 C 
BRANCH   2   3
HETATM    3  C   UNL     1       7.914  23.077  53.531  1.00  0.00    -0.028 A 
HETATM    4  C   UNL     1       8.078  22.537  54.850  1.00  0.00    -0.002 A 
HETATM    5  C   UNL     1       8.196  23.101  56.139  1.00  0.00     0.014 A 
HETATM    6  C   UNL     1       8.123  21.149  54.731  1.00  0.00     0.042 A 
HETATM    7  C   UNL     1       8.362  22.263  57.247  1.00  0.00     0.001 A 
HETATM    8  C   UNL     1       8.412  20.881  57.091  1.00  0.00     0.002 A 
HETATM    9  C   UNL     1       8.293  20.295  55.828  1.00  0.00     0.030 A 
HETATM   10  N   UNL     1       7.968  20.851  53.398  1.00  0.00    -0.365 N 
HETATM   11  H   UNL     1       7.958  19.915  53.016  1.00  0.00     0.165 HD
HETATM   12  C   UNL     1       7.823  22.001  52.671  1.00  0.00     0.096 A 
ENDBRANCH   2   3
ENDBRANCH   1   2
BRANCH   1  13
HETATM   13  N   UNL     1       6.145  26.128  52.292  1.00  0.00    -0.343 N 
HETATM   14  C   UNL     1       5.211  25.857  51.324  1.00  0.00     0.259 C 
HETATM   15  O   UNL     1       4.571  24.807  51.336  1.00  0.00    -0.267 OA
HETATM   16  H   UNL     1       6.579  27.047  52.317  1.00  0.00     0.163 HD
BRANCH  14  17
HETATM   17  C   UNL     1       5.052  26.872  50.292  1.00  0.00     0.072 A 
HETATM   18  S   UNL     1       5.297  28.543  50.597  1.00  0.00    -0.097 SA
HETATM   19  C   UNL     1       4.962  28.964  48.976  1.00  0.00     0.050 A 
HETATM   20  C   UNL     1       4.666  27.861  48.207  1.00  0.00     0.009 A 
HETATM   21  C   UNL     1       4.714  26.657  48.966  1.00  0.00     0.025 A 
ENDBRANCH  14  17
ENDBRANCH   1  13
BRANCH   1  22
HETATM   22  C   UNL     1       6.345  26.000  54.705  1.00  0.00     0.245 C 
HETATM   23  N   UNL     1       7.289  26.993  54.897  1.00  0.00    -0.324 N 
HETATM   24  H   UNL     1       7.887  27.228  54.116  1.00  0.00     0.169 HD
HETATM   25  O   UNL     1       5.471  25.697  55.519  1.00  0.00    -0.271 OA
BRANCH  23  26
HETATM   26  C   UNL     1       7.375  27.865  56.004  1.00  0.00     0.052 A 
HETATM   27  C   UNL     1       8.042  27.594  57.197  1.00  0.00     0.145 A 
HETATM   28  N   UNL     1       8.104  28.453  58.248  1.00  0.00    -0.271 NA
HETATM   29  C   UNL     1       7.469  29.634  58.110  1.00  0.00     0.116 A 
HETATM   30  C   UNL     1       6.780  30.003  56.968  1.00  0.00     0.021 A 
HETATM   31  C   UNL     1       6.739  29.106  55.902  1.00  0.00     0.032 A 
ENDBRANCH  23  26
ENDBRANCH   1  22
TORSDOF 6
ENDMDL
MODEL 5
REMARK VINA RESULT:      -9.1      1.643      2.053
REMARK  6 active torsions:
REMARK  status: ('A' for Active; 'I' for Inactive)
REMARK    1  A    between atoms: C_8  and  C_9 
REMARK    2  A    between atoms: C_9  and  C_10 
REMARK    3  A    between atoms: C_10  and  N_11 
REMARK    4  A    between atoms: C_10  and  C_19 
REMARK       I    between atoms: N_11  and  C_12 
REMARK    5  A    between atoms: C_12  and  C_13 
REMARK       I    between atoms: C_19  and  N_20 
REMARK    6  A    between atoms: N_20  and  C_21 
ROOT
HETATM    1  C   UNL     1       6.113  25.853  54.854  1.00  0.00     0.181 C 
ENDROOT
BRANCH   1   2
HETATM    2  C   UNL     1       7.604  25.523  55.071  1.00  0.00     0.075 C 
BRANCH   2   3
HETATM    3  C   UNL     1       7.886  24.133  55.561  1.00  0.00    -0.028 A 
HETATM    4  C   UNL     1       7.953  22.945  54.760  1.00  0.00    -0.002 A 
HETATM    5  C   UNL     1       7.824  22.677  53.380  1.00  0.00     0.014 A 
HETATM    6  C   UNL     1       8.197  21.874  55.620  1.00  0.00     0.042 A 
HETATM    7  C   UNL     1       7.935  21.361  52.918  1.00  0.00     0.001 A 
HETATM    8  C   UNL     1       8.169  20.315  53.805  1.00  0.00     0.002 A 
HETATM    9  C   UNL     1       8.305  20.551  55.176  1.00  0.00     0.030 A 
HETATM   10  N   UNL     1       8.300  22.389  56.890  1.00  0.00    -0.365 N 
HETATM   11  H   UNL     1       8.478  21.840  57.720  1.00  0.00     0.165 HD
HETATM   12  C   UNL     1       8.134  23.747  56.864  1.00  0.00     0.096 A 
ENDBRANCH   2   3
ENDBRANCH   1   2
BRANCH   1  13
HETATM   13  N   UNL     1       5.867  26.472  53.550  1.00  0.00    -0.343 N 
HETATM   14  C   UNL     1       5.167  25.865  52.538  1.00  0.00     0.259 C 
HETATM   15  O   UNL     1       4.673  24.749  52.691  1.00  0.00    -0.267 OA
HETATM   16  H   UNL     1       6.171  27.435  53.432  1.00  0.00     0.163 HD
BRANCH  14  17
HETATM   17  C   UNL     1       5.074  26.612  51.292  1.00  0.00     0.072 A 
HETATM   18  S   UNL     1       5.362  28.302  51.207  1.00  0.00    -0.097 SA
HETATM   19  C   UNL     1       5.092  28.338  49.520  1.00  0.00     0.050 A 
HETATM   20  C   UNL     1       4.786  27.092  49.020  1.00  0.00     0.009 A 
HETATM   21  C   UNL     1       4.771  26.100  50.042  1.00  0.00     0.025 A 
ENDBRANCH  14  17
ENDBRANCH   1  13
BRANCH   1  22
HETATM   22  C   UNL     1       5.492  26.793  55.924  1.00  0.00     0.245 C 
HETATM   23  N   UNL     1       5.512  28.140  55.608  1.00  0.00    -0.324 N 
HETATM   24  H   UNL     1       5.778  28.397  54.667  1.00  0.00     0.169 HD
HETATM   25  O   UNL     1       5.071  26.328  56.985  1.00  0.00    -0.271 OA
BRANCH  23  26
HETATM   26  C   UNL     1       4.999  29.193  56.396  1.00  0.00     0.052 A 
HETATM   27  C   UNL     1       5.685  29.848  57.416  1.00  0.00     0.145 A 
HETATM   28  N   UNL     1       5.163  30.858  58.161  1.00  0.00    -0.271 NA
HETATM   29  C   UNL     1       3.897  31.230  57.883  1.00  0.00     0.116 A 
HETATM   30  C   UNL     1       3.129  30.647  56.891  1.00  0.00     0.021 A 
HETATM   31  C   UNL     1       3.693  29.619  56.138  1.00  0.00     0.032 A 
ENDBRANCH  23  26
ENDBRANCH   1  22
TORSDOF 6
ENDMDL
MODEL 6
REMARK VINA RESULT:      -9.1      1.862      6.101
REMARK  6 active torsions:
REMARK  status: ('A' for Active; 'I' for Inactive)
REMARK    1  A    between atoms: C_8  and  C_9 
REMARK    2  A    between atoms: C_9  and  C_10 
REMARK    3  A    between atoms: C_10  and  N_11 
REMARK    4  A    between atoms: C_10  and  C_19 
REMARK       I    between atoms: N_11  and  C_12 
REMARK    5  A    between atoms: C_12  and  C_13 
REMARK       I    between atoms: C_19  and  N_20 
REMARK    6  A    between atoms: N_20  and  C_21 
ROOT
HETATM    1  C   UNL     1       6.346  26.056  53.285  1.00  0.00     0.181 C 
ENDROOT
BRANCH   1   2
HETATM    2  C   UNL     1       5.891  24.624  53.629  1.00  0.00     0.075 C 
BRANCH   2   3
HETATM    3  C   UNL     1       6.820  23.855  54.523  1.00  0.00    -0.028 A 
HETATM    4  C   UNL     1       7.505  22.638  54.194  1.00  0.00    -0.002 A 
HETATM    5  C   UNL     1       7.576  21.827  53.042  1.00  0.00     0.014 A 
HETATM    6  C   UNL     1       8.228  22.248  55.322  1.00  0.00     0.042 A 
HETATM    7  C   UNL     1       8.352  20.662  53.063  1.00  0.00     0.001 A 
HETATM    8  C   UNL     1       9.053  20.297  54.208  1.00  0.00     0.002 A 
HETATM    9  C   UNL     1       9.005  21.084  55.362  1.00  0.00     0.030 A 
HETATM   10  N   UNL     1       8.014  23.199  56.291  1.00  0.00    -0.365 N 
HETATM   11  H   UNL     1       8.417  23.177  57.217  1.00  0.00     0.165 HD
HETATM   12  C   UNL     1       7.185  24.179  55.815  1.00  0.00     0.096 A 
ENDBRANCH   2   3
ENDBRANCH   1   2
BRANCH   1  13
HETATM   13  N   UNL     1       6.408  26.916  54.468  1.00  0.00    -0.343 N 
HETATM   14  C   UNL     1       7.396  27.844  54.685  1.00  0.00     0.259 C 
HETATM   15  O   UNL     1       8.289  28.023  53.858  1.00  0.00    -0.267 OA
HETATM   16  H   UNL     1       5.627  26.865  55.117  1.00  0.00     0.163 HD
BRANCH  14  17
HETATM   17  C   UNL     1       7.325  28.566  55.947  1.00  0.00     0.072 A 
HETATM   18  S   UNL     1       6.175  29.808  56.234  1.00  0.00    -0.097 SA
HETATM   19  C   UNL     1       6.734  30.059  57.828  1.00  0.00     0.050 A 
HETATM   20  C   UNL     1       7.777  29.219  58.147  1.00  0.00     0.009 A 
HETATM   21  C   UNL     1       8.120  28.363  57.062  1.00  0.00     0.025 A 
ENDBRANCH  14  17
ENDBRANCH   1  13
BRANCH   1  22
HETATM   22  C   UNL     1       5.457  26.789  52.242  1.00  0.00     0.245 C 
HETATM   23  N   UNL     1       5.785  26.553  50.919  1.00  0.00    -0.324 N 
HETATM   24  H   UNL     1       6.456  25.823  50.726  1.00  0.00     0.169 HD
HETATM   25  O   UNL     1       4.568  27.555  52.619  1.00  0.00    -0.271 OA
BRANCH  23  26
HETATM   26  C   UNL     1       5.127  27.081  49.786  1.00  0.00     0.052 A 
HETATM   27  C   UNL     1       4.169  26.415  49.025  1.00  0.00     0.145 A 
HETATM   28  N   UNL     1       3.555  26.949  47.936  1.00  0.00    -0.271 NA
HETATM   29  C   UNL     1       3.916  28.199  47.583  1.00  0.00     0.116 A 
HETATM   30  C   UNL     1       4.855  28.947  48.271  1.00  0.00     0.021 A 
HETATM   31  C   UNL     1       5.463  28.378  49.389  1.00  0.00     0.032 A 
ENDBRANCH  23  26
ENDBRANCH   1  22
TORSDOF 6
ENDMDL
MODEL 7
REMARK VINA RESULT:      -8.9      1.750      5.932
REMARK  6 active torsions:
REMARK  status: ('A' for Active; 'I' for Inactive)
REMARK    1  A    between atoms: C_8  and  C_9 
REMARK    2  A    between atoms: C_9  and  C_10 
REMARK    3  A    between atoms: C_10  and  N_11 
REMARK    4  A    between atoms: C_10  and  C_19 
REMARK       I    between atoms: N_11  and  C_12 
REMARK    5  A    between atoms: C_12  and  C_13 
REMARK       I    between atoms: C_19  and  N_20 
REMARK    6  A    between atoms: N_20  and  C_21 
ROOT
HETATM    1  C   UNL     1       6.062  26.291  52.354  1.00  0.00     0.181 C 
ENDROOT
BRANCH   1   2
HETATM    2  C   UNL     1       5.161  26.607  53.565  1.00  0.00     0.075 C 
BRANCH   2   3
HETATM    3  C   UNL     1       5.568  27.808  54.368  1.00  0.00    -0.028 A 
HETATM    4  C   UNL     1       6.537  27.837  55.424  1.00  0.00    -0.002 A 
HETATM    5  C   UNL     1       7.387  26.874  56.010  1.00  0.00     0.014 A 
HETATM    6  C   UNL     1       6.575  29.140  55.921  1.00  0.00     0.042 A 
HETATM    7  C   UNL     1       8.228  27.245  57.066  1.00  0.00     0.001 A 
HETATM    8  C   UNL     1       8.233  28.551  57.544  1.00  0.00     0.002 A 
HETATM    9  C   UNL     1       7.406  29.527  56.980  1.00  0.00     0.030 A 
HETATM   10  N   UNL     1       5.684  29.882  55.183  1.00  0.00    -0.365 N 
HETATM   11  H   UNL     1       5.504  30.866  55.322  1.00  0.00     0.165 HD
HETATM   12  C   UNL     1       5.088  29.096  54.235  1.00  0.00     0.096 A 
ENDBRANCH   2   3
ENDBRANCH   1   2
BRANCH   1  13
HETATM   13  N   UNL     1       5.286  26.047  51.136  1.00  0.00    -0.343 N 
HETATM   14  C   UNL     1       5.015  27.012  50.199  1.00  0.00     0.259 C 
HETATM   15  O   UNL     1       5.445  28.157  50.326  1.00  0.00    -0.267 OA
HETATM   16  H   UNL     1       5.008  25.086  50.952  1.00  0.00     0.163 HD
BRANCH  14  17
HETATM   17  C   UNL     1       4.179  26.596  49.082  1.00  0.00     0.072 A 
HETATM   18  S   UNL     1       3.586  27.704  47.913  1.00  0.00    -0.097 SA
HETATM   19  C   UNL     1       2.800  26.469  47.033  1.00  0.00     0.050 A 
HETATM   20  C   UNL     1       2.977  25.231  47.610  1.00  0.00     0.009 A 
HETATM   21  C   UNL     1       3.768  25.306  48.792  1.00  0.00     0.025 A 
ENDBRANCH  14  17
ENDBRANCH   1  13
BRANCH   1  22
HETATM   22  C   UNL     1       7.001  25.068  52.543  1.00  0.00     0.245 C 
HETATM   23  N   UNL     1       6.676  24.232  53.596  1.00  0.00    -0.324 N 
HETATM   24  H   UNL     1       5.790  24.383  54.058  1.00  0.00     0.169 HD
HETATM   25  O   UNL     1       7.982  24.925  51.811  1.00  0.00    -0.271 OA
BRANCH  23  26
HETATM   26  C   UNL     1       7.355  23.051  53.969  1.00  0.00     0.052 A 
HETATM   27  C   UNL     1       7.828  22.760  55.246  1.00  0.00     0.145 A 
HETATM   28  N   UNL     1       8.481  21.614  55.575  1.00  0.00    -0.271 NA
HETATM   29  C   UNL     1       8.680  20.720  54.586  1.00  0.00     0.116 A 
HETATM   30  C   UNL     1       8.249  20.910  53.285  1.00  0.00     0.021 A 
HETATM   31  C   UNL     1       7.575  22.090  52.978  1.00  0.00     0.032 A 
ENDBRANCH  23  26
ENDBRANCH   1  22
TORSDOF 6
ENDMDL
MODEL 8
REMARK VINA RESULT:      -8.9      2.688      6.242
REMARK  6 active torsions:
REMARK  status: ('A' for Active; 'I' for Inactive)
REMARK    1  A    between atoms: C_8  and  C_9 
REMARK    2  A    between atoms: C_9  and  C_10 
REMARK    3  A    between atoms: C_10  and  N_11 
REMARK    4  A    between atoms: C_10  and  C_19 
REMARK       I    between atoms: N_11  and  C_12 
REMARK    5  A    between atoms: C_12  and  C_13 
REMARK       I    between atoms: C_19  and  N_20 
REMARK    6  A    between atoms: N_20  and  C_21 
ROOT
HETATM    1  C   UNL     1       7.320  26.464  55.452  1.00  0.00     0.181 C 
ENDROOT
BRANCH   1   2
HETATM    2  C   UNL     1       5.813  26.746  55.283  1.00  0.00     0.075 C 
BRANCH   2   3
HETATM    3  C   UNL     1       5.456  27.641  54.132  1.00  0.00    -0.028 A 
HETATM    4  C   UNL     1       5.283  27.242  52.766  1.00  0.00    -0.002 A 
HETATM    5  C   UNL     1       5.345  26.008  52.083  1.00  0.00     0.014 A 
HETATM    6  C   UNL     1       4.998  28.390  52.027  1.00  0.00     0.042 A 
HETATM    7  C   UNL     1       5.131  25.971  50.700  1.00  0.00     0.001 A 
HETATM    8  C   UNL     1       4.858  27.137  49.993  1.00  0.00     0.002 A 
HETATM    9  C   UNL     1       4.786  28.372  50.643  1.00  0.00     0.030 A 
HETATM   10  N   UNL     1       4.974  29.444  52.909  1.00  0.00    -0.365 N 
HETATM   11  H   UNL     1       4.788  30.404  52.653  1.00  0.00     0.165 HD
HETATM   12  C   UNL     1       5.229  29.003  54.179  1.00  0.00     0.096 A 
ENDBRANCH   2   3
ENDBRANCH   1   2
BRANCH   1  13
HETATM   13  N   UNL     1       7.586  25.062  55.781  1.00  0.00    -0.343 N 
HETATM   14  C   UNL     1       7.949  24.118  54.854  1.00  0.00     0.259 C 
HETATM   15  O   UNL     1       8.100  24.417  53.670  1.00  0.00    -0.267 OA
HETATM   16  H   UNL     1       7.573  24.809  56.765  1.00  0.00     0.163 HD
BRANCH  14  17
HETATM   17  C   UNL     1       8.116  22.762  55.358  1.00  0.00     0.072 A 
HETATM   18  S   UNL     1       8.051  21.385  54.337  1.00  0.00    -0.097 SA
HETATM   19  C   UNL     1       8.351  20.316  55.635  1.00  0.00     0.050 A 
HETATM   20  C   UNL     1       8.498  20.984  56.830  1.00  0.00     0.009 A 
HETATM   21  C   UNL     1       8.359  22.392  56.670  1.00  0.00     0.025 A 
ENDBRANCH  14  17
ENDBRANCH   1  13
BRANCH   1  22
HETATM   22  C   UNL     1       8.026  27.323  56.537  1.00  0.00     0.245 C 
HETATM   23  N   UNL     1       8.322  28.621  56.161  1.00  0.00    -0.324 N 
HETATM   24  H   UNL     1       7.931  28.957  55.292  1.00  0.00     0.169 HD
HETATM   25  O   UNL     1       8.326  26.822  57.623  1.00  0.00    -0.271 OA
BRANCH  23  26
HETATM   26  C   UNL     1       8.942  29.605  56.962  1.00  0.00     0.052 A 
HETATM   27  C   UNL     1      10.259  30.040  56.831  1.00  0.00     0.145 A 
HETATM   28  N   UNL     1      10.830  30.988  57.620  1.00  0.00    -0.271 NA
HETATM   29  C   UNL     1      10.059  31.523  58.589  1.00  0.00     0.116 A 
HETATM   30  C   UNL     1       8.740  31.162  58.802  1.00  0.00     0.021 A 
HETATM   31  C   UNL     1       8.178  30.194  57.973  1.00  0.00     0.032 A 
ENDBRANCH  23  26
ENDBRANCH   1  22
TORSDOF 6
ENDMDL
MODEL 9
REMARK VINA RESULT:      -8.9      2.589      6.055
REMARK  6 active torsions:
REMARK  status: ('A' for Active; 'I' for Inactive)
REMARK    1  A    between atoms: C_8  and  C_9 
REMARK    2  A    between atoms: C_9  and  C_10 
REMARK    3  A    between atoms: C_10  and  N_11 
REMARK    4  A    between atoms: C_10  and  C_19 
REMARK       I    between atoms: N_11  and  C_12 
REMARK    5  A    between atoms: C_12  and  C_13 
REMARK       I    between atoms: C_19  and  N_20 
REMARK    6  A    between atoms: N_20  and  C_21 
ROOT
HETATM    1  C   UNL     1       7.305  26.586  55.031  1.00  0.00     0.181 C 
ENDROOT
BRANCH   1   2
HETATM    2  C   UNL     1       7.146  25.124  55.494  1.00  0.00     0.075 C 
BRANCH   2   3
HETATM    3  C   UNL     1       7.516  24.087  54.474  1.00  0.00    -0.028 A 
HETATM    4  C   UNL     1       7.825  22.710  54.733  1.00  0.00    -0.002 A 
HETATM    5  C   UNL     1       7.861  21.909  55.894  1.00  0.00     0.014 A 
HETATM    6  C   UNL     1       8.152  22.119  53.513  1.00  0.00     0.042 A 
HETATM    7  C   UNL     1       8.227  20.562  55.794  1.00  0.00     0.001 A 
HETATM    8  C   UNL     1       8.556  20.006  54.562  1.00  0.00     0.002 A 
HETATM    9  C   UNL     1       8.525  20.774  53.395  1.00  0.00     0.030 A 
HETATM   10  N   UNL     1       8.025  23.087  52.545  1.00  0.00    -0.365 N 
HETATM   11  H   UNL     1       8.197  22.940  51.560  1.00  0.00     0.165 HD
HETATM   12  C   UNL     1       7.625  24.268  53.109  1.00  0.00     0.096 A 
ENDBRANCH   2   3
ENDBRANCH   1   2
BRANCH   1  13
HETATM   13  N   UNL     1       7.618  27.487  56.142  1.00  0.00    -0.343 N 
HETATM   14  C   UNL     1       8.374  28.625  56.011  1.00  0.00     0.259 C 
HETATM   15  O   UNL     1       8.818  28.968  54.916  1.00  0.00    -0.267 OA
HETATM   16  H   UNL     1       7.177  27.287  57.036  1.00  0.00     0.163 HD
BRANCH  14  17
HETATM   17  C   UNL     1       8.628  29.365  57.239  1.00  0.00     0.072 A 
HETATM   18  S   UNL     1      10.086  30.228  57.510  1.00  0.00    -0.097 SA
HETATM   19  C   UNL     1       9.566  30.772  59.043  1.00  0.00     0.050 A 
HETATM   20  C   UNL     1       8.307  30.310  59.355  1.00  0.00     0.009 A 
HETATM   21  C   UNL     1       7.769  29.496  58.317  1.00  0.00     0.025 A 
ENDBRANCH  14  17
ENDBRANCH   1  13
BRANCH   1  22
HETATM   22  C   UNL     1       6.065  27.178  54.306  1.00  0.00     0.245 C 
HETATM   23  N   UNL     1       6.329  27.802  53.100  1.00  0.00    -0.324 N 
HETATM   24  H   UNL     1       7.256  27.696  52.711  1.00  0.00     0.169 HD
HETATM   25  O   UNL     1       4.953  27.115  54.834  1.00  0.00    -0.271 OA
BRANCH  23  26
HETATM   26  C   UNL     1       5.382  28.403  52.242  1.00  0.00     0.052 A 
HETATM   27  C   UNL     1       4.720  29.604  52.483  1.00  0.00     0.145 A 
HETATM   28  N   UNL     1       3.810  30.157  51.638  1.00  0.00    -0.271 NA
HETATM   29  C   UNL     1       3.540  29.479  50.504  1.00  0.00     0.116 A 
HETATM   30  C   UNL     1       4.142  28.280  50.168  1.00  0.00     0.021 A 
HETATM   31  C   UNL     1       5.077  27.740  51.049  1.00  0.00     0.032 A 
ENDBRANCH  23  26
ENDBRANCH   1  22
TORSDOF 6
ENDMDL
MODEL 10
REMARK VINA RESULT:      -8.8      2.863      7.251
REMARK  6 active torsions:
REMARK  status: ('A' for Active; 'I' for Inactive)
REMARK    1  A    between atoms: C_8  and  C_9 
REMARK    2  A    between atoms: C_9  and  C_10 
REMARK    3  A    between atoms: C_10  and  N_11 
REMARK    4  A    between atoms: C_10  and  C_19 
REMARK       I    between atoms: N_11  and  C_12 
REMARK    5  A    between atoms: C_12  and  C_13 
REMARK       I    between atoms: C_19  and  N_20 
REMARK    6  A    between atoms: N_20  and  C_21 
ROOT
HETATM    1  C   UNL     1       6.006  26.865  56.927  1.00  0.00     0.181 C 
ENDROOT
BRANCH   1   2
HETATM    2  C   UNL     1       4.937  27.592  56.087  1.00  0.00     0.075 C 
BRANCH   2   3
HETATM    3  C   UNL     1       5.313  27.850  54.657  1.00  0.00    -0.028 A 
HETATM    4  C   UNL     1       5.175  26.934  53.562  1.00  0.00    -0.002 A 
HETATM    5  C   UNL     1       4.668  25.624  53.430  1.00  0.00     0.014 A 
HETATM    6  C   UNL     1       5.682  27.563  52.425  1.00  0.00     0.042 A 
HETATM    7  C   UNL     1       4.695  24.994  52.180  1.00  0.00     0.001 A 
HETATM    8  C   UNL     1       5.217  25.647  51.068  1.00  0.00     0.002 A 
HETATM    9  C   UNL     1       5.722  26.946  51.168  1.00  0.00     0.030 A 
HETATM   10  N   UNL     1       6.091  28.819  52.804  1.00  0.00    -0.365 N 
HETATM   11  H   UNL     1       6.500  29.502  52.181  1.00  0.00     0.165 HD
HETATM   12  C   UNL     1       5.856  29.009  54.139  1.00  0.00     0.096 A 
ENDBRANCH   2   3
ENDBRANCH   1   2
BRANCH   1  13
HETATM   13  N   UNL     1       7.263  27.612  56.990  1.00  0.00    -0.343 N 
HETATM   14  C   UNL     1       7.383  28.855  57.560  1.00  0.00     0.259 C 
HETATM   15  O   UNL     1       6.418  29.406  58.087  1.00  0.00    -0.267 OA
HETATM   16  H   UNL     1       8.099  27.138  56.658  1.00  0.00     0.163 HD
BRANCH  14  17
HETATM   17  C   UNL     1       8.701  29.468  57.477  1.00  0.00     0.072 A 
HETATM   18  S   UNL     1       9.129  30.858  58.389  1.00  0.00    -0.097 SA
HETATM   19  C   UNL     1      10.717  30.872  57.759  1.00  0.00     0.050 A 
HETATM   20  C   UNL     1      10.928  29.844  56.869  1.00  0.00     0.009 A 
HETATM   21  C   UNL     1       9.766  29.038  56.704  1.00  0.00     0.025 A 
ENDBRANCH  14  17
ENDBRANCH   1  13
BRANCH   1  22
HETATM   22  C   UNL     1       6.357  25.433  56.435  1.00  0.00     0.245 C 
HETATM   23  N   UNL     1       7.511  25.336  55.679  1.00  0.00    -0.324 N 
HETATM   24  H   UNL     1       8.110  26.149  55.632  1.00  0.00     0.169 HD
HETATM   25  O   UNL     1       5.601  24.492  56.684  1.00  0.00    -0.271 OA
BRANCH  23  26
HETATM   26  C   UNL     1       8.057  24.155  55.130  1.00  0.00     0.052 A 
HETATM   27  C   UNL     1       8.859  23.242  55.812  1.00  0.00     0.145 A 
HETATM   28  N   UNL     1       9.373  22.114  55.255  1.00  0.00    -0.271 NA
HETATM   29  C   UNL     1       9.082  21.886  53.958  1.00  0.00     0.116 A 
HETATM   30  C   UNL     1       8.295  22.727  53.192  1.00  0.00     0.021 A 
HETATM   31  C   UNL     1       7.775  23.873  53.790  1.00  0.00     0.032 A 
ENDBRANCH  23  26
ENDBRANCH   1  22
TORSDOF 6
ENDMDL
