MODEL 1
REMARK VINA RESULT:      -9.5      0.000      0.000
REMARK  4 active torsions:
REMARK  status: ('A' for Active; 'I' for Inactive)
REMARK    1  A    between atoms: C_6  and  C_7 
REMARK    2  A    between atoms: C_10  and  O_11 
REMARK    3  A    between atoms: C_15  and  C_16 
REMARK       I    between atoms: C_16  and  N_17 
REMARK    4  A    between atoms: N_17  and  C_18 
ROOT
HETATM    1  C   UNL     1       4.377  28.786  55.063  1.00  0.00     0.001 A 
HETATM    2  C   UNL     1       4.702  28.194  53.845  1.00  0.00     0.015 A 
HETATM    3  C   UNL     1       5.263  26.891  53.791  1.00  0.00     0.008 A 
HETATM    4  C   UNL     1       5.528  26.215  54.994  1.00  0.00     0.068 A 
HETATM    5  N   UNL     1       6.108  25.003  55.042  1.00  0.00    -0.248 NA
HETATM    6  C   UNL     1       6.497  24.388  53.897  1.00  0.00     0.068 A 
HETATM    7  C   UNL     1       6.251  24.959  52.662  1.00  0.00     0.050 A 
HETATM    8  C   UNL     1       5.613  26.200  52.611  1.00  0.00     0.046 A 
HETATM    9  C   UNL     1       5.188  26.824  56.194  1.00  0.00     0.032 A 
HETATM   10  C   UNL     1       4.613  28.096  56.243  1.00  0.00     0.002 A 
ENDROOT
BRANCH   6  11
HETATM   11  C   UNL     1       7.184  23.089  54.070  1.00  0.00    -0.007 A 
HETATM   12  C   UNL     1       7.632  22.358  52.950  1.00  0.00     0.016 A 
HETATM   13  C   UNL     1       8.271  21.121  53.087  1.00  0.00     0.037 A 
HETATM   14  C   UNL     1       8.468  20.592  54.355  1.00  0.00     0.065 A 
HETATM   15  C   UNL     1       8.039  21.280  55.481  1.00  0.00     0.037 A 
HETATM   16  C   UNL     1       7.399  22.517  55.339  1.00  0.00     0.016 A 
BRANCH  14  17
HETATM   17  O   UNL     1       9.077  19.387  54.539  1.00  0.00    -0.361 OA
HETATM   18  H   UNL     1       9.897  19.374  54.020  1.00  0.00     0.217 HD
ENDBRANCH  14  17
ENDBRANCH   6  11
BRANCH   8  19
HETATM   19  C   UNL     1       5.333  26.725  51.255  1.00  0.00     0.253 C 
HETATM   20  N   UNL     1       4.639  25.869  50.422  1.00  0.00    -0.352 N 
HETATM   21  H   UNL     1       4.418  24.936  50.748  1.00  0.00     0.163 HD
HETATM   22  O   UNL     1       5.771  27.820  50.927  1.00  0.00    -0.268 OA
BRANCH  20  23
HETATM   23  C   UNL     1       4.350  26.200  49.063  1.00  0.00     0.084 A 
HETATM   24  C   UNL     1       3.266  25.475  48.313  1.00  0.00     0.027 A 
HETATM   25  C   UNL     1       3.075  26.912  48.704  1.00  0.00     0.027 A 
ENDBRANCH  20  23
ENDBRANCH   8  19
TORSDOF 4
ENDMDL
MODEL 2
REMARK VINA RESULT:      -9.4      2.521      4.842
REMARK  4 active torsions:
REMARK  status: ('A' for Active; 'I' for Inactive)
REMARK    1  A    between atoms: C_6  and  C_7 
REMARK    2  A    between atoms: C_10  and  O_11 
REMARK    3  A    between atoms: C_15  and  C_16 
REMARK       I    between atoms: C_16  and  N_17 
REMARK    4  A    between atoms: N_17  and  C_18 
ROOT
HETATM    1  C   UNL     1       4.844  28.271  51.241  1.00  0.00     0.001 A 
HETATM    2  C   UNL     1       5.493  28.186  52.471  1.00  0.00     0.015 A 
HETATM    3  C   UNL     1       6.102  26.977  52.896  1.00  0.00     0.008 A 
HETATM    4  C   UNL     1       6.005  25.841  52.074  1.00  0.00     0.068 A 
HETATM    5  N   UNL     1       6.502  24.641  52.419  1.00  0.00    -0.248 NA
HETATM    6  C   UNL     1       7.103  24.473  53.623  1.00  0.00     0.068 A 
HETATM    7  C   UNL     1       7.275  25.538  54.489  1.00  0.00     0.050 A 
HETATM    8  C   UNL     1       6.794  26.794  54.113  1.00  0.00     0.046 A 
HETATM    9  C   UNL     1       5.358  25.953  50.850  1.00  0.00     0.032 A 
HETATM   10  C   UNL     1       4.783  27.152  50.423  1.00  0.00     0.002 A 
ENDROOT
BRANCH   6  11
HETATM   11  C   UNL     1       7.554  23.097  53.928  1.00  0.00    -0.007 A 
HETATM   12  C   UNL     1       7.611  22.638  55.260  1.00  0.00     0.016 A 
HETATM   13  C   UNL     1       8.048  21.346  55.574  1.00  0.00     0.037 A 
HETATM   14  C   UNL     1       8.439  20.492  54.553  1.00  0.00     0.065 A 
HETATM   15  C   UNL     1       8.399  20.908  53.229  1.00  0.00     0.037 A 
HETATM   16  C   UNL     1       7.962  22.202  52.920  1.00  0.00     0.016 A 
BRANCH  14  17
HETATM   17  O   UNL     1       8.879  19.228  54.809  1.00  0.00    -0.361 OA
HETATM   18  H   UNL     1       8.208  18.769  55.339  1.00  0.00     0.217 HD
ENDBRANCH  14  17
ENDBRANCH   6  11
BRANCH   8  19
HETATM   19  C   UNL     1       7.062  27.897  55.063  1.00  0.00     0.253 C 
HETATM   20  N   UNL     1       8.351  28.392  55.046  1.00  0.00    -0.352 N 
HETATM   21  H   UNL     1       9.040  27.950  54.449  1.00  0.00     0.163 HD
HETATM   22  O   UNL     1       6.182  28.258  55.835  1.00  0.00    -0.268 OA
BRANCH  20  23
HETATM   23  C   UNL     1       8.786  29.410  55.948  1.00  0.00     0.084 A 
HETATM   24  C   UNL     1       9.556  29.054  57.191  1.00  0.00     0.027 A 
HETATM   25  C   UNL     1      10.243  29.763  56.060  1.00  0.00     0.027 A 
ENDBRANCH  20  23
ENDBRANCH   8  19
TORSDOF 4
ENDMDL
MODEL 3
REMARK VINA RESULT:      -9.0      1.656      2.196
REMARK  4 active torsions:
REMARK  status: ('A' for Active; 'I' for Inactive)
REMARK    1  A    between atoms: C_6  and  C_7 
REMARK    2  A    between atoms: C_10  and  O_11 
REMARK    3  A    between atoms: C_15  and  C_16 
REMARK       I    between atoms: C_16  and  N_17 
REMARK    4  A    between atoms: N_17  and  C_18 
ROOT
HETATM    1  C   UNL     1       6.707  29.296  56.532  1.00  0.00     0.001 A 
HETATM    2  C   UNL     1       6.184  28.641  55.420  1.00  0.00     0.015 A 
HETATM    3  C   UNL     1       6.424  27.259  55.203  1.00  0.00     0.008 A 
HETATM    4  C   UNL     1       7.239  26.561  56.111  1.00  0.00     0.068 A 
HETATM    5  N   UNL     1       7.565  25.266  55.957  1.00  0.00    -0.248 NA
HETATM    6  C   UNL     1       7.133  24.578  54.871  1.00  0.00     0.068 A 
HETATM    7  C   UNL     1       6.300  25.169  53.938  1.00  0.00     0.050 A 
HETATM    8  C   UNL     1       5.928  26.503  54.119  1.00  0.00     0.046 A 
HETATM    9  C   UNL     1       7.742  27.235  57.215  1.00  0.00     0.032 A 
HETATM   10  C   UNL     1       7.483  28.589  57.439  1.00  0.00     0.002 A 
ENDROOT
BRANCH   6  11
HETATM   11  C   UNL     1       7.605  23.180  54.769  1.00  0.00    -0.007 A 
HETATM   12  C   UNL     1       7.969  22.457  55.924  1.00  0.00     0.016 A 
HETATM   13  C   UNL     1       8.433  21.139  55.851  1.00  0.00     0.037 A 
HETATM   14  C   UNL     1       8.543  20.523  54.613  1.00  0.00     0.065 A 
HETATM   15  C   UNL     1       8.197  21.202  53.453  1.00  0.00     0.037 A 
HETATM   16  C   UNL     1       7.735  22.521  53.531  1.00  0.00     0.016 A 
BRANCH  14  17
HETATM   17  O   UNL     1       8.996  19.244  54.490  1.00  0.00    -0.361 OA
HETATM   18  H   UNL     1       8.238  18.662  54.323  1.00  0.00     0.217 HD
ENDBRANCH  14  17
ENDBRANCH   6  11
BRANCH   8  19
HETATM   19  C   UNL     1       4.993  27.053  53.112  1.00  0.00     0.253 C 
HETATM   20  N   UNL     1       5.451  27.039  51.809  1.00  0.00    -0.352 N 
HETATM   21  H   UNL     1       6.395  26.722  51.623  1.00  0.00     0.163 HD
HETATM   22  O   UNL     1       3.928  27.536  53.475  1.00  0.00    -0.268 OA
BRANCH  20  23
HETATM   23  C   UNL     1       4.696  27.595  50.732  1.00  0.00     0.084 A 
HETATM   24  C   UNL     1       5.390  28.245  49.566  1.00  0.00     0.027 A 
HETATM   25  C   UNL     1       4.687  26.932  49.383  1.00  0.00     0.027 A 
ENDBRANCH  20  23
ENDBRANCH   8  19
TORSDOF 4
ENDMDL
MODEL 4
REMARK VINA RESULT:      -8.5      4.068      7.699
REMARK  4 active torsions:
REMARK  status: ('A' for Active; 'I' for Inactive)
REMARK    1  A    between atoms: C_6  and  C_7 
REMARK    2  A    between atoms: C_10  and  O_11 
REMARK    3  A    between atoms: C_15  and  C_16 
REMARK       I    between atoms: C_16  and  N_17 
REMARK    4  A    between atoms: N_17  and  C_18 
ROOT
HETATM    1  C   UNL     1       5.992  24.524  53.264  1.00  0.00     0.001 A 
HETATM    2  C   UNL     1       6.773  24.279  54.392  1.00  0.00     0.015 A 
HETATM    3  C   UNL     1       7.259  25.346  55.192  1.00  0.00     0.008 A 
HETATM    4  C   UNL     1       6.976  26.668  54.807  1.00  0.00     0.068 A 
HETATM    5  N   UNL     1       7.440  27.740  55.471  1.00  0.00    -0.248 NA
HETATM    6  C   UNL     1       8.247  27.578  56.549  1.00  0.00     0.068 A 
HETATM    7  C   UNL     1       8.557  26.317  57.024  1.00  0.00     0.050 A 
HETATM    8  C   UNL     1       8.042  25.203  56.358  1.00  0.00     0.046 A 
HETATM    9  C   UNL     1       6.190  26.884  53.683  1.00  0.00     0.032 A 
HETATM   10  C   UNL     1       5.693  25.832  52.913  1.00  0.00     0.002 A 
ENDROOT
BRANCH   6  11
HETATM   11  C   UNL     1       8.753  28.825  57.164  1.00  0.00    -0.007 A 
HETATM   12  C   UNL     1      10.024  29.331  56.821  1.00  0.00     0.016 A 
HETATM   13  C   UNL     1      10.530  30.500  57.399  1.00  0.00     0.037 A 
HETATM   14  C   UNL     1       9.768  31.182  58.337  1.00  0.00     0.065 A 
HETATM   15  C   UNL     1       8.514  30.714  58.702  1.00  0.00     0.037 A 
HETATM   16  C   UNL     1       8.012  29.544  58.122  1.00  0.00     0.016 A 
BRANCH  14  17
HETATM   17  O   UNL     1      10.221  32.320  58.934  1.00  0.00    -0.361 OA
HETATM   18  H   UNL     1      10.325  33.005  58.255  1.00  0.00     0.217 HD
ENDBRANCH  14  17
ENDBRANCH   6  11
BRANCH   8  19
HETATM   19  C   UNL     1       8.369  23.888  56.954  1.00  0.00     0.253 C 
HETATM   20  N   UNL     1       8.158  22.797  56.133  1.00  0.00    -0.352 N 
HETATM   21  H   UNL     1       7.747  22.942  55.219  1.00  0.00     0.163 HD
HETATM   22  O   UNL     1       8.732  23.826  58.122  1.00  0.00    -0.268 OA
BRANCH  20  23
HETATM   23  C   UNL     1       8.362  21.457  56.582  1.00  0.00     0.084 A 
HETATM   24  C   UNL     1       7.610  20.316  55.953  1.00  0.00     0.027 A 
HETATM   25  C   UNL     1       9.085  20.462  55.719  1.00  0.00     0.027 A 
ENDBRANCH  20  23
ENDBRANCH   8  19
TORSDOF 4
ENDMDL
MODEL 5
REMARK VINA RESULT:      -8.4      4.081      6.716
REMARK  4 active torsions:
REMARK  status: ('A' for Active; 'I' for Inactive)
REMARK    1  A    between atoms: C_6  and  C_7 
REMARK    2  A    between atoms: C_10  and  O_11 
REMARK    3  A    between atoms: C_15  and  C_16 
REMARK       I    between atoms: C_16  and  N_17 
REMARK    4  A    between atoms: N_17  and  C_18 
ROOT
HETATM    1  C   UNL     1       7.545  22.834  55.768  1.00  0.00     0.001 A 
HETATM    2  C   UNL     1       7.108  24.000  55.144  1.00  0.00     0.015 A 
HETATM    3  C   UNL     1       7.510  25.277  55.615  1.00  0.00     0.008 A 
HETATM    4  C   UNL     1       8.327  25.355  56.755  1.00  0.00     0.068 A 
HETATM    5  N   UNL     1       8.711  26.520  57.303  1.00  0.00    -0.248 NA
HETATM    6  C   UNL     1       8.283  27.695  56.779  1.00  0.00     0.068 A 
HETATM    7  C   UNL     1       7.501  27.723  55.639  1.00  0.00     0.050 A 
HETATM    8  C   UNL     1       7.135  26.513  55.045  1.00  0.00     0.046 A 
HETATM    9  C   UNL     1       8.755  24.178  57.354  1.00  0.00     0.032 A 
HETATM   10  C   UNL     1       8.379  22.922  56.873  1.00  0.00     0.002 A 
ENDROOT
BRANCH   6  11
HETATM   11  C   UNL     1       8.711  28.914  57.501  1.00  0.00    -0.007 A 
HETATM   12  C   UNL     1       9.932  29.545  57.184  1.00  0.00     0.016 A 
HETATM   13  C   UNL     1      10.366  30.690  57.862  1.00  0.00     0.037 A 
HETATM   14  C   UNL     1       9.581  31.219  58.876  1.00  0.00     0.065 A 
HETATM   15  C   UNL     1       8.374  30.625  59.219  1.00  0.00     0.037 A 
HETATM   16  C   UNL     1       7.945  29.479  58.538  1.00  0.00     0.016 A 
BRANCH  14  17
HETATM   17  O   UNL     1       9.964  32.327  59.571  1.00  0.00    -0.361 OA
HETATM   18  H   UNL     1       9.977  33.083  58.963  1.00  0.00     0.217 HD
ENDBRANCH  14  17
ENDBRANCH   6  11
BRANCH   8  19
HETATM   19  C   UNL     1       6.344  26.621  53.798  1.00  0.00     0.253 C 
HETATM   20  N   UNL     1       5.146  27.300  53.914  1.00  0.00    -0.352 N 
HETATM   21  H   UNL     1       4.851  27.624  54.827  1.00  0.00     0.163 HD
HETATM   22  O   UNL     1       6.740  26.069  52.780  1.00  0.00    -0.268 OA
BRANCH  20  23
HETATM   23  C   UNL     1       4.239  27.431  52.819  1.00  0.00     0.084 A 
HETATM   24  C   UNL     1       3.322  28.620  52.725  1.00  0.00     0.027 A 
HETATM   25  C   UNL     1       4.463  28.475  51.761  1.00  0.00     0.027 A 
ENDBRANCH  20  23
ENDBRANCH   8  19
TORSDOF 4
ENDMDL
MODEL 6
REMARK VINA RESULT:      -8.0      8.409     10.957
REMARK  4 active torsions:
REMARK  status: ('A' for Active; 'I' for Inactive)
REMARK    1  A    between atoms: C_6  and  C_7 
REMARK    2  A    between atoms: C_10  and  O_11 
REMARK    3  A    between atoms: C_15  and  C_16 
REMARK       I    between atoms: C_16  and  N_17 
REMARK    4  A    between atoms: N_17  and  C_18 
ROOT
HETATM    1  C   UNL     1       6.101  33.944  64.462  1.00  0.00     0.001 A 
HETATM    2  C   UNL     1       5.518  33.809  63.203  1.00  0.00     0.015 A 
HETATM    3  C   UNL     1       6.182  33.113  62.160  1.00  0.00     0.008 A 
HETATM    4  C   UNL     1       7.465  32.592  62.400  1.00  0.00     0.068 A 
HETATM    5  N   UNL     1       8.191  31.968  61.457  1.00  0.00    -0.248 NA
HETATM    6  C   UNL     1       7.708  31.844  60.195  1.00  0.00     0.068 A 
HETATM    7  C   UNL     1       6.442  32.296  59.869  1.00  0.00     0.050 A 
HETATM    8  C   UNL     1       5.672  32.910  60.860  1.00  0.00     0.046 A 
HETATM    9  C   UNL     1       8.020  32.734  63.664  1.00  0.00     0.032 A 
HETATM   10  C   UNL     1       7.354  33.398  64.696  1.00  0.00     0.002 A 
ENDROOT
BRANCH   6  11
HETATM   11  C   UNL     1       8.616  31.199  59.222  1.00  0.00    -0.007 A 
HETATM   12  C   UNL     1       9.846  31.798  58.879  1.00  0.00     0.016 A 
HETATM   13  C   UNL     1      10.715  31.215  57.950  1.00  0.00     0.037 A 
HETATM   14  C   UNL     1      10.362  30.017  57.345  1.00  0.00     0.065 A 
HETATM   15  C   UNL     1       9.159  29.398  57.654  1.00  0.00     0.037 A 
HETATM   16  C   UNL     1       8.292  29.986  58.583  1.00  0.00     0.016 A 
BRANCH  14  17
HETATM   17  O   UNL     1      11.170  29.415  56.429  1.00  0.00    -0.361 OA
HETATM   18  H   UNL     1      12.077  29.406  56.776  1.00  0.00     0.217 HD
ENDBRANCH  14  17
ENDBRANCH   6  11
BRANCH   8  19
HETATM   19  C   UNL     1       4.308  33.319  60.454  1.00  0.00     0.253 C 
HETATM   20  N   UNL     1       4.200  34.603  59.957  1.00  0.00    -0.352 N 
HETATM   21  H   UNL     1       5.019  35.200  59.954  1.00  0.00     0.163 HD
HETATM   22  O   UNL     1       3.368  32.555  60.633  1.00  0.00    -0.268 OA
BRANCH  20  23
HETATM   23  C   UNL     1       2.943  35.171  59.585  1.00  0.00     0.084 A 
HETATM   24  C   UNL     1       2.884  36.385  58.700  1.00  0.00     0.027 A 
HETATM   25  C   UNL     1       2.438  35.052  58.175  1.00  0.00     0.027 A 
ENDBRANCH  20  23
ENDBRANCH   8  19
TORSDOF 4
ENDMDL
MODEL 7
REMARK VINA RESULT:      -7.8      7.687     11.271
REMARK  4 active torsions:
REMARK  status: ('A' for Active; 'I' for Inactive)
REMARK    1  A    between atoms: C_6  and  C_7 
REMARK    2  A    between atoms: C_10  and  O_11 
REMARK    3  A    between atoms: C_15  and  C_16 
REMARK       I    between atoms: C_16  and  N_17 
REMARK    4  A    between atoms: N_17  and  C_18 
ROOT
HETATM    1  C   UNL     1       4.383  32.479  56.076  1.00  0.00     0.001 A 
HETATM    2  C   UNL     1       5.405  31.766  56.698  1.00  0.00     0.015 A 
HETATM    3  C   UNL     1       5.729  31.989  58.062  1.00  0.00     0.008 A 
HETATM    4  C   UNL     1       5.029  32.978  58.773  1.00  0.00     0.068 A 
HETATM    5  N   UNL     1       5.304  33.296  60.050  1.00  0.00    -0.248 NA
HETATM    6  C   UNL     1       6.319  32.678  60.703  1.00  0.00     0.068 A 
HETATM    7  C   UNL     1       7.046  31.669  60.098  1.00  0.00     0.050 A 
HETATM    8  C   UNL     1       6.734  31.311  58.785  1.00  0.00     0.046 A 
HETATM    9  C   UNL     1       4.010  33.670  58.133  1.00  0.00     0.032 A 
HETATM   10  C   UNL     1       3.677  33.430  56.798  1.00  0.00     0.002 A 
ENDROOT
BRANCH   6  11
HETATM   11  C   UNL     1       6.577  33.152  62.081  1.00  0.00    -0.007 A 
HETATM   12  C   UNL     1       7.555  32.529  62.884  1.00  0.00     0.016 A 
HETATM   13  C   UNL     1       7.807  32.949  64.195  1.00  0.00     0.037 A 
HETATM   14  C   UNL     1       7.077  34.004  64.724  1.00  0.00     0.065 A 
HETATM   15  C   UNL     1       6.105  34.641  63.966  1.00  0.00     0.037 A 
HETATM   16  C   UNL     1       5.856  34.216  62.656  1.00  0.00     0.016 A 
BRANCH  14  17
HETATM   17  O   UNL     1       7.280  34.444  65.997  1.00  0.00    -0.361 OA
HETATM   18  H   UNL     1       6.485  34.916  66.291  1.00  0.00     0.217 HD
ENDBRANCH  14  17
ENDBRANCH   6  11
BRANCH   8  19
HETATM   19  C   UNL     1       7.516  30.187  58.221  1.00  0.00     0.253 C 
HETATM   20  N   UNL     1       8.844  30.463  57.960  1.00  0.00    -0.352 N 
HETATM   21  H   UNL     1       9.188  31.405  58.105  1.00  0.00     0.163 HD
HETATM   22  O   UNL     1       6.956  29.130  57.960  1.00  0.00    -0.268 OA
BRANCH  20  23
HETATM   23  C   UNL     1       9.714  29.507  57.353  1.00  0.00     0.084 A 
HETATM   24  C   UNL     1      10.283  29.752  55.983  1.00  0.00     0.027 A 
HETATM   25  C   UNL     1      11.178  29.802  57.187  1.00  0.00     0.027 A 
ENDBRANCH  20  23
ENDBRANCH   8  19
TORSDOF 4
ENDMDL
MODEL 8
REMARK VINA RESULT:      -7.6      2.487      3.333
REMARK  4 active torsions:
REMARK  status: ('A' for Active; 'I' for Inactive)
REMARK    1  A    between atoms: C_6  and  C_7 
REMARK    2  A    between atoms: C_10  and  O_11 
REMARK    3  A    between atoms: C_15  and  C_16 
REMARK       I    between atoms: C_16  and  N_17 
REMARK    4  A    between atoms: N_17  and  C_18 
ROOT
HETATM    1  C   UNL     1       7.029  30.020  57.711  1.00  0.00     0.001 A 
HETATM    2  C   UNL     1       6.202  29.501  56.716  1.00  0.00     0.015 A 
HETATM    3  C   UNL     1       6.424  28.205  56.181  1.00  0.00     0.008 A 
HETATM    4  C   UNL     1       7.523  27.460  56.641  1.00  0.00     0.068 A 
HETATM    5  N   UNL     1       7.843  26.249  56.153  1.00  0.00    -0.248 NA
HETATM    6  C   UNL     1       7.112  25.703  55.149  1.00  0.00     0.068 A 
HETATM    7  C   UNL     1       5.993  26.346  54.652  1.00  0.00     0.050 A 
HETATM    8  C   UNL     1       5.638  27.586  55.186  1.00  0.00     0.046 A 
HETATM    9  C   UNL     1       8.328  27.996  57.637  1.00  0.00     0.032 A 
HETATM   10  C   UNL     1       8.092  29.261  58.179  1.00  0.00     0.002 A 
ENDROOT
BRANCH   6  11
HETATM   11  C   UNL     1       7.591  24.398  54.644  1.00  0.00    -0.007 A 
HETATM   12  C   UNL     1       8.464  23.604  55.417  1.00  0.00     0.016 A 
HETATM   13  C   UNL     1       8.942  22.373  54.955  1.00  0.00     0.037 A 
HETATM   14  C   UNL     1       8.554  21.917  53.703  1.00  0.00     0.065 A 
HETATM   15  C   UNL     1       7.698  22.671  52.912  1.00  0.00     0.037 A 
HETATM   16  C   UNL     1       7.223  23.902  53.378  1.00  0.00     0.016 A 
BRANCH  14  17
HETATM   17  O   UNL     1       8.999  20.729  53.206  1.00  0.00    -0.361 OA
HETATM   18  H   UNL     1       9.218  20.146  53.950  1.00  0.00     0.217 HD
ENDBRANCH  14  17
ENDBRANCH   6  11
BRANCH   8  19
HETATM   19  C   UNL     1       4.399  28.190  54.645  1.00  0.00     0.253 C 
HETATM   20  N   UNL     1       4.313  28.228  53.267  1.00  0.00    -0.352 N 
HETATM   21  H   UNL     1       5.101  27.909  52.716  1.00  0.00     0.163 HD
HETATM   22  O   UNL     1       3.573  28.668  55.411  1.00  0.00    -0.268 OA
BRANCH  20  23
HETATM   23  C   UNL     1       3.213  28.838  52.590  1.00  0.00     0.084 A 
HETATM   24  C   UNL     1       3.365  30.188  51.945  1.00  0.00     0.027 A 
HETATM   25  C   UNL     1       3.211  28.963  51.092  1.00  0.00     0.027 A 
ENDBRANCH  20  23
ENDBRANCH   8  19
TORSDOF 4
ENDMDL
MODEL 9
REMARK VINA RESULT:      -7.5      5.849      8.608
REMARK  4 active torsions:
REMARK  status: ('A' for Active; 'I' for Inactive)
REMARK    1  A    between atoms: C_6  and  C_7 
REMARK    2  A    between atoms: C_10  and  O_11 
REMARK    3  A    between atoms: C_15  and  C_16 
REMARK       I    between atoms: C_16  and  N_17 
REMARK    4  A    between atoms: N_17  and  C_18 
ROOT
HETATM    1  C   UNL     1       8.622  32.673  61.649  1.00  0.00     0.001 A 
HETATM    2  C   UNL     1       7.638  32.738  60.664  1.00  0.00     0.015 A 
HETATM    3  C   UNL     1       7.446  31.669  59.750  1.00  0.00     0.008 A 
HETATM    4  C   UNL     1       8.294  30.551  59.824  1.00  0.00     0.068 A 
HETATM    5  N   UNL     1       8.221  29.518  58.967  1.00  0.00    -0.248 NA
HETATM    6  C   UNL     1       7.322  29.535  57.952  1.00  0.00     0.068 A 
HETATM    7  C   UNL     1       6.423  30.577  57.815  1.00  0.00     0.050 A 
HETATM    8  C   UNL     1       6.471  31.632  58.730  1.00  0.00     0.046 A 
HETATM    9  C   UNL     1       9.261  30.508  60.819  1.00  0.00     0.032 A 
HETATM   10  C   UNL     1       9.431  31.550  61.732  1.00  0.00     0.002 A 
ENDROOT
BRANCH   6  11
HETATM   11  C   UNL     1       7.373  28.379  57.031  1.00  0.00    -0.007 A 
HETATM   12  C   UNL     1       7.199  28.558  55.642  1.00  0.00     0.016 A 
HETATM   13  C   UNL     1       7.230  27.479  54.752  1.00  0.00     0.037 A 
HETATM   14  C   UNL     1       7.431  26.197  55.243  1.00  0.00     0.065 A 
HETATM   15  C   UNL     1       7.604  25.980  56.603  1.00  0.00     0.037 A 
HETATM   16  C   UNL     1       7.572  27.063  57.489  1.00  0.00     0.016 A 
BRANCH  14  17
HETATM   17  O   UNL     1       7.460  25.114  54.417  1.00  0.00    -0.361 OA
HETATM   18  H   UNL     1       8.266  25.158  53.878  1.00  0.00     0.217 HD
ENDBRANCH  14  17
ENDBRANCH   6  11
BRANCH   8  19
HETATM   19  C   UNL     1       5.445  32.684  58.555  1.00  0.00     0.253 C 
HETATM   20  N   UNL     1       4.397  32.643  59.454  1.00  0.00    -0.352 N 
HETATM   21  H   UNL     1       4.354  31.885  60.125  1.00  0.00     0.163 HD
HETATM   22  O   UNL     1       5.534  33.468  57.618  1.00  0.00    -0.268 OA
BRANCH  20  23
HETATM   23  C   UNL     1       3.294  33.546  59.377  1.00  0.00     0.084 A 
HETATM   24  C   UNL     1       2.474  33.858  60.599  1.00  0.00     0.027 A 
HETATM   25  C   UNL     1       3.373  34.907  60.011  1.00  0.00     0.027 A 
ENDBRANCH  20  23
ENDBRANCH   8  19
TORSDOF 4
ENDMDL
MODEL 10
REMARK VINA RESULT:      -7.4      2.660      5.316
REMARK  4 active torsions:
REMARK  status: ('A' for Active; 'I' for Inactive)
REMARK    1  A    between atoms: C_6  and  C_7 
REMARK    2  A    between atoms: C_10  and  O_11 
REMARK    3  A    between atoms: C_15  and  C_16 
REMARK       I    between atoms: C_16  and  N_17 
REMARK    4  A    between atoms: N_17  and  C_18 
ROOT
HETATM    1  C   UNL     1       2.940  27.989  47.249  1.00  0.00     0.001 A 
HETATM    2  C   UNL     1       3.615  28.684  48.250  1.00  0.00     0.015 A 
HETATM    3  C   UNL     1       4.343  27.996  49.256  1.00  0.00     0.008 A 
HETATM    4  C   UNL     1       4.342  26.590  49.254  1.00  0.00     0.068 A 
HETATM    5  N   UNL     1       4.957  25.856  50.196  1.00  0.00    -0.248 NA
HETATM    6  C   UNL     1       5.592  26.465  51.229  1.00  0.00     0.068 A 
HETATM    7  C   UNL     1       5.675  27.843  51.301  1.00  0.00     0.050 A 
HETATM    8  C   UNL     1       5.070  28.606  50.301  1.00  0.00     0.046 A 
HETATM    9  C   UNL     1       3.668  25.922  48.242  1.00  0.00     0.032 A 
HETATM   10  C   UNL     1       2.973  26.602  47.240  1.00  0.00     0.002 A 
ENDROOT
BRANCH   6  11
HETATM   11  C   UNL     1       6.178  25.561  52.244  1.00  0.00    -0.007 A 
HETATM   12  C   UNL     1       7.376  24.865  51.981  1.00  0.00     0.016 A 
HETATM   13  C   UNL     1       7.942  23.994  52.918  1.00  0.00     0.037 A 
HETATM   14  C   UNL     1       7.310  23.802  54.138  1.00  0.00     0.065 A 
HETATM   15  C   UNL     1       6.127  24.467  54.433  1.00  0.00     0.037 A 
HETATM   16  C   UNL     1       5.565  25.336  53.492  1.00  0.00     0.016 A 
BRANCH  14  17
HETATM   17  O   UNL     1       7.817  22.958  55.080  1.00  0.00    -0.361 OA
HETATM   18  H   UNL     1       8.783  22.937  54.987  1.00  0.00     0.217 HD
ENDBRANCH  14  17
ENDBRANCH   6  11
BRANCH   8  19
HETATM   19  C   UNL     1       5.246  30.072  50.413  1.00  0.00     0.253 C 
HETATM   20  N   UNL     1       4.171  30.758  50.944  1.00  0.00    -0.352 N 
HETATM   21  H   UNL     1       3.323  30.249  51.164  1.00  0.00     0.163 HD
HETATM   22  O   UNL     1       6.268  30.594  49.985  1.00  0.00    -0.268 OA
BRANCH  20  23
HETATM   23  C   UNL     1       4.158  32.181  51.055  1.00  0.00     0.084 A 
HETATM   24  C   UNL     1       3.034  32.883  51.767  1.00  0.00     0.027 A 
HETATM   25  C   UNL     1       4.403  32.847  52.381  1.00  0.00     0.027 A 
ENDBRANCH  20  23
ENDBRANCH   8  19
TORSDOF 4
ENDMDL
