MODEL 1
REMARK VINA RESULT:      -9.0      0.000      0.000
REMARK  3 active torsions:
REMARK  status: ('A' for Active; 'I' for Inactive)
REMARK    1  A    between atoms: C_3  and  N_4 
REMARK       I    between atoms: N_4  and  C_5 
REMARK    2  A    between atoms: C_5  and  C_6 
REMARK    3  A    between atoms: C_9  and  N_10 
REMARK       I    between atoms: N_10  and  C_11 
ROOT
HETATM    1  N   UNL     1       7.870  25.596  55.363  1.00  0.00    -0.321 N 
HETATM    2  C   UNL     1       6.721  26.302  55.674  1.00  0.00     0.256 C 
HETATM    3  O   UNL     1       5.576  25.987  55.371  1.00  0.00    -0.267 OA
HETATM    4  H   UNL     1       8.667  25.818  55.938  1.00  0.00     0.169 HD
ENDROOT
BRANCH   2   5
HETATM    5  C   UNL     1       6.897  27.497  56.566  1.00  0.00     0.032 A 
HETATM    6  C   UNL     1       5.848  28.331  56.971  1.00  0.00     0.019 A 
HETATM    7  C   UNL     1       6.108  29.486  57.724  1.00  0.00     0.030 A 
HETATM    8  C   UNL     1       7.411  29.815  58.104  1.00  0.00     0.034 A 
HETATM    9  C   UNL     1       8.451  28.950  57.753  1.00  0.00     0.030 A 
HETATM   10  C   UNL     1       8.198  27.805  56.989  1.00  0.00     0.019 A 
BRANCH   8  11
HETATM   11  N   UNL     1       7.760  30.981  58.813  1.00  0.00    -0.328 N 
HETATM   12  C   UNL     1       8.411  31.062  60.032  1.00  0.00     0.218 C 
HETATM   13  C   UNL     1       8.554  32.489  60.499  1.00  0.00     0.117 C 
HETATM   14  O   UNL     1       8.844  30.130  60.701  1.00  0.00    -0.274 OA
HETATM   15  H   UNL     1       7.456  31.857  58.406  1.00  0.00     0.169 HD
ENDBRANCH   8  11
ENDBRANCH   2   5
BRANCH   1  16
HETATM   16  C   UNL     1       7.959  24.347  54.681  1.00  0.00     0.065 C 
HETATM   17  C   UNL     1       7.853  24.165  53.292  1.00  0.00    -0.031 C 
HETATM   18  C   UNL     1       7.836  25.266  52.268  1.00  0.00     0.050 C 
HETATM   19  C   UNL     1       7.803  22.852  52.786  1.00  0.00     0.035 C 
HETATM   20  C   UNL     1       7.947  21.770  53.639  1.00  0.00     0.031 C 
HETATM   21  N   UNL     1       8.167  21.923  54.958  1.00  0.00    -0.256 NA
HETATM   22  C   UNL     1       7.858  20.369  53.112  1.00  0.00     0.070 C 
HETATM   23  C   UNL     1       8.181  23.187  55.460  1.00  0.00     0.058 C 
HETATM   24  C   UNL     1       8.429  23.250  56.942  1.00  0.00     0.073 C 
ENDBRANCH   1  16
TORSDOF 3
ENDMDL
MODEL 2
REMARK VINA RESULT:      -8.7      0.681      2.146
REMARK  3 active torsions:
REMARK  status: ('A' for Active; 'I' for Inactive)
REMARK    1  A    between atoms: C_3  and  N_4 
REMARK       I    between atoms: N_4  and  C_5 
REMARK    2  A    between atoms: C_5  and  C_6 
REMARK    3  A    between atoms: C_9  and  N_10 
REMARK       I    between atoms: N_10  and  C_11 
ROOT
HETATM    1  N   UNL     1       8.013  25.410  55.370  1.00  0.00    -0.321 N 
HETATM    2  C   UNL     1       6.952  26.099  55.931  1.00  0.00     0.256 C 
HETATM    3  O   UNL     1       5.796  25.701  56.014  1.00  0.00    -0.267 OA
HETATM    4  H   UNL     1       8.923  25.733  55.657  1.00  0.00     0.169 HD
ENDROOT
BRANCH   2   5
HETATM    5  C   UNL     1       7.287  27.400  56.602  1.00  0.00     0.032 A 
HETATM    6  C   UNL     1       8.592  27.818  56.888  1.00  0.00     0.019 A 
HETATM    7  C   UNL     1       8.818  29.003  57.607  1.00  0.00     0.030 A 
HETATM    8  C   UNL     1       7.751  29.797  58.030  1.00  0.00     0.034 A 
HETATM    9  C   UNL     1       6.451  29.412  57.691  1.00  0.00     0.030 A 
HETATM   10  C   UNL     1       6.221  28.225  56.988  1.00  0.00     0.019 A 
BRANCH   8  11
HETATM   11  N   UNL     1       7.892  30.970  58.799  1.00  0.00    -0.328 N 
HETATM   12  C   UNL     1       8.435  31.085  60.067  1.00  0.00     0.218 C 
HETATM   13  C   UNL     1       8.354  32.499  60.586  1.00  0.00     0.117 C 
HETATM   14  O   UNL     1       8.934  30.191  60.740  1.00  0.00    -0.274 OA
HETATM   15  H   UNL     1       7.506  31.815  58.396  1.00  0.00     0.169 HD
ENDBRANCH   8  11
ENDBRANCH   2   5
BRANCH   1  16
HETATM   16  C   UNL     1       7.997  24.092  54.826  1.00  0.00     0.065 C 
HETATM   17  C   UNL     1       8.184  22.905  55.554  1.00  0.00    -0.031 C 
HETATM   18  C   UNL     1       8.226  22.800  57.053  1.00  0.00     0.050 C 
HETATM   19  C   UNL     1       8.299  21.692  54.848  1.00  0.00     0.035 C 
HETATM   20  C   UNL     1       8.139  21.668  53.472  1.00  0.00     0.031 C 
HETATM   21  N   UNL     1       7.843  22.776  52.767  1.00  0.00    -0.256 NA
HETATM   22  C   UNL     1       8.296  20.387  52.710  1.00  0.00     0.070 C 
HETATM   23  C   UNL     1       7.765  23.957  53.437  1.00  0.00     0.058 C 
HETATM   24  C   UNL     1       7.435  25.133  52.559  1.00  0.00     0.073 C 
ENDBRANCH   1  16
TORSDOF 3
ENDMDL
MODEL 3
REMARK VINA RESULT:      -8.5      1.687      2.017
REMARK  3 active torsions:
REMARK  status: ('A' for Active; 'I' for Inactive)
REMARK    1  A    between atoms: C_3  and  N_4 
REMARK       I    between atoms: N_4  and  C_5 
REMARK    2  A    between atoms: C_5  and  C_6 
REMARK    3  A    between atoms: C_9  and  N_10 
REMARK       I    between atoms: N_10  and  C_11 
ROOT
HETATM    1  N   UNL     1       7.605  25.638  55.143  1.00  0.00    -0.321 N 
HETATM    2  C   UNL     1       6.343  26.164  55.359  1.00  0.00     0.256 C 
HETATM    3  O   UNL     1       5.280  25.647  55.034  1.00  0.00    -0.267 OA
HETATM    4  H   UNL     1       8.326  26.023  55.731  1.00  0.00     0.169 HD
ENDROOT
BRANCH   2   5
HETATM    5  C   UNL     1       6.280  27.426  56.171  1.00  0.00     0.032 A 
HETATM    6  C   UNL     1       7.362  27.945  56.891  1.00  0.00     0.019 A 
HETATM    7  C   UNL     1       7.195  29.075  57.707  1.00  0.00     0.030 A 
HETATM    8  C   UNL     1       5.959  29.717  57.798  1.00  0.00     0.034 A 
HETATM    9  C   UNL     1       4.895  29.236  57.030  1.00  0.00     0.030 A 
HETATM   10  C   UNL     1       5.052  28.101  56.228  1.00  0.00     0.019 A 
BRANCH   8  11
HETATM   11  N   UNL     1       5.698  30.823  58.632  1.00  0.00    -0.328 N 
HETATM   12  C   UNL     1       5.593  32.151  58.259  1.00  0.00     0.218 C 
HETATM   13  C   UNL     1       5.366  33.051  59.448  1.00  0.00     0.117 C 
HETATM   14  O   UNL     1       5.665  32.608  57.124  1.00  0.00    -0.274 OA
HETATM   15  H   UNL     1       5.629  30.626  59.623  1.00  0.00     0.169 HD
ENDBRANCH   8  11
ENDBRANCH   2   5
BRANCH   1  16
HETATM   16  C   UNL     1       7.928  24.380  54.555  1.00  0.00     0.065 C 
HETATM   17  C   UNL     1       7.884  24.085  53.182  1.00  0.00    -0.031 C 
HETATM   18  C   UNL     1       7.692  25.090  52.080  1.00  0.00     0.050 C 
HETATM   19  C   UNL     1       8.077  22.752  52.772  1.00  0.00     0.035 C 
HETATM   20  C   UNL     1       8.394  21.775  53.703  1.00  0.00     0.031 C 
HETATM   21  N   UNL     1       8.556  22.058  55.008  1.00  0.00    -0.256 NA
HETATM   22  C   UNL     1       8.565  20.347  53.279  1.00  0.00     0.070 C 
HETATM   23  C   UNL     1       8.336  23.336  55.417  1.00  0.00     0.058 C 
HETATM   24  C   UNL     1       8.539  23.546  56.892  1.00  0.00     0.073 C 
ENDBRANCH   1  16
TORSDOF 3
ENDMDL
MODEL 4
REMARK VINA RESULT:      -8.4      5.329      8.628
REMARK  3 active torsions:
REMARK  status: ('A' for Active; 'I' for Inactive)
REMARK    1  A    between atoms: C_3  and  N_4 
REMARK       I    between atoms: N_4  and  C_5 
REMARK    2  A    between atoms: C_5  and  C_6 
REMARK    3  A    between atoms: C_9  and  N_10 
REMARK       I    between atoms: N_10  and  C_11 
ROOT
HETATM    1  N   UNL     1       5.427  26.623  50.181  1.00  0.00    -0.321 N 
HETATM    2  C   UNL     1       5.353  26.664  51.563  1.00  0.00     0.256 C 
HETATM    3  O   UNL     1       4.642  27.410  52.226  1.00  0.00    -0.267 OA
HETATM    4  H   UNL     1       5.809  25.771  49.806  1.00  0.00     0.169 HD
ENDROOT
BRANCH   2   5
HETATM    5  C   UNL     1       6.133  25.614  52.300  1.00  0.00     0.032 A 
HETATM    6  C   UNL     1       7.323  25.049  51.826  1.00  0.00     0.019 A 
HETATM    7  C   UNL     1       7.940  24.000  52.526  1.00  0.00     0.030 A 
HETATM    8  C   UNL     1       7.396  23.516  53.717  1.00  0.00     0.034 A 
HETATM    9  C   UNL     1       6.242  24.122  54.222  1.00  0.00     0.030 A 
HETATM   10  C   UNL     1       5.615  25.157  53.520  1.00  0.00     0.019 A 
BRANCH   8  11
HETATM   11  N   UNL     1       7.924  22.435  54.449  1.00  0.00    -0.328 N 
HETATM   12  C   UNL     1       7.968  21.104  54.073  1.00  0.00     0.218 C 
HETATM   13  C   UNL     1       8.558  20.234  55.154  1.00  0.00     0.117 C 
HETATM   14  O   UNL     1       7.591  20.625  53.009  1.00  0.00    -0.274 OA
HETATM   15  H   UNL     1       8.267  22.652  55.377  1.00  0.00     0.169 HD
ENDBRANCH   8  11
ENDBRANCH   2   5
BRANCH   1  16
HETATM   16  C   UNL     1       4.664  27.390  49.252  1.00  0.00     0.065 C 
HETATM   17  C   UNL     1       4.802  28.770  49.023  1.00  0.00    -0.031 C 
HETATM   18  C   UNL     1       5.910  29.635  49.559  1.00  0.00     0.050 C 
HETATM   19  C   UNL     1       3.867  29.412  48.189  1.00  0.00     0.035 C 
HETATM   20  C   UNL     1       2.888  28.675  47.541  1.00  0.00     0.031 C 
HETATM   21  N   UNL     1       2.810  27.337  47.655  1.00  0.00    -0.256 NA
HETATM   22  C   UNL     1       1.867  29.357  46.681  1.00  0.00     0.070 C 
HETATM   23  C   UNL     1       3.687  26.713  48.486  1.00  0.00     0.058 C 
HETATM   24  C   UNL     1       3.512  25.220  48.545  1.00  0.00     0.073 C 
ENDBRANCH   1  16
TORSDOF 3
ENDMDL
MODEL 5
REMARK VINA RESULT:      -8.2      2.333      9.421
REMARK  3 active torsions:
REMARK  status: ('A' for Active; 'I' for Inactive)
REMARK    1  A    between atoms: C_3  and  N_4 
REMARK       I    between atoms: N_4  and  C_5 
REMARK    2  A    between atoms: C_5  and  C_6 
REMARK    3  A    between atoms: C_9  and  N_10 
REMARK       I    between atoms: N_10  and  C_11 
ROOT
HETATM    1  N   UNL     1       7.118  30.896  59.981  1.00  0.00    -0.321 N 
HETATM    2  C   UNL     1       7.866  30.997  58.821  1.00  0.00     0.256 C 
HETATM    3  O   UNL     1       8.778  31.790  58.618  1.00  0.00    -0.267 OA
HETATM    4  H   UNL     1       6.640  30.017  60.097  1.00  0.00     0.169 HD
ENDROOT
BRANCH   2   5
HETATM    5  C   UNL     1       7.606  29.955  57.771  1.00  0.00     0.032 A 
HETATM    6  C   UNL     1       6.544  30.012  56.861  1.00  0.00     0.019 A 
HETATM    7  C   UNL     1       6.309  28.949  55.975  1.00  0.00     0.030 A 
HETATM    8  C   UNL     1       7.141  27.828  55.966  1.00  0.00     0.034 A 
HETATM    9  C   UNL     1       8.238  27.799  56.831  1.00  0.00     0.030 A 
HETATM   10  C   UNL     1       8.466  28.849  57.727  1.00  0.00     0.019 A 
BRANCH   8  11
HETATM   11  N   UNL     1       6.943  26.700  55.145  1.00  0.00    -0.328 N 
HETATM   12  C   UNL     1       6.177  25.581  55.424  1.00  0.00     0.218 C 
HETATM   13  C   UNL     1       6.261  24.556  54.321  1.00  0.00     0.117 C 
HETATM   14  O   UNL     1       5.494  25.383  56.421  1.00  0.00    -0.274 OA
HETATM   15  H   UNL     1       7.459  26.687  54.274  1.00  0.00     0.169 HD
ENDBRANCH   8  11
ENDBRANCH   2   5
BRANCH   1  16
HETATM   16  C   UNL     1       7.281  31.646  61.183  1.00  0.00     0.065 C 
HETATM   17  C   UNL     1       8.268  31.422  62.158  1.00  0.00    -0.031 C 
HETATM   18  C   UNL     1       9.444  30.497  62.011  1.00  0.00     0.050 C 
HETATM   19  C   UNL     1       8.199  32.144  63.365  1.00  0.00     0.035 C 
HETATM   20  C   UNL     1       7.229  33.118  63.541  1.00  0.00     0.031 C 
HETATM   21  N   UNL     1       6.346  33.430  62.574  1.00  0.00    -0.256 NA
HETATM   22  C   UNL     1       7.127  33.865  64.837  1.00  0.00     0.070 C 
HETATM   23  C   UNL     1       6.383  32.712  61.420  1.00  0.00     0.058 C 
HETATM   24  C   UNL     1       5.354  33.135  60.408  1.00  0.00     0.073 C 
ENDBRANCH   1  16
TORSDOF 3
ENDMDL
MODEL 6
REMARK VINA RESULT:      -8.2      5.212      8.442
REMARK  3 active torsions:
REMARK  status: ('A' for Active; 'I' for Inactive)
REMARK    1  A    between atoms: C_3  and  N_4 
REMARK       I    between atoms: N_4  and  C_5 
REMARK    2  A    between atoms: C_5  and  C_6 
REMARK    3  A    between atoms: C_9  and  N_10 
REMARK       I    between atoms: N_10  and  C_11 
ROOT
HETATM    1  N   UNL     1       5.578  26.697  50.463  1.00  0.00    -0.321 N 
HETATM    2  C   UNL     1       5.259  26.421  51.781  1.00  0.00     0.256 C 
HETATM    3  O   UNL     1       4.258  26.801  52.377  1.00  0.00    -0.267 OA
HETATM    4  H   UNL     1       6.251  26.070  50.053  1.00  0.00     0.169 HD
ENDROOT
BRANCH   2   5
HETATM    5  C   UNL     1       6.173  25.469  52.498  1.00  0.00     0.032 A 
HETATM    6  C   UNL     1       7.325  24.913  51.929  1.00  0.00     0.019 A 
HETATM    7  C   UNL     1       8.072  23.953  52.630  1.00  0.00     0.030 A 
HETATM    8  C   UNL     1       7.698  23.552  53.913  1.00  0.00     0.034 A 
HETATM    9  C   UNL     1       6.584  24.152  54.506  1.00  0.00     0.030 A 
HETATM   10  C   UNL     1       5.827  25.097  53.806  1.00  0.00     0.019 A 
BRANCH   8  11
HETATM   11  N   UNL     1       8.364  22.559  54.659  1.00  0.00    -0.328 N 
HETATM   12  C   UNL     1       8.279  21.187  54.499  1.00  0.00     0.218 C 
HETATM   13  C   UNL     1       9.096  20.450  55.531  1.00  0.00     0.117 C 
HETATM   14  O   UNL     1       7.640  20.581  53.646  1.00  0.00    -0.274 OA
HETATM   15  H   UNL     1       8.929  22.889  55.432  1.00  0.00     0.169 HD
ENDBRANCH   8  11
ENDBRANCH   2   5
BRANCH   1  16
HETATM   16  C   UNL     1       4.796  27.427  49.520  1.00  0.00     0.065 C 
HETATM   17  C   UNL     1       3.921  26.865  48.574  1.00  0.00    -0.031 C 
HETATM   18  C   UNL     1       3.500  25.422  48.527  1.00  0.00     0.050 C 
HETATM   19  C   UNL     1       3.342  27.708  47.607  1.00  0.00     0.035 C 
HETATM   20  C   UNL     1       3.564  29.075  47.650  1.00  0.00     0.031 C 
HETATM   21  N   UNL     1       4.303  29.649  48.617  1.00  0.00    -0.256 NA
HETATM   22  C   UNL     1       2.980  29.974  46.603  1.00  0.00     0.070 C 
HETATM   23  C   UNL     1       4.895  28.838  49.534  1.00  0.00     0.058 C 
HETATM   24  C   UNL     1       5.702  29.575  50.567  1.00  0.00     0.073 C 
ENDBRANCH   1  16
TORSDOF 3
ENDMDL
MODEL 7
REMARK VINA RESULT:      -8.1      6.752     11.077
REMARK  3 active torsions:
REMARK  status: ('A' for Active; 'I' for Inactive)
REMARK    1  A    between atoms: C_3  and  N_4 
REMARK       I    between atoms: N_4  and  C_5 
REMARK    2  A    between atoms: C_5  and  C_6 
REMARK    3  A    between atoms: C_9  and  N_10 
REMARK       I    between atoms: N_10  and  C_11 
ROOT
HETATM    1  N   UNL     1       6.401  33.372  62.922  1.00  0.00    -0.321 N 
HETATM    2  C   UNL     1       5.502  32.942  63.883  1.00  0.00     0.256 C 
HETATM    3  O   UNL     1       4.671  32.051  63.747  1.00  0.00    -0.267 OA
HETATM    4  H   UNL     1       7.195  33.874  63.284  1.00  0.00     0.169 HD
ENDROOT
BRANCH   2   5
HETATM    5  C   UNL     1       5.651  33.548  65.248  1.00  0.00     0.032 A 
HETATM    6  C   UNL     1       6.885  33.827  65.849  1.00  0.00     0.019 A 
HETATM    7  C   UNL     1       6.942  34.301  67.169  1.00  0.00     0.030 A 
HETATM    8  C   UNL     1       5.774  34.527  67.899  1.00  0.00     0.034 A 
HETATM    9  C   UNL     1       4.541  34.308  67.279  1.00  0.00     0.030 A 
HETATM   10  C   UNL     1       4.480  33.821  65.969  1.00  0.00     0.019 A 
BRANCH   8  11
HETATM   11  N   UNL     1       5.748  34.952  69.243  1.00  0.00    -0.328 N 
HETATM   12  C   UNL     1       6.148  34.238  70.359  1.00  0.00     0.218 C 
HETATM   13  C   UNL     1       5.911  35.010  71.633  1.00  0.00     0.117 C 
HETATM   14  O   UNL     1       6.640  33.116  70.381  1.00  0.00    -0.274 OA
HETATM   15  H   UNL     1       5.345  35.865  69.412  1.00  0.00     0.169 HD
ENDBRANCH   8  11
ENDBRANCH   2   5
BRANCH   1  16
HETATM   16  C   UNL     1       6.581  32.843  61.610  1.00  0.00     0.065 C 
HETATM   17  C   UNL     1       5.725  33.059  60.516  1.00  0.00    -0.031 C 
HETATM   18  C   UNL     1       4.590  34.045  60.481  1.00  0.00     0.050 C 
HETATM   19  C   UNL     1       5.954  32.339  59.328  1.00  0.00     0.035 C 
HETATM   20  C   UNL     1       7.056  31.506  59.219  1.00  0.00     0.031 C 
HETATM   21  N   UNL     1       7.954  31.374  60.212  1.00  0.00    -0.256 NA
HETATM   22  C   UNL     1       7.285  30.709  57.970  1.00  0.00     0.070 C 
HETATM   23  C   UNL     1       7.721  32.038  61.376  1.00  0.00     0.058 C 
HETATM   24  C   UNL     1       8.779  31.821  62.422  1.00  0.00     0.073 C 
ENDBRANCH   1  16
TORSDOF 3
ENDMDL
MODEL 8
REMARK VINA RESULT:      -7.9      2.252      3.169
REMARK  3 active torsions:
REMARK  status: ('A' for Active; 'I' for Inactive)
REMARK    1  A    between atoms: C_3  and  N_4 
REMARK       I    between atoms: N_4  and  C_5 
REMARK    2  A    between atoms: C_5  and  C_6 
REMARK    3  A    between atoms: C_9  and  N_10 
REMARK       I    between atoms: N_10  and  C_11 
ROOT
HETATM    1  N   UNL     1       6.831  25.706  55.239  1.00  0.00    -0.321 N 
HETATM    2  C   UNL     1       5.837  26.013  56.152  1.00  0.00     0.256 C 
HETATM    3  O   UNL     1       5.150  25.208  56.768  1.00  0.00    -0.267 OA
HETATM    4  H   UNL     1       7.488  26.450  55.067  1.00  0.00     0.169 HD
ENDROOT
BRANCH   2   5
HETATM    5  C   UNL     1       5.679  27.466  56.496  1.00  0.00     0.032 A 
HETATM    6  C   UNL     1       6.578  28.181  57.296  1.00  0.00     0.019 A 
HETATM    7  C   UNL     1       6.308  29.511  57.656  1.00  0.00     0.030 A 
HETATM    8  C   UNL     1       5.153  30.154  57.205  1.00  0.00     0.034 A 
HETATM    9  C   UNL     1       4.286  29.460  56.356  1.00  0.00     0.030 A 
HETATM   10  C   UNL     1       4.544  28.130  56.008  1.00  0.00     0.019 A 
BRANCH   8  11
HETATM   11  N   UNL     1       4.785  31.466  57.563  1.00  0.00    -0.328 N 
HETATM   12  C   UNL     1       3.819  31.850  58.477  1.00  0.00     0.218 C 
HETATM   13  C   UNL     1       3.673  33.350  58.541  1.00  0.00     0.117 C 
HETATM   14  O   UNL     1       3.133  31.116  59.179  1.00  0.00    -0.274 OA
HETATM   15  H   UNL     1       5.247  32.211  57.056  1.00  0.00     0.169 HD
ENDBRANCH   8  11
ENDBRANCH   2   5
BRANCH   1  16
HETATM   16  C   UNL     1       7.293  24.409  54.868  1.00  0.00     0.065 C 
HETATM   17  C   UNL     1       8.176  23.612  55.616  1.00  0.00    -0.031 C 
HETATM   18  C   UNL     1       8.621  23.891  57.025  1.00  0.00     0.050 C 
HETATM   19  C   UNL     1       8.663  22.423  55.040  1.00  0.00     0.035 C 
HETATM   20  C   UNL     1       8.206  22.011  53.798  1.00  0.00     0.031 C 
HETATM   21  N   UNL     1       7.273  22.700  53.116  1.00  0.00    -0.256 NA
HETATM   22  C   UNL     1       8.748  20.766  53.163  1.00  0.00     0.070 C 
HETATM   23  C   UNL     1       6.824  23.867  53.649  1.00  0.00     0.058 C 
HETATM   24  C   UNL     1       5.788  24.561  52.807  1.00  0.00     0.073 C 
ENDBRANCH   1  16
TORSDOF 3
ENDMDL
MODEL 9
REMARK VINA RESULT:      -7.8      3.637      4.414
REMARK  3 active torsions:
REMARK  status: ('A' for Active; 'I' for Inactive)
REMARK    1  A    between atoms: C_3  and  N_4 
REMARK       I    between atoms: N_4  and  C_5 
REMARK    2  A    between atoms: C_5  and  C_6 
REMARK    3  A    between atoms: C_9  and  N_10 
REMARK       I    between atoms: N_10  and  C_11 
ROOT
HETATM    1  N   UNL     1       6.801  25.706  54.662  1.00  0.00    -0.321 N 
HETATM    2  C   UNL     1       5.554  25.881  54.088  1.00  0.00     0.256 C 
HETATM    3  O   UNL     1       4.812  24.992  53.688  1.00  0.00    -0.267 OA
HETATM    4  H   UNL     1       7.128  26.490  55.203  1.00  0.00     0.169 HD
ENDROOT
BRANCH   2   5
HETATM    5  C   UNL     1       5.025  27.286  54.067  1.00  0.00     0.032 A 
HETATM    6  C   UNL     1       5.450  28.293  54.942  1.00  0.00     0.019 A 
HETATM    7  C   UNL     1       4.834  29.555  54.926  1.00  0.00     0.030 A 
HETATM    8  C   UNL     1       3.807  29.839  54.025  1.00  0.00     0.034 A 
HETATM    9  C   UNL     1       3.425  28.854  53.110  1.00  0.00     0.030 A 
HETATM   10  C   UNL     1       4.024  27.590  53.133  1.00  0.00     0.019 A 
BRANCH   8  11
HETATM   11  N   UNL     1       3.105  31.060  53.981  1.00  0.00    -0.328 N 
HETATM   12  C   UNL     1       2.442  31.688  55.020  1.00  0.00     0.218 C 
HETATM   13  C   UNL     1       1.758  32.954  54.567  1.00  0.00     0.117 C 
HETATM   14  O   UNL     1       2.378  31.318  56.187  1.00  0.00    -0.274 OA
HETATM   15  H   UNL     1       3.039  31.502  53.072  1.00  0.00     0.169 HD
ENDBRANCH   8  11
ENDBRANCH   2   5
BRANCH   1  16
HETATM   16  C   UNL     1       7.452  24.471  54.954  1.00  0.00     0.065 C 
HETATM   17  C   UNL     1       7.871  23.524  54.004  1.00  0.00    -0.031 C 
HETATM   18  C   UNL     1       7.895  23.735  52.515  1.00  0.00     0.050 C 
HETATM   19  C   UNL     1       8.355  22.282  54.458  1.00  0.00     0.035 C 
HETATM   20  C   UNL     1       8.497  22.043  55.816  1.00  0.00     0.031 C 
HETATM   21  N   UNL     1       8.212  22.979  56.740  1.00  0.00    -0.256 NA
HETATM   22  C   UNL     1       8.977  20.711  56.307  1.00  0.00     0.070 C 
HETATM   23  C   UNL     1       7.710  24.168  56.311  1.00  0.00     0.058 C 
HETATM   24  C   UNL     1       7.421  25.142  57.420  1.00  0.00     0.073 C 
ENDBRANCH   1  16
TORSDOF 3
ENDMDL
MODEL 10
REMARK VINA RESULT:      -7.5      2.566      9.845
REMARK  3 active torsions:
REMARK  status: ('A' for Active; 'I' for Inactive)
REMARK    1  A    between atoms: C_3  and  N_4 
REMARK       I    between atoms: N_4  and  C_5 
REMARK    2  A    between atoms: C_5  and  C_6 
REMARK    3  A    between atoms: C_9  and  N_10 
REMARK       I    between atoms: N_10  and  C_11 
ROOT
HETATM    1  N   UNL     1       6.680  31.526  59.970  1.00  0.00    -0.321 N 
HETATM    2  C   UNL     1       7.699  31.364  59.047  1.00  0.00     0.256 C 
HETATM    3  O   UNL     1       8.671  32.097  58.908  1.00  0.00    -0.267 OA
HETATM    4  H   UNL     1       6.145  30.694  60.155  1.00  0.00     0.169 HD
ENDROOT
BRANCH   2   5
HETATM    5  C   UNL     1       7.657  30.106  58.228  1.00  0.00     0.032 A 
HETATM    6  C   UNL     1       8.785  29.336  57.922  1.00  0.00     0.019 A 
HETATM    7  C   UNL     1       8.679  28.228  57.066  1.00  0.00     0.030 A 
HETATM    8  C   UNL     1       7.447  27.857  56.524  1.00  0.00     0.034 A 
HETATM    9  C   UNL     1       6.310  28.589  56.879  1.00  0.00     0.030 A 
HETATM   10  C   UNL     1       6.414  29.703  57.718  1.00  0.00     0.019 A 
BRANCH   8  11
HETATM   11  N   UNL     1       7.266  26.793  55.619  1.00  0.00    -0.328 N 
HETATM   12  C   UNL     1       7.176  25.444  55.914  1.00  0.00     0.218 C 
HETATM   13  C   UNL     1       7.045  24.604  54.668  1.00  0.00     0.117 C 
HETATM   14  O   UNL     1       7.194  24.928  57.026  1.00  0.00    -0.274 OA
HETATM   15  H   UNL     1       7.250  27.041  54.637  1.00  0.00     0.169 HD
ENDBRANCH   8  11
ENDBRANCH   2   5
BRANCH   1  16
HETATM   16  C   UNL     1       6.576  32.534  60.973  1.00  0.00     0.065 C 
HETATM   17  C   UNL     1       7.390  32.640  62.113  1.00  0.00    -0.031 C 
HETATM   18  C   UNL     1       8.637  31.840  62.370  1.00  0.00     0.050 C 
HETATM   19  C   UNL     1       7.059  33.597  63.091  1.00  0.00     0.035 C 
HETATM   20  C   UNL     1       6.005  34.472  62.883  1.00  0.00     0.031 C 
HETATM   21  N   UNL     1       5.285  34.466  61.746  1.00  0.00    -0.256 NA
HETATM   22  C   UNL     1       5.624  35.469  63.935  1.00  0.00     0.070 C 
HETATM   23  C   UNL     1       5.575  33.521  60.812  1.00  0.00     0.058 C 
HETATM   24  C   UNL     1       4.712  33.596  59.582  1.00  0.00     0.073 C 
ENDBRANCH   1  16
TORSDOF 3
ENDMDL
