MODEL 1
REMARK VINA RESULT:      -9.2      0.000      0.000
REMARK  8 active torsions:
REMARK  status: ('A' for Active; 'I' for Inactive)
REMARK    1  A    between atoms: C_2  and  C_4 
REMARK    2  A    between atoms: C_2  and  C_29 
REMARK    3  A    between atoms: C_2  and  O_3 
REMARK    4  A    between atoms: N_11  and  C_13 
REMARK    5  A    between atoms: C_13  and  C_14 
REMARK    6  A    between atoms: C_16  and  S_17 
REMARK    7  A    between atoms: S_17  and  C_18 
REMARK    8  A    between atoms: C_29  and  N_30 
ROOT
HETATM    1  C   UNL     1       5.812  25.843  53.028  1.00  0.00    -0.022 A 
HETATM    2  C   UNL     1       5.690  25.816  54.433  1.00  0.00     0.022 A 
HETATM    3  C   UNL     1       6.296  24.816  55.213  1.00  0.00     0.002 A 
HETATM    4  C   UNL     1       7.013  23.809  54.572  1.00  0.00     0.076 A 
HETATM    5  O   UNL     1       7.573  22.782  55.278  1.00  0.00    -0.349 OA
HETATM    6  C   UNL     1       8.705  23.208  56.049  1.00  0.00     0.203 C 
HETATM    7  C   UNL     1       8.302  23.702  57.446  1.00  0.00     0.262 C 
HETATM    8  N   UNL     1       7.535  25.013  57.414  1.00  0.00    -0.059 N 
HETATM    9  H   UNL     1       7.276  25.229  58.385  1.00  0.00     0.280 HD
HETATM   10  C   UNL     1       6.199  24.853  56.711  1.00  0.00     0.276 C 
HETATM   11  C   UNL     1       7.131  23.795  53.186  1.00  0.00     0.038 A 
HETATM   12  C   UNL     1       6.562  24.821  52.422  1.00  0.00     0.013 A 
ENDROOT
BRANCH   8  13
HETATM   13  C   UNL     1       8.384  26.190  56.960  1.00  0.00     0.299 C 
BRANCH  13  14
HETATM   14  C   UNL     1       7.897  27.532  57.369  1.00  0.00     0.080 A 
HETATM   15  O   UNL     1       8.821  28.393  57.868  1.00  0.00    -0.306 OA
HETATM   16  C   UNL     1       8.202  29.585  58.120  1.00  0.00     0.120 A 
HETATM   17  C   UNL     1       6.851  29.443  57.883  1.00  0.00     0.047 A 
HETATM   18  C   UNL     1       6.653  28.126  57.391  1.00  0.00     0.038 A 
BRANCH  16  19
HETATM   19  S   UNL     1       9.077  31.000  58.640  1.00  0.00    -0.025 SA
BRANCH  19  20
HETATM   20  C   UNL     1       8.656  30.910  60.318  1.00  0.00     0.197 A 
HETATM   21  N   UNL     1       7.577  31.544  60.867  1.00  0.00    -0.322 N 
HETATM   22  C   UNL     1       6.593  32.368  60.214  1.00  0.00     0.159 C 
HETATM   23  C   UNL     1       7.615  31.245  62.198  1.00  0.00     0.235 A 
HETATM   24  N   UNL     1       8.633  30.450  62.444  1.00  0.00    -0.143 NA
HETATM   25  N   UNL     1       9.286  30.235  61.256  1.00  0.00    -0.123 NA
ENDBRANCH  19  20
ENDBRANCH  16  19
ENDBRANCH  13  14
ENDBRANCH   8  13
BRANCH   1  26
HETATM   26  C   UNL     1       5.215  27.008  52.231  1.00  0.00     0.105 C 
HETATM   27  C   UNL     1       5.931  28.305  52.643  1.00  0.00     0.053 C 
BRANCH  26  28
HETATM   28  C   UNL     1       5.300  26.856  50.674  1.00  0.00     0.276 C 
BRANCH  28  29
HETATM   29  N   UNL     1       3.968  27.047  49.942  1.00  0.00    -0.076 N 
HETATM   30  H   UNL     1       3.211  26.929  50.626  1.00  0.00     0.279 HD
HETATM   31  C   UNL     1       3.784  28.426  49.359  1.00  0.00     0.269 C 
HETATM   32  C   UNL     1       3.780  25.990  48.886  1.00  0.00     0.269 C 
ENDBRANCH  28  29
ENDBRANCH  26  28
BRANCH  26  33
HETATM   33  O   UNL     1       3.820  27.133  52.562  1.00  0.00    -0.384 OA
HETATM   34  H   UNL     1       3.590  28.078  52.636  1.00  0.00     0.211 HD
ENDBRANCH  26  33
ENDBRANCH   1  26
TORSDOF 8
ENDMDL
MODEL 2
REMARK VINA RESULT:      -8.6      1.497      2.249
REMARK  8 active torsions:
REMARK  status: ('A' for Active; 'I' for Inactive)
REMARK    1  A    between atoms: C_2  and  C_4 
REMARK    2  A    between atoms: C_2  and  C_29 
REMARK    3  A    between atoms: C_2  and  O_3 
REMARK    4  A    between atoms: N_11  and  C_13 
REMARK    5  A    between atoms: C_13  and  C_14 
REMARK    6  A    between atoms: C_16  and  S_17 
REMARK    7  A    between atoms: S_17  and  C_18 
REMARK    8  A    between atoms: C_29  and  N_30 
ROOT
HETATM    1  C   UNL     1       5.921  26.302  52.956  1.00  0.00    -0.022 A 
HETATM    2  C   UNL     1       5.779  26.114  54.347  1.00  0.00     0.022 A 
HETATM    3  C   UNL     1       6.281  24.973  54.998  1.00  0.00     0.002 A 
HETATM    4  C   UNL     1       6.912  23.992  54.238  1.00  0.00     0.076 A 
HETATM    5  O   UNL     1       7.367  22.839  54.813  1.00  0.00    -0.349 OA
HETATM    6  C   UNL     1       8.523  23.061  55.633  1.00  0.00     0.203 C 
HETATM    7  C   UNL     1       8.147  23.414  57.080  1.00  0.00     0.262 C 
HETATM    8  N   UNL     1       7.503  24.783  57.209  1.00  0.00    -0.059 N 
HETATM    9  H   UNL     1       7.252  24.900  58.199  1.00  0.00     0.280 HD
HETATM   10  C   UNL     1       6.168  24.834  56.489  1.00  0.00     0.276 C 
HETATM   11  C   UNL     1       7.047  24.139  52.862  1.00  0.00     0.038 A 
HETATM   12  C   UNL     1       6.583  25.298  52.229  1.00  0.00     0.013 A 
ENDROOT
BRANCH   8  13
HETATM   13  C   UNL     1       8.462  25.924  56.906  1.00  0.00     0.299 C 
BRANCH  13  14
HETATM   14  C   UNL     1       7.999  27.278  57.307  1.00  0.00     0.080 A 
HETATM   15  O   UNL     1       8.956  28.168  57.675  1.00  0.00    -0.306 OA
HETATM   16  C   UNL     1       8.349  29.363  57.939  1.00  0.00     0.120 A 
HETATM   17  C   UNL     1       6.983  29.199  57.843  1.00  0.00     0.047 A 
HETATM   18  C   UNL     1       6.756  27.861  57.427  1.00  0.00     0.038 A 
BRANCH  16  19
HETATM   19  S   UNL     1       9.252  30.807  58.311  1.00  0.00    -0.025 SA
BRANCH  19  20
HETATM   20  C   UNL     1       8.128  31.478  59.447  1.00  0.00     0.197 A 
HETATM   21  N   UNL     1       8.190  31.264  60.795  1.00  0.00    -0.322 N 
HETATM   22  C   UNL     1       9.154  30.495  61.538  1.00  0.00     0.159 C 
HETATM   23  C   UNL     1       7.124  31.935  61.321  1.00  0.00     0.235 A 
HETATM   24  N   UNL     1       6.470  32.549  60.360  1.00  0.00    -0.143 NA
HETATM   25  N   UNL     1       7.108  32.264  59.178  1.00  0.00    -0.123 NA
ENDBRANCH  19  20
ENDBRANCH  16  19
ENDBRANCH  13  14
ENDBRANCH   8  13
BRANCH   1  26
HETATM   26  C   UNL     1       5.443  27.606  52.308  1.00  0.00     0.105 C 
HETATM   27  C   UNL     1       5.231  27.360  50.805  1.00  0.00     0.053 C 
BRANCH  26  28
HETATM   28  C   UNL     1       4.126  28.201  52.914  1.00  0.00     0.276 C 
BRANCH  28  29
HETATM   29  N   UNL     1       4.312  29.523  53.666  1.00  0.00    -0.076 N 
HETATM   30  H   UNL     1       5.286  29.825  53.540  1.00  0.00     0.279 HD
HETATM   31  C   UNL     1       3.461  30.650  53.138  1.00  0.00     0.269 C 
HETATM   32  C   UNL     1       4.094  29.334  55.143  1.00  0.00     0.269 C 
ENDBRANCH  28  29
ENDBRANCH  26  28
BRANCH  26  33
HETATM   33  O   UNL     1       6.464  28.608  52.466  1.00  0.00    -0.384 OA
HETATM   34  H   UNL     1       7.338  28.177  52.489  1.00  0.00     0.211 HD
ENDBRANCH  26  33
ENDBRANCH   1  26
TORSDOF 8
ENDMDL
MODEL 3
REMARK VINA RESULT:      -8.5      2.909      8.649
REMARK  8 active torsions:
REMARK  status: ('A' for Active; 'I' for Inactive)
REMARK    1  A    between atoms: C_2  and  C_4 
REMARK    2  A    between atoms: C_2  and  C_29 
REMARK    3  A    between atoms: C_2  and  O_3 
REMARK    4  A    between atoms: N_11  and  C_13 
REMARK    5  A    between atoms: C_13  and  C_14 
REMARK    6  A    between atoms: C_16  and  S_17 
REMARK    7  A    between atoms: S_17  and  C_18 
REMARK    8  A    between atoms: C_29  and  N_30 
ROOT
HETATM    1  C   UNL     1       7.263  27.356  56.426  1.00  0.00    -0.022 A 
HETATM    2  C   UNL     1       7.491  27.094  55.059  1.00  0.00     0.022 A 
HETATM    3  C   UNL     1       7.810  25.807  54.591  1.00  0.00     0.002 A 
HETATM    4  C   UNL     1       7.930  24.771  55.514  1.00  0.00     0.076 A 
HETATM    5  O   UNL     1       8.294  23.514  55.120  1.00  0.00    -0.349 OA
HETATM    6  C   UNL     1       7.252  22.851  54.390  1.00  0.00     0.203 C 
HETATM    7  C   UNL     1       7.324  23.143  52.884  1.00  0.00     0.262 C 
HETATM    8  N   UNL     1       6.972  24.579  52.540  1.00  0.00    -0.059 N 
HETATM    9  H   UNL     1       7.095  24.679  51.524  1.00  0.00     0.280 HD
HETATM   10  C   UNL     1       7.984  25.549  53.123  1.00  0.00     0.276 C 
HETATM   11  C   UNL     1       7.734  25.004  56.871  1.00  0.00     0.038 A 
HETATM   12  C   UNL     1       7.373  26.279  57.321  1.00  0.00     0.013 A 
ENDROOT
BRANCH   8  13
HETATM   13  C   UNL     1       5.511  24.914  52.797  1.00  0.00     0.299 C 
BRANCH  13  14
HETATM   14  C   UNL     1       5.060  26.244  52.312  1.00  0.00     0.080 A 
HETATM   15  O   UNL     1       5.418  26.588  51.048  1.00  0.00    -0.306 OA
HETATM   16  C   UNL     1       4.859  27.801  50.761  1.00  0.00     0.120 A 
HETATM   17  C   UNL     1       4.232  28.280  51.892  1.00  0.00     0.047 A 
HETATM   18  C   UNL     1       4.352  27.276  52.888  1.00  0.00     0.038 A 
BRANCH  16  19
HETATM   19  S   UNL     1       4.966  28.528  49.180  1.00  0.00    -0.025 SA
BRANCH  19  20
HETATM   20  C   UNL     1       4.039  27.336  48.330  1.00  0.00     0.197 A 
HETATM   21  N   UNL     1       2.673  27.289  48.336  1.00  0.00    -0.322 N 
HETATM   22  C   UNL     1       1.748  28.173  48.994  1.00  0.00     0.159 C 
HETATM   23  C   UNL     1       2.342  26.202  47.580  1.00  0.00     0.235 A 
HETATM   24  N   UNL     1       3.435  25.639  47.112  1.00  0.00    -0.143 NA
HETATM   25  N   UNL     1       4.504  26.359  47.582  1.00  0.00    -0.123 NA
ENDBRANCH  19  20
ENDBRANCH  16  19
ENDBRANCH  13  14
ENDBRANCH   8  13
BRANCH   1  26
HETATM   26  C   UNL     1       6.823  28.755  56.873  1.00  0.00     0.105 C 
HETATM   27  C   UNL     1       5.326  28.712  57.222  1.00  0.00     0.053 C 
BRANCH  26  28
HETATM   28  C   UNL     1       7.611  29.337  58.095  1.00  0.00     0.276 C 
BRANCH  28  29
HETATM   29  N   UNL     1       8.753  30.287  57.722  1.00  0.00    -0.076 N 
HETATM   30  H   UNL     1       8.477  30.796  56.873  1.00  0.00     0.279 HD
HETATM   31  C   UNL     1       9.032  31.344  58.762  1.00  0.00     0.269 C 
HETATM   32  C   UNL     1      10.005  29.518  57.392  1.00  0.00     0.269 C 
ENDBRANCH  28  29
ENDBRANCH  26  28
BRANCH  26  33
HETATM   33  O   UNL     1       7.009  29.674  55.781  1.00  0.00    -0.384 OA
HETATM   34  H   UNL     1       6.144  30.035  55.512  1.00  0.00     0.211 HD
ENDBRANCH  26  33
ENDBRANCH   1  26
TORSDOF 8
ENDMDL
MODEL 4
REMARK VINA RESULT:      -8.5      1.638      2.272
REMARK  8 active torsions:
REMARK  status: ('A' for Active; 'I' for Inactive)
REMARK    1  A    between atoms: C_2  and  C_4 
REMARK    2  A    between atoms: C_2  and  C_29 
REMARK    3  A    between atoms: C_2  and  O_3 
REMARK    4  A    between atoms: N_11  and  C_13 
REMARK    5  A    between atoms: C_13  and  C_14 
REMARK    6  A    between atoms: C_16  and  S_17 
REMARK    7  A    between atoms: S_17  and  C_18 
REMARK    8  A    between atoms: C_29  and  N_30 
ROOT
HETATM    1  C   UNL     1       4.575  27.321  53.437  1.00  0.00    -0.022 A 
HETATM    2  C   UNL     1       4.876  27.607  54.785  1.00  0.00     0.022 A 
HETATM    3  C   UNL     1       5.487  26.663  55.628  1.00  0.00     0.002 A 
HETATM    4  C   UNL     1       5.778  25.400  55.117  1.00  0.00     0.076 A 
HETATM    5  O   UNL     1       6.320  24.427  55.909  1.00  0.00    -0.349 OA
HETATM    6  C   UNL     1       7.689  24.697  56.239  1.00  0.00     0.203 C 
HETATM    7  C   UNL     1       7.822  25.546  57.512  1.00  0.00     0.262 C 
HETATM    8  N   UNL     1       7.341  26.975  57.326  1.00  0.00    -0.059 N 
HETATM    9  H   UNL     1       7.430  27.439  58.239  1.00  0.00     0.280 HD
HETATM   10  C   UNL     1       5.851  27.022  57.039  1.00  0.00     0.276 C 
HETATM   11  C   UNL     1       5.472  25.080  53.799  1.00  0.00     0.038 A 
HETATM   12  C   UNL     1       4.904  26.042  52.956  1.00  0.00     0.013 A 
ENDROOT
BRANCH   8  13
HETATM   13  C   UNL     1       8.221  27.782  56.385  1.00  0.00     0.299 C 
BRANCH  13  14
HETATM   14  C   UNL     1       8.993  28.886  57.012  1.00  0.00     0.080 A 
HETATM   15  O   UNL     1       8.517  29.375  58.186  1.00  0.00    -0.306 OA
HETATM   16  C   UNL     1       9.389  30.325  58.638  1.00  0.00     0.120 A 
HETATM   17  C   UNL     1      10.369  30.517  57.686  1.00  0.00     0.047 A 
HETATM   18  C   UNL     1      10.122  29.586  56.644  1.00  0.00     0.038 A 
BRANCH  16  19
HETATM   19  S   UNL     1       9.207  31.096  60.190  1.00  0.00    -0.025 SA
BRANCH  19  20
HETATM   20  C   UNL     1       7.662  31.822  59.892  1.00  0.00     0.197 A 
HETATM   21  N   UNL     1       6.729  32.052  60.863  1.00  0.00    -0.322 N 
HETATM   22  C   UNL     1       6.816  31.778  62.273  1.00  0.00     0.159 C 
HETATM   23  C   UNL     1       5.659  32.603  60.219  1.00  0.00     0.235 A 
HETATM   24  N   UNL     1       5.932  32.733  58.939  1.00  0.00    -0.143 NA
HETATM   25  N   UNL     1       7.198  32.245  58.735  1.00  0.00    -0.123 NA
ENDBRANCH  19  20
ENDBRANCH  16  19
ENDBRANCH  13  14
ENDBRANCH   8  13
BRANCH   1  26
HETATM   26  C   UNL     1       3.997  28.416  52.533  1.00  0.00     0.105 C 
HETATM   27  C   UNL     1       4.269  29.784  53.181  1.00  0.00     0.053 C 
BRANCH  26  28
HETATM   28  C   UNL     1       4.556  28.429  51.070  1.00  0.00     0.276 C 
BRANCH  28  29
HETATM   29  N   UNL     1       3.623  27.806  50.026  1.00  0.00    -0.076 N 
HETATM   30  H   UNL     1       2.773  27.490  50.509  1.00  0.00     0.279 HD
HETATM   31  C   UNL     1       3.158  28.775  48.968  1.00  0.00     0.269 C 
HETATM   32  C   UNL     1       4.255  26.592  49.399  1.00  0.00     0.269 C 
ENDBRANCH  28  29
ENDBRANCH  26  28
BRANCH  26  33
HETATM   33  O   UNL     1       2.573  28.234  52.433  1.00  0.00    -0.384 OA
HETATM   34  H   UNL     1       2.273  28.512  51.548  1.00  0.00     0.211 HD
ENDBRANCH  26  33
ENDBRANCH   1  26
TORSDOF 8
ENDMDL
MODEL 5
REMARK VINA RESULT:      -8.4      3.872      8.570
REMARK  8 active torsions:
REMARK  status: ('A' for Active; 'I' for Inactive)
REMARK    1  A    between atoms: C_2  and  C_4 
REMARK    2  A    between atoms: C_2  and  C_29 
REMARK    3  A    between atoms: C_2  and  O_3 
REMARK    4  A    between atoms: N_11  and  C_13 
REMARK    5  A    between atoms: C_13  and  C_14 
REMARK    6  A    between atoms: C_16  and  S_17 
REMARK    7  A    between atoms: S_17  and  C_18 
REMARK    8  A    between atoms: C_29  and  N_30 
ROOT
HETATM    1  C   UNL     1       8.073  23.553  56.512  1.00  0.00    -0.022 A 
HETATM    2  C   UNL     1       6.877  24.147  56.061  1.00  0.00     0.022 A 
HETATM    3  C   UNL     1       6.513  25.456  56.424  1.00  0.00     0.002 A 
HETATM    4  C   UNL     1       7.351  26.171  57.276  1.00  0.00     0.076 A 
HETATM    5  O   UNL     1       7.017  27.425  57.705  1.00  0.00    -0.349 OA
HETATM    6  C   UNL     1       7.116  28.400  56.659  1.00  0.00     0.203 C 
HETATM    7  C   UNL     1       5.810  28.528  55.860  1.00  0.00     0.262 C 
HETATM    8  N   UNL     1       5.511  27.305  55.011  1.00  0.00    -0.059 N 
HETATM    9  H   UNL     1       4.603  27.472  54.559  1.00  0.00     0.280 HD
HETATM   10  C   UNL     1       5.264  26.081  55.875  1.00  0.00     0.276 C 
HETATM   11  C   UNL     1       8.526  25.603  57.757  1.00  0.00     0.038 A 
HETATM   12  C   UNL     1       8.901  24.316  57.354  1.00  0.00     0.013 A 
ENDROOT
BRANCH   8  13
HETATM   13  C   UNL     1       6.495  27.118  53.867  1.00  0.00     0.299 C 
BRANCH  13  14
HETATM   14  C   UNL     1       5.899  26.742  52.559  1.00  0.00     0.080 A 
HETATM   15  O   UNL     1       5.790  27.727  51.631  1.00  0.00    -0.306 OA
HETATM   16  C   UNL     1       5.289  27.180  50.484  1.00  0.00     0.120 A 
HETATM   17  C   UNL     1       4.974  25.858  50.723  1.00  0.00     0.047 A 
HETATM   18  C   UNL     1       5.375  25.572  52.054  1.00  0.00     0.038 A 
BRANCH  16  19
HETATM   19  S   UNL     1       5.129  28.091  49.006  1.00  0.00    -0.025 SA
BRANCH  19  20
HETATM   20  C   UNL     1       3.398  28.073  48.928  1.00  0.00     0.197 A 
HETATM   21  N   UNL     1       2.679  27.170  48.198  1.00  0.00    -0.322 N 
HETATM   22  C   UNL     1       3.163  26.081  47.390  1.00  0.00     0.159 C 
HETATM   23  C   UNL     1       1.370  27.512  48.380  1.00  0.00     0.235 A 
HETATM   24  N   UNL     1       1.291  28.539  49.196  1.00  0.00    -0.143 NA
HETATM   25  N   UNL     1       2.571  28.889  49.546  1.00  0.00    -0.123 NA
ENDBRANCH  19  20
ENDBRANCH  16  19
ENDBRANCH  13  14
ENDBRANCH   8  13
BRANCH   1  26
HETATM   26  C   UNL     1       8.472  22.160  56.011  1.00  0.00     0.105 C 
HETATM   27  C   UNL     1       8.364  21.167  57.181  1.00  0.00     0.053 C 
BRANCH  26  28
HETATM   28  C   UNL     1       7.623  21.621  54.810  1.00  0.00     0.276 C 
BRANCH  28  29
HETATM   29  N   UNL     1       8.318  21.712  53.448  1.00  0.00    -0.076 N 
HETATM   30  H   UNL     1       9.325  21.837  53.614  1.00  0.00     0.279 HD
HETATM   31  C   UNL     1       8.191  20.462  52.613  1.00  0.00     0.269 C 
HETATM   32  C   UNL     1       7.841  22.918  52.682  1.00  0.00     0.269 C 
ENDBRANCH  28  29
ENDBRANCH  26  28
BRANCH  26  33
HETATM   33  O   UNL     1       9.841  22.197  55.571  1.00  0.00    -0.384 OA
HETATM   34  H   UNL     1       9.893  22.662  54.716  1.00  0.00     0.211 HD
ENDBRANCH  26  33
ENDBRANCH   1  26
TORSDOF 8
ENDMDL
MODEL 6
REMARK VINA RESULT:      -8.4      3.516      8.329
REMARK  8 active torsions:
REMARK  status: ('A' for Active; 'I' for Inactive)
REMARK    1  A    between atoms: C_2  and  C_4 
REMARK    2  A    between atoms: C_2  and  C_29 
REMARK    3  A    between atoms: C_2  and  O_3 
REMARK    4  A    between atoms: N_11  and  C_13 
REMARK    5  A    between atoms: C_13  and  C_14 
REMARK    6  A    between atoms: C_16  and  S_17 
REMARK    7  A    between atoms: S_17  and  C_18 
REMARK    8  A    between atoms: C_29  and  N_30 
ROOT
HETATM    1  C   UNL     1       6.774  27.420  56.532  1.00  0.00    -0.022 A 
HETATM    2  C   UNL     1       7.145  27.218  55.186  1.00  0.00     0.022 A 
HETATM    3  C   UNL     1       7.591  25.970  54.717  1.00  0.00     0.002 A 
HETATM    4  C   UNL     1       7.693  24.914  55.619  1.00  0.00     0.076 A 
HETATM    5  O   UNL     1       8.175  23.696  55.227  1.00  0.00    -0.349 OA
HETATM    6  C   UNL     1       7.252  22.993  54.385  1.00  0.00     0.203 C 
HETATM    7  C   UNL     1       7.443  23.338  52.900  1.00  0.00     0.262 C 
HETATM    8  N   UNL     1       7.030  24.760  52.563  1.00  0.00    -0.059 N 
HETATM    9  H   UNL     1       7.239  24.901  51.566  1.00  0.00     0.280 HD
HETATM   10  C   UNL     1       7.917  25.772  53.265  1.00  0.00     0.276 C 
HETATM   11  C   UNL     1       7.358  25.089  56.957  1.00  0.00     0.038 A 
HETATM   12  C   UNL     1       6.872  26.323  57.404  1.00  0.00     0.013 A 
ENDROOT
BRANCH   8  13
HETATM   13  C   UNL     1       5.533  24.992  52.690  1.00  0.00     0.299 C 
BRANCH  13  14
HETATM   14  C   UNL     1       5.043  26.311  52.214  1.00  0.00     0.080 A 
HETATM   15  O   UNL     1       5.379  26.669  50.948  1.00  0.00    -0.306 OA
HETATM   16  C   UNL     1       4.787  27.868  50.671  1.00  0.00     0.120 A 
HETATM   17  C   UNL     1       4.159  28.327  51.810  1.00  0.00     0.047 A 
HETATM   18  C   UNL     1       4.314  27.323  52.801  1.00  0.00     0.038 A 
BRANCH  16  19
HETATM   19  S   UNL     1       4.860  28.604  49.092  1.00  0.00    -0.025 SA
BRANCH  19  20
HETATM   20  C   UNL     1       3.963  27.387  48.245  1.00  0.00     0.197 A 
HETATM   21  N   UNL     1       2.600  27.305  48.250  1.00  0.00    -0.322 N 
HETATM   22  C   UNL     1       1.651  28.168  48.904  1.00  0.00     0.159 C 
HETATM   23  C   UNL     1       2.296  26.208  47.496  1.00  0.00     0.235 A 
HETATM   24  N   UNL     1       3.403  25.671  47.032  1.00  0.00    -0.143 NA
HETATM   25  N   UNL     1       4.454  26.419  47.501  1.00  0.00    -0.123 NA
ENDBRANCH  19  20
ENDBRANCH  16  19
ENDBRANCH  13  14
ENDBRANCH   8  13
BRANCH   1  26
HETATM   26  C   UNL     1       6.203  28.772  56.973  1.00  0.00     0.105 C 
HETATM   27  C   UNL     1       7.210  29.446  57.920  1.00  0.00     0.053 C 
BRANCH  26  28
HETATM   28  C   UNL     1       5.867  29.761  55.805  1.00  0.00     0.276 C 
BRANCH  28  29
HETATM   29  N   UNL     1       4.631  30.633  56.045  1.00  0.00    -0.076 N 
HETATM   30  H   UNL     1       4.144  30.271  56.875  1.00  0.00     0.279 HD
HETATM   31  C   UNL     1       4.951  32.074  56.354  1.00  0.00     0.269 C 
HETATM   32  C   UNL     1       3.672  30.534  54.889  1.00  0.00     0.269 C 
ENDBRANCH  28  29
ENDBRANCH  26  28
BRANCH  26  33
HETATM   33  O   UNL     1       4.979  28.549  57.695  1.00  0.00    -0.384 OA
HETATM   34  H   UNL     1       5.123  27.861  58.370  1.00  0.00     0.211 HD
ENDBRANCH  26  33
ENDBRANCH   1  26
TORSDOF 8
ENDMDL
MODEL 7
REMARK VINA RESULT:      -8.2      2.345      3.192
REMARK  8 active torsions:
REMARK  status: ('A' for Active; 'I' for Inactive)
REMARK    1  A    between atoms: C_2  and  C_4 
REMARK    2  A    between atoms: C_2  and  C_29 
REMARK    3  A    between atoms: C_2  and  O_3 
REMARK    4  A    between atoms: N_11  and  C_13 
REMARK    5  A    between atoms: C_13  and  C_14 
REMARK    6  A    between atoms: C_16  and  S_17 
REMARK    7  A    between atoms: S_17  and  C_18 
REMARK    8  A    between atoms: C_29  and  N_30 
ROOT
HETATM    1  C   UNL     1       6.450  25.827  52.944  1.00  0.00    -0.022 A 
HETATM    2  C   UNL     1       6.311  25.172  54.185  1.00  0.00     0.022 A 
HETATM    3  C   UNL     1       6.917  23.929  54.442  1.00  0.00     0.002 A 
HETATM    4  C   UNL     1       7.650  23.320  53.428  1.00  0.00     0.076 A 
HETATM    5  O   UNL     1       8.211  22.087  53.606  1.00  0.00    -0.349 OA
HETATM    6  C   UNL     1       9.330  22.124  54.503  1.00  0.00     0.203 C 
HETATM    7  C   UNL     1       8.906  21.938  55.967  1.00  0.00     0.262 C 
HETATM    8  N   UNL     1       8.128  23.121  56.516  1.00  0.00    -0.059 N 
HETATM    9  H   UNL     1       7.856  22.878  57.476  1.00  0.00     0.280 HD
HETATM   10  C   UNL     1       6.802  23.290  55.796  1.00  0.00     0.276 C 
HETATM   11  C   UNL     1       7.785  23.930  52.185  1.00  0.00     0.038 A 
HETATM   12  C   UNL     1       7.216  25.187  51.954  1.00  0.00     0.013 A 
ENDROOT
BRANCH   8  13
HETATM   13  C   UNL     1       8.972  24.379  56.650  1.00  0.00     0.299 C 
BRANCH  13  14
HETATM   14  C   UNL     1       8.234  25.612  57.027  1.00  0.00     0.080 A 
HETATM   15  O   UNL     1       8.592  26.758  56.390  1.00  0.00    -0.306 OA
HETATM   16  C   UNL     1       7.764  27.758  56.815  1.00  0.00     0.120 A 
HETATM   17  C   UNL     1       6.947  27.266  57.811  1.00  0.00     0.047 A 
HETATM   18  C   UNL     1       7.241  25.884  57.942  1.00  0.00     0.038 A 
BRANCH  16  19
HETATM   19  S   UNL     1       7.808  29.360  56.129  1.00  0.00    -0.025 SA
BRANCH  19  20
HETATM   20  C   UNL     1       9.347  29.829  56.772  1.00  0.00     0.197 A 
HETATM   21  N   UNL     1       9.503  30.554  57.920  1.00  0.00    -0.322 N 
HETATM   22  C   UNL     1       8.488  31.050  58.813  1.00  0.00     0.159 C 
HETATM   23  C   UNL     1      10.849  30.732  58.060  1.00  0.00     0.235 A 
HETATM   24  N   UNL     1      11.480  30.126  57.078  1.00  0.00    -0.143 NA
HETATM   25  N   UNL     1      10.531  29.552  56.270  1.00  0.00    -0.123 NA
ENDBRANCH  19  20
ENDBRANCH  16  19
ENDBRANCH  13  14
ENDBRANCH   8  13
BRANCH   1  26
HETATM   26  C   UNL     1       5.851  27.224  52.745  1.00  0.00     0.105 C 
HETATM   27  C   UNL     1       5.552  27.423  51.249  1.00  0.00     0.053 C 
BRANCH  26  28
HETATM   28  C   UNL     1       4.547  27.507  53.564  1.00  0.00     0.276 C 
BRANCH  28  29
HETATM   29  N   UNL     1       4.553  28.832  54.333  1.00  0.00    -0.076 N 
HETATM   30  H   UNL     1       5.520  29.180  54.357  1.00  0.00     0.279 HD
HETATM   31  C   UNL     1       3.741  29.922  53.680  1.00  0.00     0.269 C 
HETATM   32  C   UNL     1       4.122  28.626  55.761  1.00  0.00     0.269 C 
ENDBRANCH  28  29
ENDBRANCH  26  28
BRANCH  26  33
HETATM   33  O   UNL     1       6.820  28.208  53.149  1.00  0.00    -0.384 OA
HETATM   34  H   UNL     1       7.522  27.776  53.669  1.00  0.00     0.211 HD
ENDBRANCH  26  33
ENDBRANCH   1  26
TORSDOF 8
ENDMDL
MODEL 8
REMARK VINA RESULT:      -8.0      5.827     10.150
REMARK  8 active torsions:
REMARK  status: ('A' for Active; 'I' for Inactive)
REMARK    1  A    between atoms: C_2  and  C_4 
REMARK    2  A    between atoms: C_2  and  C_29 
REMARK    3  A    between atoms: C_2  and  O_3 
REMARK    4  A    between atoms: N_11  and  C_13 
REMARK    5  A    between atoms: C_13  and  C_14 
REMARK    6  A    between atoms: C_16  and  S_17 
REMARK    7  A    between atoms: S_17  and  C_18 
REMARK    8  A    between atoms: C_29  and  N_30 
ROOT
HETATM    1  C   UNL     1       7.614  32.124  61.853  1.00  0.00    -0.022 A 
HETATM    2  C   UNL     1       6.233  32.148  61.567  1.00  0.00     0.022 A 
HETATM    3  C   UNL     1       5.276  32.481  62.542  1.00  0.00     0.002 A 
HETATM    4  C   UNL     1       5.710  32.767  63.833  1.00  0.00     0.076 A 
HETATM    5  O   UNL     1       4.818  33.041  64.832  1.00  0.00    -0.349 OA
HETATM    6  C   UNL     1       4.198  34.324  64.670  1.00  0.00     0.203 C 
HETATM    7  C   UNL     1       2.928  34.249  63.809  1.00  0.00     0.262 C 
HETATM    8  N   UNL     1       3.216  33.942  62.350  1.00  0.00    -0.059 N 
HETATM    9  H   UNL     1       2.306  33.869  61.877  1.00  0.00     0.280 HD
HETATM   10  C   UNL     1       3.820  32.559  62.186  1.00  0.00     0.276 C 
HETATM   11  C   UNL     1       7.063  32.728  64.153  1.00  0.00     0.038 A 
HETATM   12  C   UNL     1       8.011  32.440  63.164  1.00  0.00     0.013 A 
ENDROOT
BRANCH   8  13
HETATM   13  C   UNL     1       3.944  35.070  61.636  1.00  0.00     0.299 C 
BRANCH  13  14
HETATM   14  C   UNL     1       3.387  35.462  60.316  1.00  0.00     0.080 A 
HETATM   15  O   UNL     1       3.758  34.708  59.248  1.00  0.00    -0.306 OA
HETATM   16  C   UNL     1       3.098  35.175  58.146  1.00  0.00     0.120 A 
HETATM   17  C   UNL     1       2.387  36.303  58.499  1.00  0.00     0.047 A 
HETATM   18  C   UNL     1       2.564  36.484  59.896  1.00  0.00     0.038 A 
BRANCH  16  19
HETATM   19  S   UNL     1       3.195  34.386  56.595  1.00  0.00    -0.025 SA
BRANCH  19  20
HETATM   20  C   UNL     1       4.337  33.162  57.047  1.00  0.00     0.197 A 
HETATM   21  N   UNL     1       4.110  31.822  56.908  1.00  0.00    -0.322 N 
HETATM   22  C   UNL     1       2.951  31.159  56.372  1.00  0.00     0.159 C 
HETATM   23  C   UNL     1       5.228  31.210  57.398  1.00  0.00     0.235 A 
HETATM   24  N   UNL     1       6.097  32.118  57.782  1.00  0.00    -0.143 NA
HETATM   25  N   UNL     1       5.536  33.350  57.555  1.00  0.00    -0.123 NA
ENDBRANCH  19  20
ENDBRANCH  16  19
ENDBRANCH  13  14
ENDBRANCH   8  13
BRANCH   1  26
HETATM   26  C   UNL     1       8.623  31.850  60.733  1.00  0.00     0.105 C 
HETATM   27  C   UNL     1      10.039  32.118  61.269  1.00  0.00     0.053 C 
BRANCH  26  28
HETATM   28  C   UNL     1       8.573  30.402  60.138  1.00  0.00     0.276 C 
BRANCH  28  29
HETATM   29  N   UNL     1       8.655  30.338  58.609  1.00  0.00    -0.076 N 
HETATM   30  H   UNL     1       8.129  31.136  58.230  1.00  0.00     0.279 HD
HETATM   31  C   UNL     1      10.056  30.474  58.066  1.00  0.00     0.269 C 
HETATM   32  C   UNL     1       7.999  29.087  58.089  1.00  0.00     0.269 C 
ENDBRANCH  28  29
ENDBRANCH  26  28
BRANCH  26  33
HETATM   33  O   UNL     1       8.370  32.756  59.645  1.00  0.00    -0.384 OA
HETATM   34  H   UNL     1       7.899  33.541  59.981  1.00  0.00     0.211 HD
ENDBRANCH  26  33
ENDBRANCH   1  26
TORSDOF 8
ENDMDL
MODEL 9
REMARK VINA RESULT:      -8.0      6.181     10.645
REMARK  8 active torsions:
REMARK  status: ('A' for Active; 'I' for Inactive)
REMARK    1  A    between atoms: C_2  and  C_4 
REMARK    2  A    between atoms: C_2  and  C_29 
REMARK    3  A    between atoms: C_2  and  O_3 
REMARK    4  A    between atoms: N_11  and  C_13 
REMARK    5  A    between atoms: C_13  and  C_14 
REMARK    6  A    between atoms: C_16  and  S_17 
REMARK    7  A    between atoms: S_17  and  C_18 
REMARK    8  A    between atoms: C_29  and  N_30 
ROOT
HETATM    1  C   UNL     1       7.604  32.161  61.817  1.00  0.00    -0.022 A 
HETATM    2  C   UNL     1       6.254  31.917  61.492  1.00  0.00     0.022 A 
HETATM    3  C   UNL     1       5.204  32.279  62.354  1.00  0.00     0.002 A 
HETATM    4  C   UNL     1       5.515  32.872  63.575  1.00  0.00     0.076 A 
HETATM    5  O   UNL     1       4.536  33.191  64.473  1.00  0.00    -0.349 OA
HETATM    6  C   UNL     1       3.746  34.308  64.041  1.00  0.00     0.203 C 
HETATM    7  C   UNL     1       2.553  33.875  63.177  1.00  0.00     0.262 C 
HETATM    8  N   UNL     1       2.967  33.341  61.816  1.00  0.00    -0.059 N 
HETATM    9  H   UNL     1       2.107  33.040  61.341  1.00  0.00     0.280 HD
HETATM   10  C   UNL     1       3.775  32.063  61.948  1.00  0.00     0.276 C 
HETATM   11  C   UNL     1       6.838  33.104  63.934  1.00  0.00     0.038 A 
HETATM   12  C   UNL     1       7.874  32.780  63.050  1.00  0.00     0.013 A 
ENDROOT
BRANCH   8  13
HETATM   13  C   UNL     1       3.564  34.410  60.914  1.00  0.00     0.299 C 
BRANCH  13  14
HETATM   14  C   UNL     1       3.487  34.138  59.455  1.00  0.00     0.080 A 
HETATM   15  O   UNL     1       2.787  35.027  58.703  1.00  0.00    -0.306 OA
HETATM   16  C   UNL     1       2.887  34.649  57.394  1.00  0.00     0.120 A 
HETATM   17  C   UNL     1       3.564  33.449  57.327  1.00  0.00     0.047 A 
HETATM   18  C   UNL     1       3.959  33.123  58.651  1.00  0.00     0.038 A 
BRANCH  16  19
HETATM   19  S   UNL     1       2.240  35.613  56.093  1.00  0.00    -0.025 SA
BRANCH  19  20
HETATM   20  C   UNL     1       0.752  34.745  55.901  1.00  0.00     0.197 A 
HETATM   21  N   UNL     1       0.537  33.809  54.930  1.00  0.00    -0.322 N 
HETATM   22  C   UNL     1       1.447  33.342  53.917  1.00  0.00     0.159 C 
HETATM   23  C   UNL     1      -0.750  33.390  55.105  1.00  0.00     0.235 A 
HETATM   24  N   UNL     1      -1.280  34.006  56.138  1.00  0.00    -0.143 NA
HETATM   25  N   UNL     1      -0.329  34.857  56.643  1.00  0.00    -0.123 NA
ENDBRANCH  19  20
ENDBRANCH  16  19
ENDBRANCH  13  14
ENDBRANCH   8  13
BRANCH   1  26
HETATM   26  C   UNL     1       8.707  31.836  60.803  1.00  0.00     0.105 C 
HETATM   27  C   UNL     1      10.056  31.794  61.540  1.00  0.00     0.053 C 
BRANCH  26  28
HETATM   28  C   UNL     1       8.513  30.490  60.025  1.00  0.00     0.276 C 
BRANCH  28  29
HETATM   29  N   UNL     1       8.488  30.635  58.500  1.00  0.00    -0.076 N 
HETATM   30  H   UNL     1       8.455  31.638  58.277  1.00  0.00     0.279 HD
HETATM   31  C   UNL     1       9.723  30.103  57.816  1.00  0.00     0.269 C 
HETATM   32  C   UNL     1       7.246  30.011  57.923  1.00  0.00     0.269 C 
ENDBRANCH  28  29
ENDBRANCH  26  28
BRANCH  26  33
HETATM   33  O   UNL     1       8.759  32.883  59.818  1.00  0.00    -0.384 OA
HETATM   34  H   UNL     1       9.630  32.873  59.380  1.00  0.00     0.211 HD
ENDBRANCH  26  33
ENDBRANCH   1  26
TORSDOF 8
ENDMDL
MODEL 10
REMARK VINA RESULT:      -8.0      2.988      7.752
REMARK  8 active torsions:
REMARK  status: ('A' for Active; 'I' for Inactive)
REMARK    1  A    between atoms: C_2  and  C_4 
REMARK    2  A    between atoms: C_2  and  C_29 
REMARK    3  A    between atoms: C_2  and  O_3 
REMARK    4  A    between atoms: N_11  and  C_13 
REMARK    5  A    between atoms: C_13  and  C_14 
REMARK    6  A    between atoms: C_16  and  S_17 
REMARK    7  A    between atoms: S_17  and  C_18 
REMARK    8  A    between atoms: C_29  and  N_30 
ROOT
HETATM    1  C   UNL     1       7.373  27.281  56.450  1.00  0.00    -0.022 A 
HETATM    2  C   UNL     1       7.539  26.986  55.081  1.00  0.00     0.022 A 
HETATM    3  C   UNL     1       7.849  25.691  54.631  1.00  0.00     0.002 A 
HETATM    4  C   UNL     1       8.021  24.680  55.572  1.00  0.00     0.076 A 
HETATM    5  O   UNL     1       8.379  23.416  55.192  1.00  0.00    -0.349 OA
HETATM    6  C   UNL     1       7.310  22.726  54.529  1.00  0.00     0.203 C 
HETATM    7  C   UNL     1       7.308  22.981  53.015  1.00  0.00     0.262 C 
HETATM    8  N   UNL     1       6.927  24.405  52.652  1.00  0.00    -0.059 N 
HETATM    9  H   UNL     1       7.001  24.481  51.629  1.00  0.00     0.280 HD
HETATM   10  C   UNL     1       7.956  25.398  53.162  1.00  0.00     0.276 C 
HETATM   11  C   UNL     1       7.888  24.944  56.931  1.00  0.00     0.038 A 
HETATM   12  C   UNL     1       7.535  26.227  57.366  1.00  0.00     0.013 A 
ENDROOT
BRANCH   8  13
HETATM   13  C   UNL     1       5.477  24.734  52.969  1.00  0.00     0.299 C 
BRANCH  13  14
HETATM   14  C   UNL     1       5.001  26.062  52.504  1.00  0.00     0.080 A 
HETATM   15  O   UNL     1       5.113  26.322  51.176  1.00  0.00    -0.306 OA
HETATM   16  C   UNL     1       4.565  27.550  50.933  1.00  0.00     0.120 A 
HETATM   17  C   UNL     1       4.202  28.120  52.136  1.00  0.00     0.047 A 
HETATM   18  C   UNL     1       4.472  27.161  53.146  1.00  0.00     0.038 A 
BRANCH  16  19
HETATM   19  S   UNL     1       4.387  28.191  49.322  1.00  0.00    -0.025 SA
BRANCH  19  20
HETATM   20  C   UNL     1       4.944  29.796  49.665  1.00  0.00     0.197 A 
HETATM   21  N   UNL     1       4.122  30.883  49.757  1.00  0.00    -0.322 N 
HETATM   22  C   UNL     1       2.690  30.939  49.617  1.00  0.00     0.159 C 
HETATM   23  C   UNL     1       4.944  31.943  50.009  1.00  0.00     0.235 A 
HETATM   24  N   UNL     1       6.188  31.526  50.099  1.00  0.00    -0.143 NA
HETATM   25  N   UNL     1       6.186  30.170  49.887  1.00  0.00    -0.123 NA
ENDBRANCH  19  20
ENDBRANCH  16  19
ENDBRANCH  13  14
ENDBRANCH   8  13
BRANCH   1  26
HETATM   26  C   UNL     1       6.941  28.687  56.883  1.00  0.00     0.105 C 
HETATM   27  C   UNL     1       5.422  28.683  57.122  1.00  0.00     0.053 C 
BRANCH  26  28
HETATM   28  C   UNL     1       7.654  29.232  58.167  1.00  0.00     0.276 C 
BRANCH  28  29
HETATM   29  N   UNL     1       7.937  30.737  58.147  1.00  0.00    -0.076 N 
HETATM   30  H   UNL     1       7.849  31.064  57.177  1.00  0.00     0.279 HD
HETATM   31  C   UNL     1       6.952  31.554  58.946  1.00  0.00     0.269 C 
HETATM   32  C   UNL     1       9.349  31.023  58.586  1.00  0.00     0.269 C 
ENDBRANCH  28  29
ENDBRANCH  26  28
BRANCH  26  33
HETATM   33  O   UNL     1       7.231  29.612  55.820  1.00  0.00    -0.384 OA
HETATM   34  H   UNL     1       7.779  30.341  56.167  1.00  0.00     0.211 HD
ENDBRANCH  26  33
ENDBRANCH   1  26
TORSDOF 8
ENDMDL
