MODEL 1
REMARK VINA RESULT:     -10.5      0.000      0.000
REMARK  3 active torsions:
REMARK  status: ('A' for Active; 'I' for Inactive)
REMARK    1  A    between atoms: C_3  and  N_4 
REMARK    2  A    between atoms: C_14  and  N_15 
REMARK       I    between atoms: N_15  and  C_16 
REMARK    3  A    between atoms: C_16  and  C_17 
ROOT
HETATM    1  N   UNL     1       7.453  23.620  53.760  1.00  0.00    -0.237 N 
HETATM    2  N   UNL     1       7.906  23.503  52.481  1.00  0.00    -0.179 NA
HETATM    3  C   UNL     1       7.364  24.512  51.808  1.00  0.00     0.150 A 
HETATM    4  C   UNL     1       6.538  25.304  52.610  1.00  0.00     0.008 A 
HETATM    5  C   UNL     1       6.624  24.735  53.867  1.00  0.00     0.047 A 
HETATM    6  C   UNL     1       6.013  25.322  55.100  1.00  0.00     0.069 C 
HETATM    7  C   UNL     1       5.635  26.822  54.885  1.00  0.00    -0.040 C 
HETATM    8  C   UNL     1       6.886  27.716  54.993  1.00  0.00     0.015 C 
HETATM    9  C   UNL     1       4.651  27.245  55.992  1.00  0.00     0.015 C 
HETATM   10  C   UNL     1       4.942  27.011  53.501  1.00  0.00     0.039 C 
HETATM   11  C   UNL     1       5.806  26.564  52.298  1.00  0.00     0.122 C 
ENDROOT
BRANCH  11  12
HETATM   12  N   UNL     1       4.977  26.331  51.133  1.00  0.00    -0.347 N 
HETATM   13  C   UNL     1       4.892  27.261  50.129  1.00  0.00     0.270 C 
HETATM   14  O   UNL     1       5.549  28.299  50.104  1.00  0.00    -0.266 OA
HETATM   15  H   UNL     1       4.336  25.552  51.165  1.00  0.00     0.163 HD
BRANCH  13  16
HETATM   16  C   UNL     1       3.928  26.958  49.041  1.00  0.00     0.120 A 
HETATM   17  N   UNL     1       2.591  27.259  49.183  1.00  0.00    -0.303 N 
HETATM   18  C   UNL     1       1.901  26.882  48.031  1.00  0.00     0.324 A 
HETATM   19  H   UNL     1       2.183  27.693  49.998  1.00  0.00     0.171 HD
HETATM   20  O   UNL     1       0.713  26.993  47.796  1.00  0.00    -0.247 OA
HETATM   21  N   UNL     1       2.888  26.340  47.195  1.00  0.00    -0.316 N 
HETATM   22  C   UNL     1       4.105  26.402  47.830  1.00  0.00     0.128 A 
HETATM   23  H   UNL     1       2.692  25.978  46.274  1.00  0.00     0.170 HD
ENDBRANCH  13  16
ENDBRANCH  11  12
BRANCH   1  24
HETATM   24  C   UNL     1       7.822  22.651  54.750  1.00  0.00     0.064 A 
HETATM   25  C   UNL     1       7.933  21.271  54.445  1.00  0.00    -0.033 A 
HETATM   26  C   UNL     1       7.734  20.685  53.071  1.00  0.00     0.050 C 
HETATM   27  C   UNL     1       8.271  20.369  55.476  1.00  0.00     0.009 A 
HETATM   28  C   UNL     1       8.509  20.809  56.775  1.00  0.00     0.001 A 
HETATM   29  C   UNL     1       8.398  22.159  57.075  1.00  0.00     0.002 A 
HETATM   30  C   UNL     1       8.051  23.071  56.074  1.00  0.00     0.032 A 
ENDBRANCH   1  24
TORSDOF 3
ENDMDL
MODEL 2
REMARK VINA RESULT:     -10.2      4.307      6.991
REMARK  3 active torsions:
REMARK  status: ('A' for Active; 'I' for Inactive)
REMARK    1  A    between atoms: C_3  and  N_4 
REMARK    2  A    between atoms: C_14  and  N_15 
REMARK       I    between atoms: N_15  and  C_16 
REMARK    3  A    between atoms: C_16  and  C_17 
ROOT
HETATM    1  N   UNL     1       7.931  23.632  55.278  1.00  0.00    -0.237 N 
HETATM    2  N   UNL     1       8.131  23.887  56.601  1.00  0.00    -0.179 NA
HETATM    3  C   UNL     1       7.852  25.176  56.770  1.00  0.00     0.150 A 
HETATM    4  C   UNL     1       7.478  25.800  55.576  1.00  0.00     0.008 A 
HETATM    5  C   UNL     1       7.510  24.792  54.631  1.00  0.00     0.047 A 
HETATM    6  C   UNL     1       7.050  24.950  53.216  1.00  0.00     0.069 C 
HETATM    7  C   UNL     1       6.167  26.227  53.048  1.00  0.00    -0.040 C 
HETATM    8  C   UNL     1       4.736  25.967  53.558  1.00  0.00     0.015 C 
HETATM    9  C   UNL     1       6.082  26.572  51.549  1.00  0.00     0.015 C 
HETATM   10  C   UNL     1       6.810  27.431  53.802  1.00  0.00     0.039 C 
HETATM   11  C   UNL     1       7.009  27.191  55.318  1.00  0.00     0.122 C 
ENDROOT
BRANCH  11  12
HETATM   12  N   UNL     1       7.992  28.109  55.855  1.00  0.00    -0.347 N 
HETATM   13  C   UNL     1       7.778  28.757  57.044  1.00  0.00     0.270 C 
HETATM   14  O   UNL     1       6.800  28.560  57.761  1.00  0.00    -0.266 OA
HETATM   15  H   UNL     1       8.751  28.387  55.249  1.00  0.00     0.163 HD
BRANCH  13  16
HETATM   16  C   UNL     1       8.807  29.753  57.437  1.00  0.00     0.120 A 
HETATM   17  N   UNL     1       8.529  30.713  58.385  1.00  0.00    -0.303 N 
HETATM   18  C   UNL     1       9.651  31.519  58.578  1.00  0.00     0.324 A 
HETATM   19  H   UNL     1       7.647  30.806  58.868  1.00  0.00     0.171 HD
HETATM   20  O   UNL     1       9.777  32.463  59.334  1.00  0.00    -0.247 OA
HETATM   21  N   UNL     1      10.610  30.998  57.699  1.00  0.00    -0.316 N 
HETATM   22  C   UNL     1      10.074  29.928  57.024  1.00  0.00     0.128 A 
HETATM   23  H   UNL     1      11.542  31.376  57.613  1.00  0.00     0.170 HD
ENDBRANCH  13  16
ENDBRANCH  11  12
BRANCH   1  24
HETATM   24  C   UNL     1       8.188  22.325  54.747  1.00  0.00     0.064 A 
HETATM   25  C   UNL     1       8.412  21.204  55.587  1.00  0.00    -0.033 A 
HETATM   26  C   UNL     1       8.354  21.245  57.092  1.00  0.00     0.050 C 
HETATM   27  C   UNL     1       8.688  19.954  54.995  1.00  0.00     0.009 A 
HETATM   28  C   UNL     1       8.732  19.799  53.612  1.00  0.00     0.001 A 
HETATM   29  C   UNL     1       8.515  20.895  52.791  1.00  0.00     0.002 A 
HETATM   30  C   UNL     1       8.252  22.148  53.353  1.00  0.00     0.032 A 
ENDBRANCH   1  24
TORSDOF 3
ENDMDL
MODEL 3
REMARK VINA RESULT:      -9.5     13.074     16.609
REMARK  3 active torsions:
REMARK  status: ('A' for Active; 'I' for Inactive)
REMARK    1  A    between atoms: C_3  and  N_4 
REMARK    2  A    between atoms: C_14  and  N_15 
REMARK       I    between atoms: N_15  and  C_16 
REMARK    3  A    between atoms: C_16  and  C_17 
ROOT
HETATM    1  N   UNL     1       5.463  33.130  62.399  1.00  0.00    -0.237 N 
HETATM    2  N   UNL     1       5.195  32.250  63.403  1.00  0.00    -0.179 NA
HETATM    3  C   UNL     1       5.003  32.986  64.492  1.00  0.00     0.150 A 
HETATM    4  C   UNL     1       5.151  34.354  64.243  1.00  0.00     0.008 A 
HETATM    5  C   UNL     1       5.421  34.433  62.890  1.00  0.00     0.047 A 
HETATM    6  C   UNL     1       5.522  35.716  62.125  1.00  0.00     0.069 C 
HETATM    7  C   UNL     1       4.891  36.901  62.924  1.00  0.00    -0.040 C 
HETATM    8  C   UNL     1       3.354  36.872  62.812  1.00  0.00     0.015 C 
HETATM    9  C   UNL     1       5.388  38.226  62.314  1.00  0.00     0.015 C 
HETATM   10  C   UNL     1       5.335  36.842  64.418  1.00  0.00     0.039 C 
HETATM   11  C   UNL     1       4.947  35.528  65.138  1.00  0.00     0.122 C 
ENDROOT
BRANCH  11  12
HETATM   12  N   UNL     1       5.757  35.340  66.325  1.00  0.00    -0.347 N 
HETATM   13  C   UNL     1       5.211  34.838  67.478  1.00  0.00     0.270 C 
HETATM   14  O   UNL     1       4.049  34.452  67.572  1.00  0.00    -0.266 OA
HETATM   15  H   UNL     1       6.680  35.747  66.330  1.00  0.00     0.163 HD
BRANCH  13  16
HETATM   16  C   UNL     1       6.113  34.791  68.658  1.00  0.00     0.120 A 
HETATM   17  N   UNL     1       7.476  34.667  68.495  1.00  0.00    -0.303 N 
HETATM   18  C   UNL     1       8.097  34.651  69.744  1.00  0.00     0.324 A 
HETATM   19  H   UNL     1       7.946  34.606  67.604  1.00  0.00     0.171 HD
HETATM   20  O   UNL     1       9.283  34.555  69.992  1.00  0.00    -0.247 OA
HETATM   21  N   UNL     1       7.042  34.769  70.659  1.00  0.00    -0.316 N 
HETATM   22  C   UNL     1       5.853  34.855  69.974  1.00  0.00     0.128 A 
HETATM   23  H   UNL     1       7.179  34.790  71.659  1.00  0.00     0.170 HD
ENDBRANCH  13  16
ENDBRANCH  11  12
BRANCH   1  24
HETATM   24  C   UNL     1       5.762  32.654  61.080  1.00  0.00     0.064 A 
HETATM   25  C   UNL     1       7.074  32.271  60.700  1.00  0.00    -0.033 A 
HETATM   26  C   UNL     1       8.261  32.269  61.627  1.00  0.00     0.050 C 
HETATM   27  C   UNL     1       7.301  31.840  59.376  1.00  0.00     0.009 A 
HETATM   28  C   UNL     1       6.266  31.771  58.447  1.00  0.00     0.001 A 
HETATM   29  C   UNL     1       4.984  32.148  58.818  1.00  0.00     0.002 A 
HETATM   30  C   UNL     1       4.735  32.591  60.120  1.00  0.00     0.032 A 
ENDBRANCH   1  24
TORSDOF 3
ENDMDL
MODEL 4
REMARK VINA RESULT:      -9.5      3.405      5.797
REMARK  3 active torsions:
REMARK  status: ('A' for Active; 'I' for Inactive)
REMARK    1  A    between atoms: C_3  and  N_4 
REMARK    2  A    between atoms: C_14  and  N_15 
REMARK       I    between atoms: N_15  and  C_16 
REMARK    3  A    between atoms: C_16  and  C_17 
ROOT
HETATM    1  N   UNL     1       7.084  29.285  56.600  1.00  0.00    -0.237 N 
HETATM    2  N   UNL     1       6.086  30.034  56.054  1.00  0.00    -0.179 NA
HETATM    3  C   UNL     1       5.446  29.231  55.210  1.00  0.00     0.150 A 
HETATM    4  C   UNL     1       6.005  27.950  55.167  1.00  0.00     0.008 A 
HETATM    5  C   UNL     1       7.040  27.992  56.082  1.00  0.00     0.047 A 
HETATM    6  C   UNL     1       7.853  26.802  56.488  1.00  0.00     0.069 C 
HETATM    7  C   UNL     1       7.144  25.470  56.085  1.00  0.00    -0.040 C 
HETATM    8  C   UNL     1       6.019  25.131  57.082  1.00  0.00     0.015 C 
HETATM    9  C   UNL     1       8.180  24.329  56.130  1.00  0.00     0.015 C 
HETATM   10  C   UNL     1       6.581  25.576  54.635  1.00  0.00     0.039 C 
HETATM   11  C   UNL     1       5.567  26.728  54.436  1.00  0.00     0.122 C 
ENDROOT
BRANCH  11  12
HETATM   12  N   UNL     1       5.442  27.059  53.031  1.00  0.00    -0.347 N 
HETATM   13  C   UNL     1       4.957  26.146  52.131  1.00  0.00     0.270 C 
HETATM   14  O   UNL     1       4.535  25.036  52.446  1.00  0.00    -0.266 OA
HETATM   15  H   UNL     1       5.880  27.910  52.711  1.00  0.00     0.163 HD
BRANCH  13  16
HETATM   16  C   UNL     1       4.976  26.563  50.706  1.00  0.00     0.120 A 
HETATM   17  N   UNL     1       4.323  25.819  49.748  1.00  0.00    -0.303 N 
HETATM   18  C   UNL     1       4.488  26.417  48.498  1.00  0.00     0.324 A 
HETATM   19  H   UNL     1       3.802  24.975  49.931  1.00  0.00     0.171 HD
HETATM   20  O   UNL     1       4.055  26.046  47.424  1.00  0.00    -0.247 OA
HETATM   21  N   UNL     1       5.270  27.551  48.755  1.00  0.00    -0.316 N 
HETATM   22  C   UNL     1       5.549  27.617  50.099  1.00  0.00     0.128 A 
HETATM   23  H   UNL     1       5.557  28.198  48.035  1.00  0.00     0.170 HD
ENDBRANCH  13  16
ENDBRANCH  11  12
BRANCH   1  24
HETATM   24  C   UNL     1       8.000  29.871  57.534  1.00  0.00     0.064 A 
HETATM   25  C   UNL     1       9.375  30.041  57.231  1.00  0.00    -0.033 A 
HETATM   26  C   UNL     1      10.004  29.686  55.909  1.00  0.00     0.050 C 
HETATM   27  C   UNL     1      10.225  30.598  58.210  1.00  0.00     0.009 A 
HETATM   28  C   UNL     1       9.738  30.992  59.453  1.00  0.00     0.001 A 
HETATM   29  C   UNL     1       8.394  30.824  59.750  1.00  0.00     0.002 A 
HETATM   30  C   UNL     1       7.534  30.262  58.803  1.00  0.00     0.032 A 
ENDBRANCH   1  24
TORSDOF 3
ENDMDL
MODEL 5
REMARK VINA RESULT:      -9.3      4.714      7.251
REMARK  3 active torsions:
REMARK  status: ('A' for Active; 'I' for Inactive)
REMARK    1  A    between atoms: C_3  and  N_4 
REMARK    2  A    between atoms: C_14  and  N_15 
REMARK       I    between atoms: N_15  and  C_16 
REMARK    3  A    between atoms: C_16  and  C_17 
ROOT
HETATM    1  N   UNL     1       6.276  25.364  55.615  1.00  0.00    -0.237 N 
HETATM    2  N   UNL     1       5.726  25.232  56.854  1.00  0.00    -0.179 NA
HETATM    3  C   UNL     1       5.049  26.354  57.075  1.00  0.00     0.150 A 
HETATM    4  C   UNL     1       5.143  27.251  56.006  1.00  0.00     0.008 A 
HETATM    5  C   UNL     1       5.913  26.592  55.066  1.00  0.00     0.047 A 
HETATM    6  C   UNL     1       6.175  27.104  53.685  1.00  0.00     0.069 C 
HETATM    7  C   UNL     1       5.165  28.231  53.298  1.00  0.00    -0.040 C 
HETATM    8  C   UNL     1       3.807  27.625  52.893  1.00  0.00     0.015 C 
HETATM    9  C   UNL     1       5.725  28.998  52.085  1.00  0.00     0.015 C 
HETATM   10  C   UNL     1       4.990  29.229  54.483  1.00  0.00     0.039 C 
HETATM   11  C   UNL     1       4.487  28.571  55.791  1.00  0.00     0.122 C 
ENDROOT
BRANCH  11  12
HETATM   12  N   UNL     1       4.780  29.415  56.931  1.00  0.00    -0.347 N 
HETATM   13  C   UNL     1       3.887  30.367  57.353  1.00  0.00     0.270 C 
HETATM   14  O   UNL     1       2.774  30.524  56.859  1.00  0.00    -0.266 OA
HETATM   15  H   UNL     1       5.722  29.401  57.293  1.00  0.00     0.163 HD
BRANCH  13  16
HETATM   16  C   UNL     1       4.345  31.242  58.463  1.00  0.00     0.120 A 
HETATM   17  N   UNL     1       5.683  31.331  58.780  1.00  0.00    -0.303 N 
HETATM   18  C   UNL     1       5.852  32.212  59.848  1.00  0.00     0.324 A 
HETATM   19  H   UNL     1       6.422  30.837  58.302  1.00  0.00     0.171 HD
HETATM   20  O   UNL     1       6.888  32.539  60.396  1.00  0.00    -0.247 OA
HETATM   21  N   UNL     1       4.554  32.643  60.155  1.00  0.00    -0.316 N 
HETATM   22  C   UNL     1       3.662  32.042  59.299  1.00  0.00     0.128 A 
HETATM   23  H   UNL     1       4.351  33.299  60.894  1.00  0.00     0.170 HD
ENDBRANCH  13  16
ENDBRANCH  11  12
BRANCH   1  24
HETATM   24  C   UNL     1       7.115  24.331  55.083  1.00  0.00     0.064 A 
HETATM   25  C   UNL     1       8.302  23.915  55.739  1.00  0.00    -0.033 A 
HETATM   26  C   UNL     1       8.777  24.459  57.062  1.00  0.00     0.050 C 
HETATM   27  C   UNL     1       9.096  22.914  55.142  1.00  0.00     0.009 A 
HETATM   28  C   UNL     1       8.730  22.321  53.936  1.00  0.00     0.001 A 
HETATM   29  C   UNL     1       7.570  22.729  53.294  1.00  0.00     0.002 A 
HETATM   30  C   UNL     1       6.774  23.729  53.858  1.00  0.00     0.032 A 
ENDBRANCH   1  24
TORSDOF 3
ENDMDL
MODEL 6
REMARK VINA RESULT:      -9.2      4.536      7.323
REMARK  3 active torsions:
REMARK  status: ('A' for Active; 'I' for Inactive)
REMARK    1  A    between atoms: C_3  and  N_4 
REMARK    2  A    between atoms: C_14  and  N_15 
REMARK       I    between atoms: N_15  and  C_16 
REMARK    3  A    between atoms: C_16  and  C_17 
ROOT
HETATM    1  N   UNL     1       6.552  25.198  55.548  1.00  0.00    -0.237 N 
HETATM    2  N   UNL     1       6.124  25.085  56.837  1.00  0.00    -0.179 NA
HETATM    3  C   UNL     1       5.515  26.231  57.121  1.00  0.00     0.150 A 
HETATM    4  C   UNL     1       5.535  27.125  56.047  1.00  0.00     0.008 A 
HETATM    5  C   UNL     1       6.182  26.439  55.036  1.00  0.00     0.047 A 
HETATM    6  C   UNL     1       6.324  26.943  53.634  1.00  0.00     0.069 C 
HETATM    7  C   UNL     1       5.322  28.108  53.348  1.00  0.00    -0.040 C 
HETATM    8  C   UNL     1       3.909  27.554  53.081  1.00  0.00     0.015 C 
HETATM    9  C   UNL     1       5.786  28.856  52.083  1.00  0.00     0.015 C 
HETATM   10  C   UNL     1       5.304  29.109  54.542  1.00  0.00     0.039 C 
HETATM   11  C   UNL     1       4.910  28.469  55.895  1.00  0.00     0.122 C 
ENDROOT
BRANCH  11  12
HETATM   12  N   UNL     1       5.347  29.300  56.999  1.00  0.00    -0.347 N 
HETATM   13  C   UNL     1       6.647  29.724  57.091  1.00  0.00     0.270 C 
HETATM   14  O   UNL     1       7.499  29.501  56.235  1.00  0.00    -0.266 OA
HETATM   15  H   UNL     1       4.716  29.410  57.779  1.00  0.00     0.163 HD
BRANCH  13  16
HETATM   16  C   UNL     1       7.000  30.478  58.321  1.00  0.00     0.120 A 
HETATM   17  N   UNL     1       7.884  29.953  59.237  1.00  0.00    -0.303 N 
HETATM   18  C   UNL     1       8.050  30.848  60.294  1.00  0.00     0.324 A 
HETATM   19  H   UNL     1       8.344  29.059  59.147  1.00  0.00     0.171 HD
HETATM   20  O   UNL     1       8.751  30.726  61.280  1.00  0.00    -0.247 OA
HETATM   21  N   UNL     1       7.222  31.931  59.967  1.00  0.00    -0.316 N 
HETATM   22  C   UNL     1       6.601  31.682  58.766  1.00  0.00     0.128 A 
HETATM   23  H   UNL     1       7.131  32.751  60.548  1.00  0.00     0.170 HD
ENDBRANCH  13  16
ENDBRANCH  11  12
BRANCH   1  24
HETATM   24  C   UNL     1       7.295  24.135  54.937  1.00  0.00     0.064 A 
HETATM   25  C   UNL     1       8.470  23.604  55.527  1.00  0.00    -0.033 A 
HETATM   26  C   UNL     1       9.028  24.046  56.856  1.00  0.00     0.050 C 
HETATM   27  C   UNL     1       9.167  22.579  54.855  1.00  0.00     0.009 A 
HETATM   28  C   UNL     1       8.719  22.074  53.637  1.00  0.00     0.001 A 
HETATM   29  C   UNL     1       7.571  22.595  53.059  1.00  0.00     0.002 A 
HETATM   30  C   UNL     1       6.869  23.620  53.699  1.00  0.00     0.032 A 
ENDBRANCH   1  24
TORSDOF 3
ENDMDL
MODEL 7
REMARK VINA RESULT:      -9.2      1.398      2.154
REMARK  3 active torsions:
REMARK  status: ('A' for Active; 'I' for Inactive)
REMARK    1  A    between atoms: C_3  and  N_4 
REMARK    2  A    between atoms: C_14  and  N_15 
REMARK       I    between atoms: N_15  and  C_16 
REMARK    3  A    between atoms: C_16  and  C_17 
ROOT
HETATM    1  N   UNL     1       7.039  25.005  54.011  1.00  0.00    -0.237 N 
HETATM    2  N   UNL     1       7.464  24.835  52.729  1.00  0.00    -0.179 NA
HETATM    3  C   UNL     1       6.824  25.749  52.007  1.00  0.00     0.150 A 
HETATM    4  C   UNL     1       5.959  26.528  52.781  1.00  0.00     0.008 A 
HETATM    5  C   UNL     1       6.126  26.056  54.070  1.00  0.00     0.047 A 
HETATM    6  C   UNL     1       5.504  26.677  55.281  1.00  0.00     0.069 C 
HETATM    7  C   UNL     1       5.000  28.125  54.978  1.00  0.00    -0.040 C 
HETATM    8  C   UNL     1       6.177  29.120  54.984  1.00  0.00     0.015 C 
HETATM    9  C   UNL     1       4.016  28.545  56.086  1.00  0.00     0.015 C 
HETATM   10  C   UNL     1       4.256  28.161  53.609  1.00  0.00     0.039 C 
HETATM   11  C   UNL     1       5.120  27.702  52.410  1.00  0.00     0.122 C 
ENDROOT
BRANCH  11  12
HETATM   12  N   UNL     1       4.280  27.323  51.292  1.00  0.00    -0.347 N 
HETATM   13  C   UNL     1       4.537  27.787  50.027  1.00  0.00     0.270 C 
HETATM   14  O   UNL     1       5.511  28.477  49.739  1.00  0.00    -0.266 OA
HETATM   15  H   UNL     1       3.409  26.856  51.499  1.00  0.00     0.163 HD
BRANCH  13  16
HETATM   16  C   UNL     1       3.545  27.418  48.985  1.00  0.00     0.120 A 
HETATM   17  N   UNL     1       3.807  26.397  48.097  1.00  0.00    -0.303 N 
HETATM   18  C   UNL     1       2.727  26.245  47.227  1.00  0.00     0.324 A 
HETATM   19  H   UNL     1       4.651  25.843  48.090  1.00  0.00     0.171 HD
HETATM   20  O   UNL     1       2.601  25.448  46.318  1.00  0.00    -0.247 OA
HETATM   21  N   UNL     1       1.810  27.224  47.635  1.00  0.00    -0.316 N 
HETATM   22  C   UNL     1       2.330  27.917  48.702  1.00  0.00     0.128 A 
HETATM   23  H   UNL     1       0.915  27.360  47.190  1.00  0.00     0.170 HD
ENDBRANCH  13  16
ENDBRANCH  11  12
BRANCH   1  24
HETATM   24  C   UNL     1       7.512  24.139  55.051  1.00  0.00     0.064 A 
HETATM   25  C   UNL     1       8.160  24.640  56.209  1.00  0.00    -0.033 A 
HETATM   26  C   UNL     1       8.371  26.104  56.498  1.00  0.00     0.050 C 
HETATM   27  C   UNL     1       8.627  23.727  57.178  1.00  0.00     0.009 A 
HETATM   28  C   UNL     1       8.453  22.355  57.025  1.00  0.00     0.001 A 
HETATM   29  C   UNL     1       7.821  21.864  55.892  1.00  0.00     0.002 A 
HETATM   30  C   UNL     1       7.361  22.747  54.911  1.00  0.00     0.032 A 
ENDBRANCH   1  24
TORSDOF 3
ENDMDL
MODEL 8
REMARK VINA RESULT:      -9.0      3.796      8.100
REMARK  3 active torsions:
REMARK  status: ('A' for Active; 'I' for Inactive)
REMARK    1  A    between atoms: C_3  and  N_4 
REMARK    2  A    between atoms: C_14  and  N_15 
REMARK       I    between atoms: N_15  and  C_16 
REMARK    3  A    between atoms: C_16  and  C_17 
ROOT
HETATM    1  N   UNL     1       4.596  27.946  50.466  1.00  0.00    -0.237 N 
HETATM    2  N   UNL     1       4.847  29.280  50.570  1.00  0.00    -0.179 NA
HETATM    3  C   UNL     1       5.520  29.437  51.705  1.00  0.00     0.150 A 
HETATM    4  C   UNL     1       5.717  28.228  52.379  1.00  0.00     0.008 A 
HETATM    5  C   UNL     1       5.141  27.276  51.559  1.00  0.00     0.047 A 
HETATM    6  C   UNL     1       5.222  25.801  51.797  1.00  0.00     0.069 C 
HETATM    7  C   UNL     1       6.355  25.454  52.815  1.00  0.00    -0.040 C 
HETATM    8  C   UNL     1       7.733  25.491  52.126  1.00  0.00     0.015 C 
HETATM    9  C   UNL     1       6.124  24.024  53.339  1.00  0.00     0.015 C 
HETATM   10  C   UNL     1       6.316  26.441  54.022  1.00  0.00     0.039 C 
HETATM   11  C   UNL     1       6.478  27.928  53.624  1.00  0.00     0.122 C 
ENDROOT
BRANCH  11  12
HETATM   12  N   UNL     1       5.985  28.793  54.677  1.00  0.00    -0.347 N 
HETATM   13  C   UNL     1       6.784  29.142  55.735  1.00  0.00     0.270 C 
HETATM   14  O   UNL     1       7.965  28.820  55.833  1.00  0.00    -0.266 OA
HETATM   15  H   UNL     1       4.995  28.985  54.698  1.00  0.00     0.163 HD
BRANCH  13  16
HETATM   16  C   UNL     1       6.135  29.944  56.803  1.00  0.00     0.120 A 
HETATM   17  N   UNL     1       4.768  30.117  56.818  1.00  0.00    -0.303 N 
HETATM   18  C   UNL     1       4.408  30.900  57.915  1.00  0.00     0.324 A 
HETATM   19  H   UNL     1       4.131  29.728  56.139  1.00  0.00     0.171 HD
HETATM   20  O   UNL     1       3.295  31.258  58.250  1.00  0.00    -0.247 OA
HETATM   21  N   UNL     1       5.622  31.187  58.553  1.00  0.00    -0.316 N 
HETATM   22  C   UNL     1       6.651  30.593  57.861  1.00  0.00     0.128 A 
HETATM   23  H   UNL     1       5.686  31.743  59.393  1.00  0.00     0.170 HD
ENDBRANCH  13  16
ENDBRANCH  11  12
BRANCH   1  24
HETATM   24  C   UNL     1       3.840  27.436  49.359  1.00  0.00     0.064 A 
HETATM   25  C   UNL     1       2.492  27.815  49.133  1.00  0.00    -0.033 A 
HETATM   26  C   UNL     1       1.736  28.809  49.975  1.00  0.00     0.050 C 
HETATM   27  C   UNL     1       1.800  27.251  48.041  1.00  0.00     0.009 A 
HETATM   28  C   UNL     1       2.416  26.347  47.180  1.00  0.00     0.001 A 
HETATM   29  C   UNL     1       3.734  25.975  47.402  1.00  0.00     0.002 A 
HETATM   30  C   UNL     1       4.437  26.510  48.485  1.00  0.00     0.032 A 
ENDBRANCH   1  24
TORSDOF 3
ENDMDL
MODEL 9
REMARK VINA RESULT:      -8.8      9.929     13.240
REMARK  3 active torsions:
REMARK  status: ('A' for Active; 'I' for Inactive)
REMARK    1  A    between atoms: C_3  and  N_4 
REMARK    2  A    between atoms: C_14  and  N_15 
REMARK       I    between atoms: N_15  and  C_16 
REMARK    3  A    between atoms: C_16  and  C_17 
ROOT
HETATM    1  N   UNL     1       5.304  34.246  63.436  1.00  0.00    -0.237 N 
HETATM    2  N   UNL     1       6.570  33.898  63.072  1.00  0.00    -0.179 NA
HETATM    3  C   UNL     1       6.493  33.514  61.803  1.00  0.00     0.150 A 
HETATM    4  C   UNL     1       5.188  33.584  61.304  1.00  0.00     0.008 A 
HETATM    5  C   UNL     1       4.440  34.079  62.355  1.00  0.00     0.047 A 
HETATM    6  C   UNL     1       2.996  34.458  62.256  1.00  0.00     0.069 C 
HETATM    7  C   UNL     1       2.556  34.621  60.765  1.00  0.00    -0.040 C 
HETATM    8  C   UNL     1       3.025  35.979  60.208  1.00  0.00     0.015 C 
HETATM    9  C   UNL     1       1.017  34.585  60.701  1.00  0.00     0.015 C 
HETATM   10  C   UNL     1       3.119  33.449  59.906  1.00  0.00     0.039 C 
HETATM   11  C   UNL     1       4.663  33.333  59.932  1.00  0.00     0.122 C 
ENDROOT
BRANCH  11  12
HETATM   12  N   UNL     1       5.082  32.009  59.520  1.00  0.00    -0.347 N 
HETATM   13  C   UNL     1       5.605  31.791  58.272  1.00  0.00     0.270 C 
HETATM   14  O   UNL     1       5.822  32.685  57.458  1.00  0.00    -0.266 OA
HETATM   15  H   UNL     1       4.818  31.232  60.108  1.00  0.00     0.163 HD
BRANCH  13  16
HETATM   16  C   UNL     1       5.898  30.377  57.927  1.00  0.00     0.120 A 
HETATM   17  N   UNL     1       7.097  29.800  58.286  1.00  0.00    -0.303 N 
HETATM   18  C   UNL     1       7.126  28.474  57.853  1.00  0.00     0.324 A 
HETATM   19  H   UNL     1       7.833  30.270  58.791  1.00  0.00     0.171 HD
HETATM   20  O   UNL     1       8.018  27.658  57.990  1.00  0.00    -0.247 OA
HETATM   21  N   UNL     1       5.891  28.287  57.218  1.00  0.00    -0.316 N 
HETATM   22  C   UNL     1       5.166  29.453  57.280  1.00  0.00     0.128 A 
HETATM   23  H   UNL     1       5.614  27.412  56.799  1.00  0.00     0.170 HD
ENDBRANCH  13  16
ENDBRANCH  11  12
BRANCH   1  24
HETATM   24  C   UNL     1       5.028  34.672  64.777  1.00  0.00     0.064 A 
HETATM   25  C   UNL     1       4.878  36.041  65.113  1.00  0.00    -0.033 A 
HETATM   26  C   UNL     1       4.936  37.172  64.119  1.00  0.00     0.050 C 
HETATM   27  C   UNL     1       4.638  36.390  66.459  1.00  0.00     0.009 A 
HETATM   28  C   UNL     1       4.532  35.421  67.452  1.00  0.00     0.001 A 
HETATM   29  C   UNL     1       4.680  34.081  67.123  1.00  0.00     0.002 A 
HETATM   30  C   UNL     1       4.933  33.711  65.799  1.00  0.00     0.032 A 
ENDBRANCH   1  24
TORSDOF 3
ENDMDL
MODEL 10
REMARK VINA RESULT:      -8.2      4.306      6.956
REMARK  3 active torsions:
REMARK  status: ('A' for Active; 'I' for Inactive)
REMARK    1  A    between atoms: C_3  and  N_4 
REMARK    2  A    between atoms: C_14  and  N_15 
REMARK       I    between atoms: N_15  and  C_16 
REMARK    3  A    between atoms: C_16  and  C_17 
ROOT
HETATM    1  N   UNL     1       5.257  28.076  50.944  1.00  0.00    -0.237 N 
HETATM    2  N   UNL     1       5.789  29.296  51.232  1.00  0.00    -0.179 NA
HETATM    3  C   UNL     1       5.368  30.113  50.272  1.00  0.00     0.150 A 
HETATM    4  C   UNL     1       4.567  29.460  49.330  1.00  0.00     0.008 A 
HETATM    5  C   UNL     1       4.484  28.158  49.788  1.00  0.00     0.047 A 
HETATM    6  C   UNL     1       3.612  27.106  49.178  1.00  0.00     0.069 C 
HETATM    7  C   UNL     1       2.525  27.740  48.252  1.00  0.00    -0.040 C 
HETATM    8  C   UNL     1       1.366  28.313  49.092  1.00  0.00     0.015 C 
HETATM    9  C   UNL     1       1.952  26.637  47.341  1.00  0.00     0.015 C 
HETATM   10  C   UNL     1       3.157  28.849  47.358  1.00  0.00     0.039 C 
HETATM   11  C   UNL     1       3.825  29.995  48.154  1.00  0.00     0.122 C 
ENDROOT
BRANCH  11  12
HETATM   12  N   UNL     1       4.762  30.718  47.318  1.00  0.00    -0.347 N 
HETATM   13  C   UNL     1       4.795  32.089  47.318  1.00  0.00     0.270 C 
HETATM   14  O   UNL     1       4.107  32.788  48.057  1.00  0.00    -0.266 OA
HETATM   15  H   UNL     1       5.261  30.194  46.615  1.00  0.00     0.163 HD
BRANCH  13  16
HETATM   16  C   UNL     1       5.721  32.717  46.341  1.00  0.00     0.120 A 
HETATM   17  N   UNL     1       6.821  33.425  46.772  1.00  0.00    -0.303 N 
HETATM   18  C   UNL     1       7.527  33.910  45.671  1.00  0.00     0.324 A 
HETATM   19  H   UNL     1       7.075  33.561  47.739  1.00  0.00     0.171 HD
HETATM   20  O   UNL     1       8.547  34.573  45.664  1.00  0.00    -0.247 OA
HETATM   21  N   UNL     1       6.796  33.460  44.562  1.00  0.00    -0.316 N 
HETATM   22  C   UNL     1       5.710  32.738  44.997  1.00  0.00     0.128 A 
HETATM   23  H   UNL     1       7.065  33.653  43.610  1.00  0.00     0.170 HD
ENDBRANCH  13  16
ENDBRANCH  11  12
BRANCH   1  24
HETATM   24  C   UNL     1       5.554  26.944  51.773  1.00  0.00     0.064 A 
HETATM   25  C   UNL     1       4.979  26.783  53.059  1.00  0.00    -0.033 A 
HETATM   26  C   UNL     1       3.975  27.728  53.665  1.00  0.00     0.050 C 
HETATM   27  C   UNL     1       5.341  25.659  53.831  1.00  0.00     0.009 A 
HETATM   28  C   UNL     1       6.235  24.706  53.351  1.00  0.00     0.001 A 
HETATM   29  C   UNL     1       6.798  24.864  52.094  1.00  0.00     0.002 A 
HETATM   30  C   UNL     1       6.467  25.976  51.314  1.00  0.00     0.032 A 
ENDBRANCH   1  24
TORSDOF 3
ENDMDL
