MODEL 1
REMARK VINA RESULT:      -8.8      0.000      0.000
REMARK  6 active torsions:
REMARK  status: ('A' for Active; 'I' for Inactive)
REMARK    1  A    between atoms: C_2  and  C_3 
REMARK    2  A    between atoms: C_7  and  N_8 
REMARK       I    between atoms: N_8  and  C_9 
REMARK    3  A    between atoms: C_9  and  C_10 
REMARK    4  A    between atoms: C_11  and  C_12 
REMARK    5  A    between atoms: C_14  and  O_15 
REMARK    6  A    between atoms: C_17  and  O_18 
ROOT
HETATM    1  N   UNL     1       7.649  30.458  59.578  1.00  0.00    -0.322 N 
HETATM    2  C   UNL     1       8.621  30.568  58.598  1.00  0.00     0.245 C 
HETATM    3  O   UNL     1       9.309  31.550  58.356  1.00  0.00    -0.268 OA
HETATM    4  H   UNL     1       6.968  29.732  59.417  1.00  0.00     0.169 HD
ENDROOT
BRANCH   1   5
HETATM    5  C   UNL     1       7.240  31.542  60.415  1.00  0.00     0.055 C 
HETATM    6  C   UNL     1       6.182  32.428  60.056  1.00  0.00     0.020 A 
HETATM    7  C   UNL     1       5.770  33.347  61.036  1.00  0.00     0.069 A 
HETATM    8  C   UNL     1       5.555  32.504  58.782  1.00  0.00     0.016 A 
HETATM    9  N   UNL     1       6.341  33.431  62.243  1.00  0.00    -0.252 NA
HETATM   10  C   UNL     1       4.734  34.232  60.759  1.00  0.00     0.032 A 
HETATM   11  C   UNL     1       7.390  32.637  62.551  1.00  0.00     0.043 C 
HETATM   12  C   UNL     1       7.927  31.717  61.640  1.00  0.00    -0.010 C 
HETATM   13  C   UNL     1       9.126  30.882  62.002  1.00  0.00     0.052 C 
HETATM   14  C   UNL     1       4.100  34.264  59.517  1.00  0.00     0.002 A 
HETATM   15  C   UNL     1       4.522  33.403  58.518  1.00  0.00     0.001 A 
BRANCH  11  16
HETATM   16  C   UNL     1       7.961  32.811  63.943  1.00  0.00     0.055 C 
HETATM   17  C   UNL     1       7.167  33.750  64.846  1.00  0.00     0.011 C 
ENDBRANCH  11  16
ENDBRANCH   1   5
BRANCH   2  18
HETATM   18  C   UNL     1       8.701  29.346  57.745  1.00  0.00     0.075 C 
HETATM   19  C   UNL     1       7.717  28.437  57.832  1.00  0.00     0.017 C 
BRANCH  19  20
HETATM   20  C   UNL     1       7.645  27.169  57.092  1.00  0.00    -0.033 A 
HETATM   21  C   UNL     1       7.203  27.203  55.758  1.00  0.00     0.051 A 
HETATM   22  C   UNL     1       7.035  26.025  55.019  1.00  0.00     0.102 A 
HETATM   23  C   UNL     1       7.307  24.793  55.633  1.00  0.00     0.101 A 
HETATM   24  C   UNL     1       7.764  24.748  56.953  1.00  0.00     0.040 A 
HETATM   25  C   UNL     1       7.919  25.931  57.682  1.00  0.00     0.014 A 
BRANCH  22  26
HETATM   26  O   UNL     1       6.601  25.972  53.720  1.00  0.00    -0.353 OA
HETATM   27  C   UNL     1       5.252  26.341  53.464  1.00  0.00     0.210 C 
ENDBRANCH  22  26
BRANCH  23  28
HETATM   28  O   UNL     1       7.157  23.653  54.882  1.00  0.00    -0.353 OA
HETATM   29  C   UNL     1       7.567  22.468  55.559  1.00  0.00     0.210 C 
ENDBRANCH  23  28
ENDBRANCH  19  20
ENDBRANCH   2  18
TORSDOF 6
ENDMDL
MODEL 2
REMARK VINA RESULT:      -8.8      5.970     10.404
REMARK  6 active torsions:
REMARK  status: ('A' for Active; 'I' for Inactive)
REMARK    1  A    between atoms: C_2  and  C_3 
REMARK    2  A    between atoms: C_7  and  N_8 
REMARK       I    between atoms: N_8  and  C_9 
REMARK    3  A    between atoms: C_9  and  C_10 
REMARK    4  A    between atoms: C_11  and  C_12 
REMARK    5  A    between atoms: C_14  and  O_15 
REMARK    6  A    between atoms: C_17  and  O_18 
ROOT
HETATM    1  N   UNL     1       5.597  24.761  53.139  1.00  0.00    -0.322 N 
HETATM    2  C   UNL     1       6.012  25.354  51.958  1.00  0.00     0.245 C 
HETATM    3  O   UNL     1       7.164  25.604  51.630  1.00  0.00    -0.268 OA
HETATM    4  H   UNL     1       4.636  24.943  53.386  1.00  0.00     0.169 HD
ENDROOT
BRANCH   1   5
HETATM    5  C   UNL     1       6.480  24.425  54.211  1.00  0.00     0.055 C 
HETATM    6  C   UNL     1       7.360  23.305  54.153  1.00  0.00     0.020 A 
HETATM    7  C   UNL     1       8.291  23.180  55.199  1.00  0.00     0.069 A 
HETATM    8  C   UNL     1       7.336  22.276  53.171  1.00  0.00     0.016 A 
HETATM    9  N   UNL     1       8.354  24.036  56.225  1.00  0.00    -0.252 NA
HETATM   10  C   UNL     1       9.189  22.119  55.199  1.00  0.00     0.032 A 
HETATM   11  C   UNL     1       7.470  25.055  56.309  1.00  0.00     0.043 C 
HETATM   12  C   UNL     1       6.461  25.254  55.357  1.00  0.00    -0.010 C 
HETATM   13  C   UNL     1       5.464  26.372  55.510  1.00  0.00     0.052 C 
HETATM   14  C   UNL     1       9.180  21.141  54.205  1.00  0.00     0.002 A 
HETATM   15  C   UNL     1       8.240  21.214  53.192  1.00  0.00     0.001 A 
BRANCH  11  16
HETATM   16  C   UNL     1       7.629  25.967  57.509  1.00  0.00     0.055 C 
HETATM   17  C   UNL     1       8.409  27.250  57.237  1.00  0.00     0.011 C 
ENDBRANCH  11  16
ENDBRANCH   1   5
BRANCH   2  18
HETATM   18  C   UNL     1       4.863  25.778  51.107  1.00  0.00     0.075 C 
HETATM   19  C   UNL     1       5.119  26.331  49.909  1.00  0.00     0.017 C 
BRANCH  19  20
HETATM   20  C   UNL     1       4.118  26.829  48.956  1.00  0.00    -0.033 A 
HETATM   21  C   UNL     1       3.627  28.135  49.130  1.00  0.00     0.051 A 
HETATM   22  C   UNL     1       2.615  28.645  48.308  1.00  0.00     0.102 A 
HETATM   23  C   UNL     1       2.082  27.828  47.299  1.00  0.00     0.101 A 
HETATM   24  C   UNL     1       2.575  26.536  47.104  1.00  0.00     0.040 A 
HETATM   25  C   UNL     1       3.579  26.035  47.938  1.00  0.00     0.014 A 
BRANCH  22  26
HETATM   26  O   UNL     1       2.076  29.901  48.418  1.00  0.00    -0.353 OA
HETATM   27  C   UNL     1       1.287  30.177  49.567  1.00  0.00     0.210 C 
ENDBRANCH  22  26
BRANCH  23  28
HETATM   28  O   UNL     1       1.107  28.359  46.490  1.00  0.00    -0.353 OA
HETATM   29  C   UNL     1       0.137  27.404  46.069  1.00  0.00     0.210 C 
ENDBRANCH  23  28
ENDBRANCH  19  20
ENDBRANCH   2  18
TORSDOF 6
ENDMDL
MODEL 3
REMARK VINA RESULT:      -8.8      6.003     10.082
REMARK  6 active torsions:
REMARK  status: ('A' for Active; 'I' for Inactive)
REMARK    1  A    between atoms: C_2  and  C_3 
REMARK    2  A    between atoms: C_7  and  N_8 
REMARK       I    between atoms: N_8  and  C_9 
REMARK    3  A    between atoms: C_9  and  C_10 
REMARK    4  A    between atoms: C_11  and  C_12 
REMARK    5  A    between atoms: C_14  and  O_15 
REMARK    6  A    between atoms: C_17  and  O_18 
ROOT
HETATM    1  N   UNL     1       6.054  24.454  53.342  1.00  0.00    -0.322 N 
HETATM    2  C   UNL     1       6.332  25.236  52.233  1.00  0.00     0.245 C 
HETATM    3  O   UNL     1       7.416  25.712  51.925  1.00  0.00    -0.268 OA
HETATM    4  H   UNL     1       5.084  24.442  53.617  1.00  0.00     0.169 HD
ENDROOT
BRANCH   1   5
HETATM    5  C   UNL     1       7.011  24.154  54.360  1.00  0.00     0.055 C 
HETATM    6  C   UNL     1       7.234  25.011  55.476  1.00  0.00     0.020 A 
HETATM    7  C   UNL     1       8.079  24.524  56.488  1.00  0.00     0.069 A 
HETATM    8  C   UNL     1       6.730  26.334  55.625  1.00  0.00     0.016 A 
HETATM    9  N   UNL     1       8.682  23.332  56.422  1.00  0.00    -0.252 NA
HETATM   10  C   UNL     1       8.330  25.303  57.611  1.00  0.00     0.032 A 
HETATM   11  C   UNL     1       8.522  22.554  55.328  1.00  0.00     0.043 C 
HETATM   12  C   UNL     1       7.747  22.952  54.231  1.00  0.00    -0.010 C 
HETATM   13  C   UNL     1       7.631  22.079  53.010  1.00  0.00     0.052 C 
HETATM   14  C   UNL     1       7.793  26.581  57.761  1.00  0.00     0.002 A 
HETATM   15  C   UNL     1       6.998  27.104  56.756  1.00  0.00     0.001 A 
BRANCH  11  16
HETATM   16  C   UNL     1       9.247  21.223  55.356  1.00  0.00     0.055 C 
HETATM   17  C   UNL     1       8.483  20.095  56.043  1.00  0.00     0.011 C 
ENDBRANCH  11  16
ENDBRANCH   1   5
BRANCH   2  18
HETATM   18  C   UNL     1       5.104  25.553  51.447  1.00  0.00     0.075 C 
HETATM   19  C   UNL     1       5.214  26.367  50.384  1.00  0.00     0.017 C 
BRANCH  19  20
HETATM   20  C   UNL     1       4.112  26.807  49.516  1.00  0.00    -0.033 A 
HETATM   21  C   UNL     1       3.543  28.071  49.754  1.00  0.00     0.051 A 
HETATM   22  C   UNL     1       2.441  28.519  49.017  1.00  0.00     0.102 A 
HETATM   23  C   UNL     1       1.895  27.683  48.031  1.00  0.00     0.101 A 
HETATM   24  C   UNL     1       2.464  26.433  47.773  1.00  0.00     0.040 A 
HETATM   25  C   UNL     1       3.559  25.993  48.522  1.00  0.00     0.014 A 
BRANCH  22  26
HETATM   26  O   UNL     1       1.823  29.731  49.193  1.00  0.00    -0.353 OA
HETATM   27  C   UNL     1       2.028  30.398  50.431  1.00  0.00     0.210 C 
ENDBRANCH  22  26
BRANCH  23  28
HETATM   28  O   UNL     1       0.828  28.154  47.306  1.00  0.00    -0.353 OA
HETATM   29  C   UNL     1       0.442  27.293  46.239  1.00  0.00     0.210 C 
ENDBRANCH  23  28
ENDBRANCH  19  20
ENDBRANCH   2  18
TORSDOF 6
ENDMDL
MODEL 4
REMARK VINA RESULT:      -8.4      2.606      9.643
REMARK  6 active torsions:
REMARK  status: ('A' for Active; 'I' for Inactive)
REMARK    1  A    between atoms: C_2  and  C_3 
REMARK    2  A    between atoms: C_7  and  N_8 
REMARK       I    between atoms: N_8  and  C_9 
REMARK    3  A    between atoms: C_9  and  C_10 
REMARK    4  A    between atoms: C_11  and  C_12 
REMARK    5  A    between atoms: C_14  and  O_15 
REMARK    6  A    between atoms: C_17  and  O_18 
ROOT
HETATM    1  N   UNL     1       6.966  27.749  56.386  1.00  0.00    -0.322 N 
HETATM    2  C   UNL     1       7.968  28.582  56.854  1.00  0.00     0.245 C 
HETATM    3  O   UNL     1       9.140  28.587  56.504  1.00  0.00    -0.268 OA
HETATM    4  H   UNL     1       6.177  27.649  57.006  1.00  0.00     0.169 HD
ENDROOT
BRANCH   1   5
HETATM    5  C   UNL     1       7.189  26.685  55.459  1.00  0.00     0.055 C 
HETATM    6  C   UNL     1       7.672  25.407  55.864  1.00  0.00     0.020 A 
HETATM    7  C   UNL     1       7.691  24.399  54.884  1.00  0.00     0.069 A 
HETATM    8  C   UNL     1       8.191  25.081  57.148  1.00  0.00     0.016 A 
HETATM    9  N   UNL     1       7.309  24.606  53.619  1.00  0.00    -0.252 NA
HETATM   10  C   UNL     1       8.137  23.125  55.214  1.00  0.00     0.032 A 
HETATM   11  C   UNL     1       6.919  25.839  53.224  1.00  0.00     0.043 C 
HETATM   12  C   UNL     1       6.908  26.937  54.095  1.00  0.00    -0.010 C 
HETATM   13  C   UNL     1       6.513  28.305  53.607  1.00  0.00     0.052 C 
HETATM   14  C   UNL     1       8.604  22.810  56.490  1.00  0.00     0.002 A 
HETATM   15  C   UNL     1       8.642  23.798  57.459  1.00  0.00     0.001 A 
BRANCH  11  16
HETATM   16  C   UNL     1       6.505  25.965  51.772  1.00  0.00     0.055 C 
HETATM   17  C   UNL     1       5.080  25.510  51.473  1.00  0.00     0.011 C 
ENDBRANCH  11  16
ENDBRANCH   1   5
BRANCH   2  18
HETATM   18  C   UNL     1       7.495  29.466  57.959  1.00  0.00     0.075 C 
HETATM   19  C   UNL     1       8.401  29.972  58.811  1.00  0.00     0.017 C 
BRANCH  19  20
HETATM   20  C   UNL     1       8.114  30.833  59.968  1.00  0.00    -0.033 A 
HETATM   21  C   UNL     1       7.007  31.696  59.894  1.00  0.00     0.051 A 
HETATM   22  C   UNL     1       6.721  32.599  60.925  1.00  0.00     0.102 A 
HETATM   23  C   UNL     1       7.567  32.642  62.045  1.00  0.00     0.101 A 
HETATM   24  C   UNL     1       8.659  31.776  62.137  1.00  0.00     0.040 A 
HETATM   25  C   UNL     1       8.938  30.886  61.096  1.00  0.00     0.014 A 
BRANCH  22  26
HETATM   26  O   UNL     1       5.669  33.478  60.926  1.00  0.00    -0.353 OA
HETATM   27  C   UNL     1       4.376  32.953  61.194  1.00  0.00     0.210 C 
ENDBRANCH  22  26
BRANCH  23  28
HETATM   28  O   UNL     1       7.253  33.520  63.053  1.00  0.00    -0.353 OA
HETATM   29  C   UNL     1       7.540  33.015  64.354  1.00  0.00     0.210 C 
ENDBRANCH  23  28
ENDBRANCH  19  20
ENDBRANCH   2  18
TORSDOF 6
ENDMDL
MODEL 5
REMARK VINA RESULT:      -8.4      2.602      9.220
REMARK  6 active torsions:
REMARK  status: ('A' for Active; 'I' for Inactive)
REMARK    1  A    between atoms: C_2  and  C_3 
REMARK    2  A    between atoms: C_7  and  N_8 
REMARK       I    between atoms: N_8  and  C_9 
REMARK    3  A    between atoms: C_9  and  C_10 
REMARK    4  A    between atoms: C_11  and  C_12 
REMARK    5  A    between atoms: C_14  and  O_15 
REMARK    6  A    between atoms: C_17  and  O_18 
ROOT
HETATM    1  N   UNL     1       6.878  27.690  56.334  1.00  0.00    -0.322 N 
HETATM    2  C   UNL     1       7.746  28.767  56.405  1.00  0.00     0.245 C 
HETATM    3  O   UNL     1       8.756  28.940  55.736  1.00  0.00    -0.268 OA
HETATM    4  H   UNL     1       6.320  27.543  57.161  1.00  0.00     0.169 HD
ENDROOT
BRANCH   1   5
HETATM    5  C   UNL     1       7.095  26.552  55.498  1.00  0.00     0.055 C 
HETATM    6  C   UNL     1       6.704  26.523  54.128  1.00  0.00     0.020 A 
HETATM    7  C   UNL     1       7.120  25.412  53.375  1.00  0.00     0.069 A 
HETATM    8  C   UNL     1       5.880  27.483  53.476  1.00  0.00     0.016 A 
HETATM    9  N   UNL     1       7.826  24.402  53.896  1.00  0.00    -0.252 NA
HETATM   10  C   UNL     1       6.786  25.326  52.029  1.00  0.00     0.032 A 
HETATM   11  C   UNL     1       8.133  24.401  55.212  1.00  0.00     0.043 C 
HETATM   12  C   UNL     1       7.728  25.426  56.078  1.00  0.00    -0.010 C 
HETATM   13  C   UNL     1       8.048  25.368  57.548  1.00  0.00     0.052 C 
HETATM   14  C   UNL     1       6.013  26.298  51.394  1.00  0.00     0.002 A 
HETATM   15  C   UNL     1       5.547  27.377  52.126  1.00  0.00     0.001 A 
BRANCH  11  16
HETATM   16  C   UNL     1       8.935  23.212  55.701  1.00  0.00     0.055 C 
HETATM   17  C   UNL     1       8.146  21.910  55.804  1.00  0.00     0.011 C 
ENDBRANCH  11  16
ENDBRANCH   1   5
BRANCH   2  18
HETATM   18  C   UNL     1       7.381  29.712  57.501  1.00  0.00     0.075 C 
HETATM   19  C   UNL     1       8.245  29.886  58.515  1.00  0.00     0.017 C 
BRANCH  19  20
HETATM   20  C   UNL     1       8.041  30.750  59.686  1.00  0.00    -0.033 A 
HETATM   21  C   UNL     1       6.919  31.598  59.697  1.00  0.00     0.051 A 
HETATM   22  C   UNL     1       6.706  32.503  60.743  1.00  0.00     0.102 A 
HETATM   23  C   UNL     1       7.639  32.565  61.791  1.00  0.00     0.101 A 
HETATM   24  C   UNL     1       8.747  31.714  61.799  1.00  0.00     0.040 A 
HETATM   25  C   UNL     1       8.953  30.821  60.744  1.00  0.00     0.014 A 
BRANCH  22  26
HETATM   26  O   UNL     1       5.646  33.369  60.825  1.00  0.00    -0.353 OA
HETATM   27  C   UNL     1       4.383  32.827  61.189  1.00  0.00     0.210 C 
ENDBRANCH  22  26
BRANCH  23  28
HETATM   28  O   UNL     1       7.396  33.445  62.817  1.00  0.00    -0.353 OA
HETATM   29  C   UNL     1       7.687  32.910  64.105  1.00  0.00     0.210 C 
ENDBRANCH  23  28
ENDBRANCH  19  20
ENDBRANCH   2  18
TORSDOF 6
ENDMDL
MODEL 6
REMARK VINA RESULT:      -8.3      1.387      3.408
REMARK  6 active torsions:
REMARK  status: ('A' for Active; 'I' for Inactive)
REMARK    1  A    between atoms: C_2  and  C_3 
REMARK    2  A    between atoms: C_7  and  N_8 
REMARK       I    between atoms: N_8  and  C_9 
REMARK    3  A    between atoms: C_9  and  C_10 
REMARK    4  A    between atoms: C_11  and  C_12 
REMARK    5  A    between atoms: C_14  and  O_15 
REMARK    6  A    between atoms: C_17  and  O_18 
ROOT
HETATM    1  N   UNL     1       6.689  31.602  60.331  1.00  0.00    -0.322 N 
HETATM    2  C   UNL     1       7.905  31.667  59.672  1.00  0.00     0.245 C 
HETATM    3  O   UNL     1       8.649  32.635  59.600  1.00  0.00    -0.268 OA
HETATM    4  H   UNL     1       6.073  30.872  60.008  1.00  0.00     0.169 HD
ENDROOT
BRANCH   1   5
HETATM    5  C   UNL     1       6.073  32.721  60.970  1.00  0.00     0.055 C 
HETATM    6  C   UNL     1       6.447  33.158  62.274  1.00  0.00     0.020 A 
HETATM    7  C   UNL     1       5.884  34.366  62.721  1.00  0.00     0.069 A 
HETATM    8  C   UNL     1       7.286  32.452  63.181  1.00  0.00     0.016 A 
HETATM    9  N   UNL     1       5.015  35.078  61.994  1.00  0.00    -0.252 NA
HETATM   10  C   UNL     1       6.216  34.859  63.978  1.00  0.00     0.032 A 
HETATM   11  C   UNL     1       4.611  34.621  60.788  1.00  0.00     0.043 C 
HETATM   12  C   UNL     1       5.060  33.404  60.257  1.00  0.00    -0.010 C 
HETATM   13  C   UNL     1       4.550  32.905  58.932  1.00  0.00     0.052 C 
HETATM   14  C   UNL     1       7.074  34.174  64.839  1.00  0.00     0.002 A 
HETATM   15  C   UNL     1       7.602  32.957  64.442  1.00  0.00     0.001 A 
BRANCH  11  16
HETATM   16  C   UNL     1       3.627  35.503  60.047  1.00  0.00     0.055 C 
HETATM   17  C   UNL     1       3.448  36.898  60.640  1.00  0.00     0.011 C 
ENDBRANCH  11  16
ENDBRANCH   1   5
BRANCH   2  18
HETATM   18  C   UNL     1       8.209  30.410  58.927  1.00  0.00     0.075 C 
HETATM   19  C   UNL     1       7.348  29.998  57.983  1.00  0.00     0.017 C 
BRANCH  19  20
HETATM   20  C   UNL     1       7.471  28.776  57.174  1.00  0.00    -0.033 A 
HETATM   21  C   UNL     1       7.437  28.901  55.774  1.00  0.00     0.051 A 
HETATM   22  C   UNL     1       7.470  27.773  54.946  1.00  0.00     0.102 A 
HETATM   23  C   UNL     1       7.529  26.499  55.532  1.00  0.00     0.101 A 
HETATM   24  C   UNL     1       7.583  26.365  56.922  1.00  0.00     0.040 A 
HETATM   25  C   UNL     1       7.540  27.498  57.738  1.00  0.00     0.014 A 
BRANCH  22  26
HETATM   26  O   UNL     1       7.431  27.807  53.575  1.00  0.00    -0.353 OA
HETATM   27  C   UNL     1       6.204  28.180  52.964  1.00  0.00     0.210 C 
ENDBRANCH  22  26
BRANCH  23  28
HETATM   28  O   UNL     1       7.584  25.409  54.698  1.00  0.00    -0.353 OA
HETATM   29  C   UNL     1       7.671  24.167  55.391  1.00  0.00     0.210 C 
ENDBRANCH  23  28
ENDBRANCH  19  20
ENDBRANCH   2  18
TORSDOF 6
ENDMDL
MODEL 7
REMARK VINA RESULT:      -8.3      1.199      2.045
REMARK  6 active torsions:
REMARK  status: ('A' for Active; 'I' for Inactive)
REMARK    1  A    between atoms: C_2  and  C_3 
REMARK    2  A    between atoms: C_7  and  N_8 
REMARK       I    between atoms: N_8  and  C_9 
REMARK    3  A    between atoms: C_9  and  C_10 
REMARK    4  A    between atoms: C_11  and  C_12 
REMARK    5  A    between atoms: C_14  and  O_15 
REMARK    6  A    between atoms: C_17  and  O_18 
ROOT
HETATM    1  N   UNL     1       7.072  31.073  60.235  1.00  0.00    -0.322 N 
HETATM    2  C   UNL     1       7.997  31.115  59.205  1.00  0.00     0.245 C 
HETATM    3  O   UNL     1       8.701  32.065  58.891  1.00  0.00    -0.268 OA
HETATM    4  H   UNL     1       6.362  30.364  60.135  1.00  0.00     0.169 HD
ENDROOT
BRANCH   1   5
HETATM    5  C   UNL     1       6.738  32.200  61.047  1.00  0.00     0.055 C 
HETATM    6  C   UNL     1       5.724  33.132  60.682  1.00  0.00     0.020 A 
HETATM    7  C   UNL     1       5.380  34.100  61.642  1.00  0.00     0.069 A 
HETATM    8  C   UNL     1       5.077  33.208  59.417  1.00  0.00     0.016 A 
HETATM    9  N   UNL     1       5.977  34.185  62.836  1.00  0.00    -0.252 NA
HETATM   10  C   UNL     1       4.389  35.031  61.358  1.00  0.00     0.032 A 
HETATM   11  C   UNL     1       6.987  33.343  63.148  1.00  0.00     0.043 C 
HETATM   12  C   UNL     1       7.456  32.371  62.254  1.00  0.00    -0.010 C 
HETATM   13  C   UNL     1       8.616  31.482  62.619  1.00  0.00     0.052 C 
HETATM   14  C   UNL     1       3.734  35.065  60.127  1.00  0.00     0.002 A 
HETATM   15  C   UNL     1       4.090  34.155  59.147  1.00  0.00     0.001 A 
BRANCH  11  16
HETATM   16  C   UNL     1       7.594  33.524  64.525  1.00  0.00     0.055 C 
HETATM   17  C   UNL     1       6.586  33.819  65.632  1.00  0.00     0.011 C 
ENDBRANCH  11  16
ENDBRANCH   1   5
BRANCH   2  18
HETATM   18  C   UNL     1       7.997  29.860  58.398  1.00  0.00     0.075 C 
HETATM   19  C   UNL     1       6.870  29.508  57.756  1.00  0.00     0.017 C 
BRANCH  19  20
HETATM   20  C   UNL     1       6.681  28.299  56.943  1.00  0.00    -0.033 A 
HETATM   21  C   UNL     1       7.157  27.077  57.450  1.00  0.00     0.051 A 
HETATM   22  C   UNL     1       7.081  25.900  56.695  1.00  0.00     0.102 A 
HETATM   23  C   UNL     1       6.527  25.953  55.406  1.00  0.00     0.101 A 
HETATM   24  C   UNL     1       6.035  27.158  54.900  1.00  0.00     0.040 A 
HETATM   25  C   UNL     1       6.125  28.328  55.660  1.00  0.00     0.014 A 
BRANCH  22  26
HETATM   26  O   UNL     1       7.529  24.673  57.111  1.00  0.00    -0.353 OA
HETATM   27  C   UNL     1       8.929  24.515  57.298  1.00  0.00     0.210 C 
ENDBRANCH  22  26
BRANCH  23  28
HETATM   28  O   UNL     1       6.443  24.782  54.694  1.00  0.00    -0.353 OA
HETATM   29  C   UNL     1       5.535  24.848  53.598  1.00  0.00     0.210 C 
ENDBRANCH  23  28
ENDBRANCH  19  20
ENDBRANCH   2  18
TORSDOF 6
ENDMDL
MODEL 8
REMARK VINA RESULT:      -8.2      2.677      9.427
REMARK  6 active torsions:
REMARK  status: ('A' for Active; 'I' for Inactive)
REMARK    1  A    between atoms: C_2  and  C_3 
REMARK    2  A    between atoms: C_7  and  N_8 
REMARK       I    between atoms: N_8  and  C_9 
REMARK    3  A    between atoms: C_9  and  C_10 
REMARK    4  A    between atoms: C_11  and  C_12 
REMARK    5  A    between atoms: C_14  and  O_15 
REMARK    6  A    between atoms: C_17  and  O_18 
ROOT
HETATM    1  N   UNL     1       7.393  26.825  56.593  1.00  0.00    -0.322 N 
HETATM    2  C   UNL     1       8.006  28.006  56.205  1.00  0.00     0.245 C 
HETATM    3  O   UNL     1       8.474  28.261  55.105  1.00  0.00    -0.268 OA
HETATM    4  H   UNL     1       7.383  26.663  57.589  1.00  0.00     0.169 HD
ENDROOT
BRANCH   1   5
HETATM    5  C   UNL     1       7.296  25.671  55.757  1.00  0.00     0.055 C 
HETATM    6  C   UNL     1       6.459  25.630  54.605  1.00  0.00     0.020 A 
HETATM    7  C   UNL     1       6.577  24.501  53.777  1.00  0.00     0.069 A 
HETATM    8  C   UNL     1       5.474  26.597  54.255  1.00  0.00     0.016 A 
HETATM    9  N   UNL     1       7.405  23.485  54.046  1.00  0.00    -0.252 NA
HETATM   10  C   UNL     1       5.801  24.402  52.629  1.00  0.00     0.032 A 
HETATM   11  C   UNL     1       8.145  23.497  55.177  1.00  0.00     0.043 C 
HETATM   12  C   UNL     1       8.074  24.542  56.108  1.00  0.00    -0.010 C 
HETATM   13  C   UNL     1       8.877  24.499  57.381  1.00  0.00     0.052 C 
HETATM   14  C   UNL     1       4.870  25.379  52.278  1.00  0.00     0.002 A 
HETATM   15  C   UNL     1       4.698  26.477  53.103  1.00  0.00     0.001 A 
BRANCH  11  16
HETATM   16  C   UNL     1       9.050  22.300  55.386  1.00  0.00     0.055 C 
HETATM   17  C   UNL     1       8.319  20.973  55.575  1.00  0.00     0.011 C 
ENDBRANCH  11  16
ENDBRANCH   1   5
BRANCH   2  18
HETATM   18  C   UNL     1       8.144  28.967  57.339  1.00  0.00     0.075 C 
HETATM   19  C   UNL     1       7.104  29.764  57.636  1.00  0.00     0.017 C 
BRANCH  19  20
HETATM   20  C   UNL     1       7.072  30.783  58.694  1.00  0.00    -0.033 A 
HETATM   21  C   UNL     1       7.985  30.666  59.756  1.00  0.00     0.051 A 
HETATM   22  C   UNL     1       7.958  31.555  60.837  1.00  0.00     0.102 A 
HETATM   23  C   UNL     1       6.992  32.574  60.856  1.00  0.00     0.101 A 
HETATM   24  C   UNL     1       6.091  32.710  59.797  1.00  0.00     0.040 A 
HETATM   25  C   UNL     1       6.123  31.810  58.728  1.00  0.00     0.014 A 
BRANCH  22  26
HETATM   26  O   UNL     1       8.805  31.504  61.914  1.00  0.00    -0.353 OA
HETATM   27  C   UNL     1       9.518  30.294  62.131  1.00  0.00     0.210 C 
ENDBRANCH  22  26
BRANCH  23  28
HETATM   28  O   UNL     1       6.999  33.447  61.916  1.00  0.00    -0.353 OA
HETATM   29  C   UNL     1       5.800  34.207  62.034  1.00  0.00     0.210 C 
ENDBRANCH  23  28
ENDBRANCH  19  20
ENDBRANCH   2  18
TORSDOF 6
ENDMDL
MODEL 9
REMARK VINA RESULT:      -8.1      1.431      3.737
REMARK  6 active torsions:
REMARK  status: ('A' for Active; 'I' for Inactive)
REMARK    1  A    between atoms: C_2  and  C_3 
REMARK    2  A    between atoms: C_7  and  N_8 
REMARK       I    between atoms: N_8  and  C_9 
REMARK    3  A    between atoms: C_9  and  C_10 
REMARK    4  A    between atoms: C_11  and  C_12 
REMARK    5  A    between atoms: C_14  and  O_15 
REMARK    6  A    between atoms: C_17  and  O_18 
ROOT
HETATM    1  N   UNL     1       6.507  31.349  60.126  1.00  0.00    -0.322 N 
HETATM    2  C   UNL     1       7.658  31.410  59.358  1.00  0.00     0.245 C 
HETATM    3  O   UNL     1       8.391  32.378  59.210  1.00  0.00    -0.268 OA
HETATM    4  H   UNL     1       5.865  30.616  59.866  1.00  0.00     0.169 HD
ENDROOT
BRANCH   1   5
HETATM    5  C   UNL     1       5.951  32.474  60.809  1.00  0.00     0.055 C 
HETATM    6  C   UNL     1       6.440  32.922  62.070  1.00  0.00     0.020 A 
HETATM    7  C   UNL     1       5.919  34.133  62.556  1.00  0.00     0.069 A 
HETATM    8  C   UNL     1       7.357  32.223  62.904  1.00  0.00     0.016 A 
HETATM    9  N   UNL     1       4.988  34.839  61.905  1.00  0.00    -0.252 NA
HETATM   10  C   UNL     1       6.362  34.635  63.774  1.00  0.00     0.032 A 
HETATM   11  C   UNL     1       4.476  34.372  60.744  1.00  0.00     0.043 C 
HETATM   12  C   UNL     1       4.877  33.151  60.185  1.00  0.00    -0.010 C 
HETATM   13  C   UNL     1       4.250  32.642  58.914  1.00  0.00     0.052 C 
HETATM   14  C   UNL     1       7.294  33.958  64.560  1.00  0.00     0.002 A 
HETATM   15  C   UNL     1       7.786  32.738  64.127  1.00  0.00     0.001 A 
BRANCH  11  16
HETATM   16  C   UNL     1       3.429  35.249  60.087  1.00  0.00     0.055 C 
HETATM   17  C   UNL     1       3.989  36.412  59.274  1.00  0.00     0.011 C 
ENDBRANCH  11  16
ENDBRANCH   1   5
BRANCH   2  18
HETATM   18  C   UNL     1       7.895  30.146  58.599  1.00  0.00     0.075 C 
HETATM   19  C   UNL     1       7.049  29.824  57.607  1.00  0.00     0.017 C 
BRANCH  19  20
HETATM   20  C   UNL     1       7.112  28.613  56.777  1.00  0.00    -0.033 A 
HETATM   21  C   UNL     1       7.277  27.374  57.422  1.00  0.00     0.051 A 
HETATM   22  C   UNL     1       7.424  26.190  56.690  1.00  0.00     0.102 A 
HETATM   23  C   UNL     1       7.415  26.251  55.288  1.00  0.00     0.101 A 
HETATM   24  C   UNL     1       7.233  27.474  54.637  1.00  0.00     0.040 A 
HETATM   25  C   UNL     1       7.096  28.650  55.379  1.00  0.00     0.014 A 
BRANCH  22  26
HETATM   26  O   UNL     1       7.599  24.946  57.241  1.00  0.00    -0.353 OA
HETATM   27  C   UNL     1       8.913  24.586  57.643  1.00  0.00     0.210 C 
ENDBRANCH  22  26
BRANCH  23  28
HETATM   28  O   UNL     1       7.538  25.073  54.592  1.00  0.00    -0.353 OA
HETATM   29  C   UNL     1       7.811  25.258  53.206  1.00  0.00     0.210 C 
ENDBRANCH  23  28
ENDBRANCH  19  20
ENDBRANCH   2  18
TORSDOF 6
ENDMDL
MODEL 10
REMARK VINA RESULT:      -7.6      5.669     10.142
REMARK  6 active torsions:
REMARK  status: ('A' for Active; 'I' for Inactive)
REMARK    1  A    between atoms: C_2  and  C_3 
REMARK    2  A    between atoms: C_7  and  N_8 
REMARK       I    between atoms: N_8  and  C_9 
REMARK    3  A    between atoms: C_9  and  C_10 
REMARK    4  A    between atoms: C_11  and  C_12 
REMARK    5  A    between atoms: C_14  and  O_15 
REMARK    6  A    between atoms: C_17  and  O_18 
ROOT
HETATM    1  N   UNL     1       4.521  26.810  52.836  1.00  0.00    -0.322 N 
HETATM    2  C   UNL     1       4.858  27.727  51.854  1.00  0.00     0.245 C 
HETATM    3  O   UNL     1       5.916  28.333  51.750  1.00  0.00    -0.268 OA
HETATM    4  H   UNL     1       3.529  26.678  52.967  1.00  0.00     0.169 HD
ENDROOT
BRANCH   1   5
HETATM    5  C   UNL     1       5.359  26.496  53.949  1.00  0.00     0.055 C 
HETATM    6  C   UNL     1       6.274  25.404  53.933  1.00  0.00     0.020 A 
HETATM    7  C   UNL     1       7.155  25.302  55.023  1.00  0.00     0.069 A 
HETATM    8  C   UNL     1       6.330  24.378  52.949  1.00  0.00     0.016 A 
HETATM    9  N   UNL     1       7.142  26.156  56.053  1.00  0.00    -0.252 NA
HETATM   10  C   UNL     1       8.084  24.268  55.066  1.00  0.00     0.032 A 
HETATM   11  C   UNL     1       6.225  27.148  56.096  1.00  0.00     0.043 C 
HETATM   12  C   UNL     1       5.259  27.320  55.096  1.00  0.00    -0.010 C 
HETATM   13  C   UNL     1       4.223  28.408  55.201  1.00  0.00     0.052 C 
HETATM   14  C   UNL     1       8.154  23.294  54.070  1.00  0.00     0.002 A 
HETATM   15  C   UNL     1       7.263  23.343  53.011  1.00  0.00     0.001 A 
BRANCH  11  16
HETATM   16  C   UNL     1       6.297  28.059  57.305  1.00  0.00     0.055 C 
HETATM   17  C   UNL     1       7.710  28.346  57.804  1.00  0.00     0.011 C 
ENDBRANCH  11  16
ENDBRANCH   1   5
BRANCH   2  18
HETATM   18  C   UNL     1       3.720  28.008  50.931  1.00  0.00     0.075 C 
HETATM   19  C   UNL     1       3.884  27.773  49.619  1.00  0.00     0.017 C 
BRANCH  19  20
HETATM   20  C   UNL     1       2.886  28.016  48.567  1.00  0.00    -0.033 A 
HETATM   21  C   UNL     1       2.990  29.199  47.814  1.00  0.00     0.051 A 
HETATM   22  C   UNL     1       2.030  29.531  46.851  1.00  0.00     0.102 A 
HETATM   23  C   UNL     1       0.943  28.667  46.647  1.00  0.00     0.101 A 
HETATM   24  C   UNL     1       0.840  27.480  47.376  1.00  0.00     0.040 A 
HETATM   25  C   UNL     1       1.800  27.164  48.341  1.00  0.00     0.014 A 
BRANCH  22  26
HETATM   26  O   UNL     1       2.053  30.667  46.083  1.00  0.00    -0.353 OA
HETATM   27  C   UNL     1       3.316  31.115  45.612  1.00  0.00     0.210 C 
ENDBRANCH  22  26
BRANCH  23  28
HETATM   28  O   UNL     1       0.026  29.003  45.681  1.00  0.00    -0.353 OA
HETATM   29  C   UNL     1      -1.150  28.200  45.711  1.00  0.00     0.210 C 
ENDBRANCH  23  28
ENDBRANCH  19  20
ENDBRANCH   2  18
TORSDOF 6
ENDMDL
