MODEL 1
REMARK VINA RESULT:     -10.1      0.000      0.000
REMARK  7 active torsions:
REMARK  status: ('A' for Active; 'I' for Inactive)
REMARK    1  A    between atoms: C_3  and  C_4 
REMARK    2  A    between atoms: C_6  and  O_7 
REMARK    3  A    between atoms: C_9  and  O_10 
REMARK    4  A    between atoms: O_10  and  C_11 
REMARK    5  A    between atoms: C_11  and  C_12 
REMARK       I    between atoms: C_12  and  N_13 
REMARK    6  A    between atoms: N_13  and  N_14 
REMARK       I    between atoms: N_14  and  C_15 
REMARK    7  A    between atoms: C_15  and  C_16 
ROOT
HETATM    1  C   UNL     1       9.540  29.514  56.995  1.00  0.00     0.260 C 
HETATM    2  N   UNL     1       8.768  28.433  57.373  1.00  0.00    -0.265 N 
HETATM    3  O   UNL     1      10.012  29.638  55.864  1.00  0.00    -0.269 OA
HETATM    4  H   UNL     1       8.229  28.450  58.239  1.00  0.00     0.190 HD
ENDROOT
BRANCH   2   5
HETATM    5  N   UNL     1       8.373  27.526  56.387  1.00  0.00    -0.263 N 
HETATM    6  C   UNL     1       7.888  26.288  56.754  1.00  0.00     0.272 C 
HETATM    7  O   UNL     1       7.904  25.896  57.920  1.00  0.00    -0.266 OA
HETATM    8  H   UNL     1       8.390  27.851  55.427  1.00  0.00     0.190 HD
BRANCH   6   9
HETATM    9  C   UNL     1       7.423  25.456  55.646  1.00  0.00     0.061 A 
HETATM   10  C   UNL     1       7.927  24.213  55.124  1.00  0.00     0.008 A 
HETATM   11  C   UNL     1       7.065  23.807  54.093  1.00  0.00     0.045 A 
HETATM   12  C   UNL     1       9.044  23.392  55.416  1.00  0.00     0.015 A 
HETATM   13  C   UNL     1       7.251  22.598  53.399  1.00  0.00     0.030 A 
HETATM   14  N   UNL     1       6.115  24.793  53.953  1.00  0.00    -0.359 N 
HETATM   15  C   UNL     1       8.341  21.795  53.737  1.00  0.00     0.002 A 
HETATM   16  C   UNL     1       9.233  22.190  54.726  1.00  0.00     0.001 A 
HETATM   17  C   UNL     1       5.036  24.825  52.990  1.00  0.00     0.156 C 
HETATM   18  C   UNL     1       6.333  25.791  54.863  1.00  0.00     0.108 A 
ENDBRANCH   6   9
ENDBRANCH   2   5
BRANCH   1  19
HETATM   19  C   UNL     1       9.710  30.575  58.078  1.00  0.00     0.280 C 
BRANCH  19  20
HETATM   20  O   UNL     1       8.439  31.084  58.472  1.00  0.00    -0.339 OA
BRANCH  20  21
HETATM   21  C   UNL     1       8.343  31.429  59.798  1.00  0.00     0.102 A 
HETATM   22  C   UNL     1       7.318  32.322  60.157  1.00  0.00     0.102 A 
HETATM   23  C   UNL     1       7.215  32.750  61.486  1.00  0.00     0.051 A 
HETATM   24  C   UNL     1       8.109  32.283  62.458  1.00  0.00    -0.034 A 
HETATM   25  C   UNL     1       9.128  31.399  62.087  1.00  0.00     0.014 A 
HETATM   26  C   UNL     1       9.250  30.979  60.761  1.00  0.00     0.040 A 
BRANCH  22  27
HETATM   27  O   UNL     1       6.478  32.716  59.145  1.00  0.00    -0.353 OA
HETATM   28  C   UNL     1       5.150  32.208  59.170  1.00  0.00     0.210 C 
ENDBRANCH  22  27
BRANCH  24  29
HETATM   29  C   UNL     1       7.989  32.774  63.834  1.00  0.00     0.007 C 
HETATM   30  C   UNL     1       6.869  33.340  64.311  1.00  0.00    -0.030 C 
HETATM   31  C   UNL     1       6.735  33.859  65.706  1.00  0.00     0.036 C 
ENDBRANCH  24  29
ENDBRANCH  20  21
ENDBRANCH  19  20
ENDBRANCH   1  19
TORSDOF 7
ENDMDL
MODEL 2
REMARK VINA RESULT:     -10.0      2.302     10.436
REMARK  7 active torsions:
REMARK  status: ('A' for Active; 'I' for Inactive)
REMARK    1  A    between atoms: C_3  and  C_4 
REMARK    2  A    between atoms: C_6  and  O_7 
REMARK    3  A    between atoms: C_9  and  O_10 
REMARK    4  A    between atoms: O_10  and  C_11 
REMARK    5  A    between atoms: C_11  and  C_12 
REMARK       I    between atoms: C_12  and  N_13 
REMARK    6  A    between atoms: N_13  and  N_14 
REMARK       I    between atoms: N_14  and  C_15 
REMARK    7  A    between atoms: C_15  and  C_16 
ROOT
HETATM    1  C   UNL     1       7.594  29.077  57.480  1.00  0.00     0.260 C 
HETATM    2  N   UNL     1       6.755  30.172  57.428  1.00  0.00    -0.265 N 
HETATM    3  O   UNL     1       8.020  28.608  58.536  1.00  0.00    -0.269 OA
HETATM    4  H   UNL     1       6.262  30.415  56.569  1.00  0.00     0.190 HD
ENDROOT
BRANCH   2   5
HETATM    5  N   UNL     1       6.241  30.669  58.628  1.00  0.00    -0.263 N 
HETATM    6  C   UNL     1       6.874  31.720  59.259  1.00  0.00     0.272 C 
HETATM    7  O   UNL     1       7.955  32.162  58.871  1.00  0.00    -0.266 OA
HETATM    8  H   UNL     1       5.365  30.277  58.952  1.00  0.00     0.190 HD
BRANCH   6   9
HETATM    9  C   UNL     1       6.200  32.214  60.457  1.00  0.00     0.061 A 
HETATM   10  C   UNL     1       6.705  32.491  61.776  1.00  0.00     0.008 A 
HETATM   11  C   UNL     1       5.645  33.014  62.533  1.00  0.00     0.045 A 
HETATM   12  C   UNL     1       7.960  32.337  62.413  1.00  0.00     0.015 A 
HETATM   13  C   UNL     1       5.815  33.433  63.865  1.00  0.00     0.030 A 
HETATM   14  N   UNL     1       4.529  32.996  61.727  1.00  0.00    -0.359 N 
HETATM   15  C   UNL     1       7.076  33.301  64.450  1.00  0.00     0.002 A 
HETATM   16  C   UNL     1       8.134  32.751  63.738  1.00  0.00     0.001 A 
HETATM   17  C   UNL     1       3.192  33.410  62.090  1.00  0.00     0.156 C 
HETATM   18  C   UNL     1       4.847  32.502  60.492  1.00  0.00     0.108 A 
ENDBRANCH   6   9
ENDBRANCH   2   5
BRANCH   1  19
HETATM   19  C   UNL     1       7.901  28.454  56.121  1.00  0.00     0.280 C 
BRANCH  19  20
HETATM   20  O   UNL     1       6.754  27.774  55.620  1.00  0.00    -0.339 OA
BRANCH  20  21
HETATM   21  C   UNL     1       7.026  26.633  54.907  1.00  0.00     0.102 A 
HETATM   22  C   UNL     1       6.863  25.405  55.572  1.00  0.00     0.102 A 
HETATM   23  C   UNL     1       7.184  24.216  54.907  1.00  0.00     0.051 A 
HETATM   24  C   UNL     1       7.647  24.240  53.585  1.00  0.00    -0.034 A 
HETATM   25  C   UNL     1       7.811  25.468  52.936  1.00  0.00     0.014 A 
HETATM   26  C   UNL     1       7.509  26.662  53.596  1.00  0.00     0.040 A 
BRANCH  22  27
HETATM   27  O   UNL     1       6.390  25.473  56.860  1.00  0.00    -0.353 OA
HETATM   28  C   UNL     1       4.985  25.356  57.040  1.00  0.00     0.210 C 
ENDBRANCH  22  27
BRANCH  24  29
HETATM   29  C   UNL     1       8.000  22.977  52.929  1.00  0.00     0.007 C 
HETATM   30  C   UNL     1       7.900  21.786  53.538  1.00  0.00    -0.030 C 
HETATM   31  C   UNL     1       8.269  20.491  52.889  1.00  0.00     0.036 C 
ENDBRANCH  24  29
ENDBRANCH  20  21
ENDBRANCH  19  20
ENDBRANCH   1  19
TORSDOF 7
ENDMDL
MODEL 3
REMARK VINA RESULT:      -9.6      2.396     10.574
REMARK  7 active torsions:
REMARK  status: ('A' for Active; 'I' for Inactive)
REMARK    1  A    between atoms: C_3  and  C_4 
REMARK    2  A    between atoms: C_6  and  O_7 
REMARK    3  A    between atoms: C_9  and  O_10 
REMARK    4  A    between atoms: O_10  and  C_11 
REMARK    5  A    between atoms: C_11  and  C_12 
REMARK       I    between atoms: C_12  and  N_13 
REMARK    6  A    between atoms: N_13  and  N_14 
REMARK       I    between atoms: N_14  and  C_15 
REMARK    7  A    between atoms: C_15  and  C_16 
ROOT
HETATM    1  C   UNL     1       7.187  29.084  57.545  1.00  0.00     0.260 C 
HETATM    2  N   UNL     1       7.924  29.689  58.545  1.00  0.00    -0.265 N 
HETATM    3  O   UNL     1       5.955  29.094  57.522  1.00  0.00    -0.269 OA
HETATM    4  H   UNL     1       8.927  29.840  58.439  1.00  0.00     0.190 HD
ENDROOT
BRANCH   2   5
HETATM    5  N   UNL     1       7.249  30.480  59.477  1.00  0.00    -0.263 N 
HETATM    6  C   UNL     1       7.630  31.793  59.662  1.00  0.00     0.272 C 
HETATM    7  O   UNL     1       8.629  32.268  59.125  1.00  0.00    -0.266 OA
HETATM    8  H   UNL     1       6.444  30.069  59.935  1.00  0.00     0.190 HD
BRANCH   6   9
HETATM    9  C   UNL     1       6.799  32.549  60.597  1.00  0.00     0.061 A 
HETATM   10  C   UNL     1       6.999  32.876  61.984  1.00  0.00     0.008 A 
HETATM   11  C   UNL     1       5.923  33.683  62.387  1.00  0.00     0.045 A 
HETATM   12  C   UNL     1       7.984  32.554  62.949  1.00  0.00     0.015 A 
HETATM   13  C   UNL     1       5.837  34.216  63.686  1.00  0.00     0.030 A 
HETATM   14  N   UNL     1       5.075  33.790  61.308  1.00  0.00    -0.359 N 
HETATM   15  C   UNL     1       6.845  33.908  64.601  1.00  0.00     0.002 A 
HETATM   16  C   UNL     1       7.901  33.081  64.242  1.00  0.00     0.001 A 
HETATM   17  C   UNL     1       3.816  34.499  61.264  1.00  0.00     0.156 C 
HETATM   18  C   UNL     1       5.580  33.099  60.241  1.00  0.00     0.108 A 
ENDBRANCH   6   9
ENDBRANCH   2   5
BRANCH   1  19
HETATM   19  C   UNL     1       8.026  28.455  56.438  1.00  0.00     0.280 C 
BRANCH  19  20
HETATM   20  O   UNL     1       7.181  27.848  55.464  1.00  0.00    -0.339 OA
BRANCH  20  21
HETATM   21  C   UNL     1       7.410  26.510  55.257  1.00  0.00     0.102 A 
HETATM   22  C   UNL     1       7.292  26.034  53.939  1.00  0.00     0.102 A 
HETATM   23  C   UNL     1       7.458  24.667  53.686  1.00  0.00     0.051 A 
HETATM   24  C   UNL     1       7.758  23.779  54.727  1.00  0.00    -0.034 A 
HETATM   25  C   UNL     1       7.866  24.264  56.034  1.00  0.00     0.014 A 
HETATM   26  C   UNL     1       7.686  25.623  56.301  1.00  0.00     0.040 A 
BRANCH  22  27
HETATM   27  O   UNL     1       7.012  26.975  52.980  1.00  0.00    -0.353 OA
HETATM   28  C   UNL     1       5.739  26.900  52.350  1.00  0.00     0.210 C 
ENDBRANCH  22  27
BRANCH  24  29
HETATM   29  C   UNL     1       7.897  22.350  54.429  1.00  0.00     0.007 C 
HETATM   30  C   UNL     1       8.081  21.879  53.186  1.00  0.00    -0.030 C 
HETATM   31  C   UNL     1       8.211  20.426  52.863  1.00  0.00     0.036 C 
ENDBRANCH  24  29
ENDBRANCH  20  21
ENDBRANCH  19  20
ENDBRANCH   1  19
TORSDOF 7
ENDMDL
MODEL 4
REMARK VINA RESULT:      -9.4      1.982      3.391
REMARK  7 active torsions:
REMARK  status: ('A' for Active; 'I' for Inactive)
REMARK    1  A    between atoms: C_3  and  C_4 
REMARK    2  A    between atoms: C_6  and  O_7 
REMARK    3  A    between atoms: C_9  and  O_10 
REMARK    4  A    between atoms: O_10  and  C_11 
REMARK    5  A    between atoms: C_11  and  C_12 
REMARK       I    between atoms: C_12  and  N_13 
REMARK    6  A    between atoms: N_13  and  N_14 
REMARK       I    between atoms: N_14  and  C_15 
REMARK    7  A    between atoms: C_15  and  C_16 
ROOT
HETATM    1  C   UNL     1       6.994  31.654  59.313  1.00  0.00     0.260 C 
HETATM    2  N   UNL     1       7.362  30.328  59.430  1.00  0.00    -0.265 N 
HETATM    3  O   UNL     1       6.570  32.141  58.264  1.00  0.00    -0.269 OA
HETATM    4  H   UNL     1       7.517  29.905  60.346  1.00  0.00     0.190 HD
ENDROOT
BRANCH   2   5
HETATM    5  N   UNL     1       7.091  29.469  58.363  1.00  0.00    -0.263 N 
HETATM    6  C   UNL     1       8.128  28.810  57.736  1.00  0.00     0.272 C 
HETATM    7  O   UNL     1       9.307  29.045  57.997  1.00  0.00    -0.266 OA
HETATM    8  H   UNL     1       6.116  29.305  58.139  1.00  0.00     0.190 HD
BRANCH   6   9
HETATM    9  C   UNL     1       7.720  27.872  56.693  1.00  0.00     0.061 A 
HETATM   10  C   UNL     1       7.893  26.447  56.586  1.00  0.00     0.008 A 
HETATM   11  C   UNL     1       7.249  26.030  55.411  1.00  0.00     0.045 A 
HETATM   12  C   UNL     1       8.548  25.464  57.368  1.00  0.00     0.015 A 
HETATM   13  C   UNL     1       7.193  24.677  55.032  1.00  0.00     0.030 A 
HETATM   14  N   UNL     1       6.760  27.161  54.797  1.00  0.00    -0.359 N 
HETATM   15  C   UNL     1       7.818  23.729  55.845  1.00  0.00     0.002 A 
HETATM   16  C   UNL     1       8.495  24.117  56.993  1.00  0.00     0.001 A 
HETATM   17  C   UNL     1       6.051  27.226  53.539  1.00  0.00     0.156 C 
HETATM   18  C   UNL     1       7.054  28.268  55.547  1.00  0.00     0.108 A 
ENDBRANCH   6   9
ENDBRANCH   2   5
BRANCH   1  19
HETATM   19  C   UNL     1       7.098  32.453  60.608  1.00  0.00     0.280 C 
BRANCH  19  20
HETATM   20  O   UNL     1       6.825  31.614  61.727  1.00  0.00    -0.339 OA
BRANCH  20  21
HETATM   21  C   UNL     1       6.678  32.277  62.921  1.00  0.00     0.102 A 
HETATM   22  C   UNL     1       5.368  32.454  63.401  1.00  0.00     0.102 A 
HETATM   23  C   UNL     1       5.162  33.174  64.584  1.00  0.00     0.051 A 
HETATM   24  C   UNL     1       6.247  33.700  65.298  1.00  0.00    -0.034 A 
HETATM   25  C   UNL     1       7.544  33.523  64.806  1.00  0.00     0.014 A 
HETATM   26  C   UNL     1       7.760  32.820  63.619  1.00  0.00     0.040 A 
BRANCH  22  27
HETATM   27  O   UNL     1       4.367  31.892  62.647  1.00  0.00    -0.353 OA
HETATM   28  C   UNL     1       3.512  32.780  61.941  1.00  0.00     0.210 C 
ENDBRANCH  22  27
BRANCH  24  29
HETATM   29  C   UNL     1       5.992  34.473  66.517  1.00  0.00     0.007 C 
HETATM   30  C   UNL     1       6.657  34.265  67.664  1.00  0.00    -0.030 C 
HETATM   31  C   UNL     1       6.399  35.034  68.920  1.00  0.00     0.036 C 
ENDBRANCH  24  29
ENDBRANCH  20  21
ENDBRANCH  19  20
ENDBRANCH   1  19
TORSDOF 7
ENDMDL
MODEL 5
REMARK VINA RESULT:      -9.3      2.062      3.475
REMARK  7 active torsions:
REMARK  status: ('A' for Active; 'I' for Inactive)
REMARK    1  A    between atoms: C_3  and  C_4 
REMARK    2  A    between atoms: C_6  and  O_7 
REMARK    3  A    between atoms: C_9  and  O_10 
REMARK    4  A    between atoms: O_10  and  C_11 
REMARK    5  A    between atoms: C_11  and  C_12 
REMARK       I    between atoms: C_12  and  N_13 
REMARK    6  A    between atoms: N_13  and  N_14 
REMARK       I    between atoms: N_14  and  C_15 
REMARK    7  A    between atoms: C_15  and  C_16 
ROOT
HETATM    1  C   UNL     1       5.858  27.968  56.423  1.00  0.00     0.260 C 
HETATM    2  N   UNL     1       7.063  27.418  56.032  1.00  0.00    -0.265 N 
HETATM    3  O   UNL     1       4.888  27.287  56.761  1.00  0.00    -0.269 OA
HETATM    4  H   UNL     1       7.901  27.994  55.952  1.00  0.00     0.190 HD
ENDROOT
BRANCH   2   5
HETATM    5  N   UNL     1       7.240  26.041  56.179  1.00  0.00    -0.263 N 
HETATM    6  C   UNL     1       7.546  25.270  55.077  1.00  0.00     0.272 C 
HETATM    7  O   UNL     1       7.548  25.729  53.936  1.00  0.00    -0.266 OA
HETATM    8  H   UNL     1       7.208  25.669  57.122  1.00  0.00     0.190 HD
BRANCH   6   9
HETATM    9  C   UNL     1       7.796  23.859  55.363  1.00  0.00     0.061 A 
HETATM   10  C   UNL     1       7.935  22.729  54.482  1.00  0.00     0.008 A 
HETATM   11  C   UNL     1       8.235  21.610  55.275  1.00  0.00     0.045 A 
HETATM   12  C   UNL     1       7.822  22.539  53.083  1.00  0.00     0.015 A 
HETATM   13  C   UNL     1       8.479  20.343  54.715  1.00  0.00     0.030 A 
HETATM   14  N   UNL     1       8.216  22.030  56.586  1.00  0.00    -0.359 N 
HETATM   15  C   UNL     1       8.395  20.200  53.329  1.00  0.00     0.002 A 
HETATM   16  C   UNL     1       8.063  21.280  52.522  1.00  0.00     0.001 A 
HETATM   17  C   UNL     1       8.437  21.214  57.759  1.00  0.00     0.156 C 
HETATM   18  C   UNL     1       7.936  23.368  56.649  1.00  0.00     0.108 A 
ENDBRANCH   6   9
ENDBRANCH   2   5
BRANCH   1  19
HETATM   19  C   UNL     1       5.846  29.493  56.463  1.00  0.00     0.280 C 
BRANCH  19  20
HETATM   20  O   UNL     1       7.174  29.993  56.592  1.00  0.00    -0.339 OA
BRANCH  20  21
HETATM   21  C   UNL     1       7.431  30.647  57.772  1.00  0.00     0.102 A 
HETATM   22  C   UNL     1       8.655  30.371  58.406  1.00  0.00     0.102 A 
HETATM   23  C   UNL     1       8.938  30.968  59.640  1.00  0.00     0.051 A 
HETATM   24  C   UNL     1       8.023  31.847  60.236  1.00  0.00    -0.034 A 
HETATM   25  C   UNL     1       6.807  32.108  59.597  1.00  0.00     0.014 A 
HETATM   26  C   UNL     1       6.507  31.506  58.373  1.00  0.00     0.040 A 
BRANCH  22  27
HETATM   27  O   UNL     1       9.497  29.511  57.745  1.00  0.00    -0.353 OA
HETATM   28  C   UNL     1      10.696  30.060  57.214  1.00  0.00     0.210 C 
ENDBRANCH  22  27
BRANCH  24  29
HETATM   29  C   UNL     1       8.341  32.431  61.542  1.00  0.00     0.007 C 
HETATM   30  C   UNL     1       7.572  32.251  62.627  1.00  0.00    -0.030 C 
HETATM   31  C   UNL     1       7.873  32.852  63.962  1.00  0.00     0.036 C 
ENDBRANCH  24  29
ENDBRANCH  20  21
ENDBRANCH  19  20
ENDBRANCH   1  19
TORSDOF 7
ENDMDL
MODEL 6
REMARK VINA RESULT:      -9.2      2.331      9.936
REMARK  7 active torsions:
REMARK  status: ('A' for Active; 'I' for Inactive)
REMARK    1  A    between atoms: C_3  and  C_4 
REMARK    2  A    between atoms: C_6  and  O_7 
REMARK    3  A    between atoms: C_9  and  O_10 
REMARK    4  A    between atoms: O_10  and  C_11 
REMARK    5  A    between atoms: C_11  and  C_12 
REMARK       I    between atoms: C_12  and  N_13 
REMARK    6  A    between atoms: N_13  and  N_14 
REMARK       I    between atoms: N_14  and  C_15 
REMARK    7  A    between atoms: C_15  and  C_16 
ROOT
HETATM    1  C   UNL     1       5.603  29.080  54.781  1.00  0.00     0.260 C 
HETATM    2  N   UNL     1       6.645  29.379  55.637  1.00  0.00    -0.265 N 
HETATM    3  O   UNL     1       4.425  29.322  55.048  1.00  0.00    -0.269 OA
HETATM    4  H   UNL     1       7.612  29.353  55.315  1.00  0.00     0.190 HD
ENDROOT
BRANCH   2   5
HETATM    5  N   UNL     1       6.366  30.130  56.780  1.00  0.00    -0.263 N 
HETATM    6  C   UNL     1       7.363  30.360  57.706  1.00  0.00     0.272 C 
HETATM    7  O   UNL     1       8.466  29.821  57.629  1.00  0.00    -0.266 OA
HETATM    8  H   UNL     1       5.445  30.547  56.846  1.00  0.00     0.190 HD
BRANCH   6   9
HETATM    9  C   UNL     1       6.983  31.232  58.816  1.00  0.00     0.061 A 
HETATM   10  C   UNL     1       7.576  31.417  60.114  1.00  0.00     0.008 A 
HETATM   11  C   UNL     1       6.853  32.428  60.767  1.00  0.00     0.045 A 
HETATM   12  C   UNL     1       8.652  30.815  60.811  1.00  0.00     0.015 A 
HETATM   13  C   UNL     1       7.205  32.885  62.050  1.00  0.00     0.030 A 
HETATM   14  N   UNL     1       5.827  32.796  59.927  1.00  0.00    -0.359 N 
HETATM   15  C   UNL     1       8.295  32.295  62.693  1.00  0.00     0.002 A 
HETATM   16  C   UNL     1       9.004  31.266  62.087  1.00  0.00     0.001 A 
HETATM   17  C   UNL     1       4.804  33.782  60.191  1.00  0.00     0.156 C 
HETATM   18  C   UNL     1       5.886  32.073  58.767  1.00  0.00     0.108 A 
ENDBRANCH   6   9
ENDBRANCH   2   5
BRANCH   1  19
HETATM   19  C   UNL     1       6.037  28.480  53.446  1.00  0.00     0.280 C 
BRANCH  19  20
HETATM   20  O   UNL     1       7.328  27.891  53.568  1.00  0.00    -0.339 OA
BRANCH  20  21
HETATM   21  C   UNL     1       7.337  26.517  53.569  1.00  0.00     0.102 A 
HETATM   22  C   UNL     1       7.551  25.876  54.802  1.00  0.00     0.102 A 
HETATM   23  C   UNL     1       7.626  24.479  54.845  1.00  0.00     0.051 A 
HETATM   24  C   UNL     1       7.472  23.719  53.678  1.00  0.00    -0.034 A 
HETATM   25  C   UNL     1       7.265  24.369  52.457  1.00  0.00     0.014 A 
HETATM   26  C   UNL     1       7.205  25.763  52.400  1.00  0.00     0.040 A 
BRANCH  22  27
HETATM   27  O   UNL     1       7.675  26.697  55.896  1.00  0.00    -0.353 OA
HETATM   28  C   UNL     1       7.373  26.134  57.165  1.00  0.00     0.210 C 
ENDBRANCH  22  27
BRANCH  24  29
HETATM   29  C   UNL     1       7.585  22.260  53.756  1.00  0.00     0.007 C 
HETATM   30  C   UNL     1       8.600  21.577  53.205  1.00  0.00    -0.030 C 
HETATM   31  C   UNL     1       8.723  20.088  53.263  1.00  0.00     0.036 C 
ENDBRANCH  24  29
ENDBRANCH  20  21
ENDBRANCH  19  20
ENDBRANCH   1  19
TORSDOF 7
ENDMDL
MODEL 7
REMARK VINA RESULT:      -9.1      1.627      2.437
REMARK  7 active torsions:
REMARK  status: ('A' for Active; 'I' for Inactive)
REMARK    1  A    between atoms: C_3  and  C_4 
REMARK    2  A    between atoms: C_6  and  O_7 
REMARK    3  A    between atoms: C_9  and  O_10 
REMARK    4  A    between atoms: O_10  and  C_11 
REMARK    5  A    between atoms: C_11  and  C_12 
REMARK       I    between atoms: C_12  and  N_13 
REMARK    6  A    between atoms: N_13  and  N_14 
REMARK       I    between atoms: N_14  and  C_15 
REMARK    7  A    between atoms: C_15  and  C_16 
ROOT
HETATM    1  C   UNL     1       8.599  30.281  58.373  1.00  0.00     0.260 C 
HETATM    2  N   UNL     1       7.671  29.289  58.624  1.00  0.00    -0.265 N 
HETATM    3  O   UNL     1       9.654  30.075  57.773  1.00  0.00    -0.269 OA
HETATM    4  H   UNL     1       6.729  29.519  58.939  1.00  0.00     0.190 HD
ENDROOT
BRANCH   2   5
HETATM    5  N   UNL     1       7.865  28.038  58.035  1.00  0.00    -0.263 N 
HETATM    6  C   UNL     1       6.910  27.530  57.179  1.00  0.00     0.272 C 
HETATM    7  O   UNL     1       5.824  28.083  57.007  1.00  0.00    -0.266 OA
HETATM    8  H   UNL     1       8.752  27.579  58.207  1.00  0.00     0.190 HD
BRANCH   6   9
HETATM    9  C   UNL     1       7.257  26.257  56.554  1.00  0.00     0.061 A 
HETATM   10  C   UNL     1       7.335  25.877  55.168  1.00  0.00     0.008 A 
HETATM   11  C   UNL     1       7.784  24.548  55.118  1.00  0.00     0.045 A 
HETATM   12  C   UNL     1       7.054  26.527  53.942  1.00  0.00     0.015 A 
HETATM   13  C   UNL     1       8.011  23.882  53.900  1.00  0.00     0.030 A 
HETATM   14  N   UNL     1       7.912  24.119  56.420  1.00  0.00    -0.359 N 
HETATM   15  C   UNL     1       7.759  24.566  52.709  1.00  0.00     0.002 A 
HETATM   16  C   UNL     1       7.278  25.869  52.728  1.00  0.00     0.001 A 
HETATM   17  C   UNL     1       8.317  22.803  56.862  1.00  0.00     0.156 C 
HETATM   18  C   UNL     1       7.582  25.127  57.284  1.00  0.00     0.108 A 
ENDBRANCH   6   9
ENDBRANCH   2   5
BRANCH   1  19
HETATM   19  C   UNL     1       8.178  31.670  58.845  1.00  0.00     0.280 C 
BRANCH  19  20
HETATM   20  O   UNL     1       6.977  31.588  59.607  1.00  0.00    -0.339 OA
BRANCH  20  21
HETATM   21  C   UNL     1       7.093  32.006  60.910  1.00  0.00     0.102 A 
HETATM   22  C   UNL     1       6.179  32.976  61.358  1.00  0.00     0.102 A 
HETATM   23  C   UNL     1       6.293  33.476  62.660  1.00  0.00     0.051 A 
HETATM   24  C   UNL     1       7.294  33.006  63.522  1.00  0.00    -0.034 A 
HETATM   25  C   UNL     1       8.200  32.045  63.061  1.00  0.00     0.014 A 
HETATM   26  C   UNL     1       8.106  31.551  61.759  1.00  0.00     0.040 A 
BRANCH  22  27
HETATM   27  O   UNL     1       5.223  33.367  60.454  1.00  0.00    -0.353 OA
HETATM   28  C   UNL     1       4.287  34.346  60.886  1.00  0.00     0.210 C 
ENDBRANCH  22  27
BRANCH  24  29
HETATM   29  C   UNL     1       7.401  33.573  64.869  1.00  0.00     0.007 C 
HETATM   30  C   UNL     1       6.340  33.747  65.673  1.00  0.00    -0.030 C 
HETATM   31  C   UNL     1       6.429  34.337  67.043  1.00  0.00     0.036 C 
ENDBRANCH  24  29
ENDBRANCH  20  21
ENDBRANCH  19  20
ENDBRANCH   1  19
TORSDOF 7
ENDMDL
MODEL 8
REMARK VINA RESULT:      -9.0      1.823      2.950
REMARK  7 active torsions:
REMARK  status: ('A' for Active; 'I' for Inactive)
REMARK    1  A    between atoms: C_3  and  C_4 
REMARK    2  A    between atoms: C_6  and  O_7 
REMARK    3  A    between atoms: C_9  and  O_10 
REMARK    4  A    between atoms: O_10  and  C_11 
REMARK    5  A    between atoms: C_11  and  C_12 
REMARK       I    between atoms: C_12  and  N_13 
REMARK    6  A    between atoms: N_13  and  N_14 
REMARK       I    between atoms: N_14  and  C_15 
REMARK    7  A    between atoms: C_15  and  C_16 
ROOT
HETATM    1  C   UNL     1       5.289  31.072  58.175  1.00  0.00     0.260 C 
HETATM    2  N   UNL     1       6.359  30.201  58.121  1.00  0.00    -0.265 N 
HETATM    3  O   UNL     1       4.333  31.007  57.401  1.00  0.00    -0.269 OA
HETATM    4  H   UNL     1       7.032  30.148  58.886  1.00  0.00     0.190 HD
ENDROOT
BRANCH   2   5
HETATM    5  N   UNL     1       6.277  29.105  57.259  1.00  0.00    -0.263 N 
HETATM    6  C   UNL     1       7.066  27.997  57.486  1.00  0.00     0.272 C 
HETATM    7  O   UNL     1       7.940  27.981  58.353  1.00  0.00    -0.266 OA
HETATM    8  H   UNL     1       5.573  29.141  56.532  1.00  0.00     0.190 HD
BRANCH   6   9
HETATM    9  C   UNL     1       6.834  26.878  56.576  1.00  0.00     0.061 A 
HETATM   10  C   UNL     1       7.419  25.564  56.528  1.00  0.00     0.008 A 
HETATM   11  C   UNL     1       6.787  24.858  55.492  1.00  0.00     0.045 A 
HETATM   12  C   UNL     1       8.438  24.903  57.256  1.00  0.00     0.015 A 
HETATM   13  C   UNL     1       7.098  23.516  55.207  1.00  0.00     0.030 A 
HETATM   14  N   UNL     1       5.901  25.726  54.896  1.00  0.00    -0.359 N 
HETATM   15  C   UNL     1       8.082  22.883  55.968  1.00  0.00     0.002 A 
HETATM   16  C   UNL     1       8.751  23.568  56.974  1.00  0.00     0.001 A 
HETATM   17  C   UNL     1       5.050  25.450  53.761  1.00  0.00     0.156 C 
HETATM   18  C   UNL     1       5.937  26.941  55.525  1.00  0.00     0.108 A 
ENDBRANCH   6   9
ENDBRANCH   2   5
BRANCH   1  19
HETATM   19  C   UNL     1       5.359  32.085  59.314  1.00  0.00     0.280 C 
BRANCH  19  20
HETATM   20  O   UNL     1       6.708  32.251  59.743  1.00  0.00    -0.339 OA
BRANCH  20  21
HETATM   21  C   UNL     1       6.851  32.637  61.053  1.00  0.00     0.102 A 
HETATM   22  C   UNL     1       7.759  31.910  61.842  1.00  0.00     0.102 A 
HETATM   23  C   UNL     1       7.898  32.228  63.198  1.00  0.00     0.051 A 
HETATM   24  C   UNL     1       7.156  33.272  63.767  1.00  0.00    -0.034 A 
HETATM   25  C   UNL     1       6.251  33.984  62.972  1.00  0.00     0.014 A 
HETATM   26  C   UNL     1       6.093  33.664  61.622  1.00  0.00     0.040 A 
BRANCH  22  27
HETATM   27  O   UNL     1       8.456  30.915  61.201  1.00  0.00    -0.353 OA
HETATM   28  C   UNL     1       9.519  30.303  61.918  1.00  0.00     0.210 C 
ENDBRANCH  22  27
BRANCH  24  29
HETATM   29  C   UNL     1       7.306  33.559  65.197  1.00  0.00     0.007 C 
HETATM   30  C   UNL     1       6.292  33.987  65.964  1.00  0.00    -0.030 C 
HETATM   31  C   UNL     1       6.431  34.298  67.420  1.00  0.00     0.036 C 
ENDBRANCH  24  29
ENDBRANCH  20  21
ENDBRANCH  19  20
ENDBRANCH   1  19
TORSDOF 7
ENDMDL
MODEL 9
REMARK VINA RESULT:      -9.0      2.453     10.515
REMARK  7 active torsions:
REMARK  status: ('A' for Active; 'I' for Inactive)
REMARK    1  A    between atoms: C_3  and  C_4 
REMARK    2  A    between atoms: C_6  and  O_7 
REMARK    3  A    between atoms: C_9  and  O_10 
REMARK    4  A    between atoms: O_10  and  C_11 
REMARK    5  A    between atoms: C_11  and  C_12 
REMARK       I    between atoms: C_12  and  N_13 
REMARK    6  A    between atoms: N_13  and  N_14 
REMARK       I    between atoms: N_14  and  C_15 
REMARK    7  A    between atoms: C_15  and  C_16 
ROOT
HETATM    1  C   UNL     1       7.185  28.837  57.283  1.00  0.00     0.260 C 
HETATM    2  N   UNL     1       8.116  29.412  58.125  1.00  0.00    -0.265 N 
HETATM    3  O   UNL     1       5.992  28.733  57.575  1.00  0.00    -0.269 OA
HETATM    4  H   UNL     1       9.045  29.665  57.785  1.00  0.00     0.190 HD
ENDROOT
BRANCH   2   5
HETATM    5  N   UNL     1       7.660  30.046  59.282  1.00  0.00    -0.263 N 
HETATM    6  C   UNL     1       8.012  31.357  59.527  1.00  0.00     0.272 C 
HETATM    7  O   UNL     1       8.822  31.961  58.825  1.00  0.00    -0.266 OA
HETATM    8  H   UNL     1       7.016  29.529  59.868  1.00  0.00     0.190 HD
BRANCH   6   9
HETATM    9  C   UNL     1       7.407  31.944  60.721  1.00  0.00     0.061 A 
HETATM   10  C   UNL     1       6.055  32.361  60.984  1.00  0.00     0.008 A 
HETATM   11  C   UNL     1       6.000  32.795  62.318  1.00  0.00     0.045 A 
HETATM   12  C   UNL     1       4.868  32.427  60.216  1.00  0.00     0.015 A 
HETATM   13  C   UNL     1       4.801  33.229  62.912  1.00  0.00     0.030 A 
HETATM   14  N   UNL     1       7.277  32.705  62.824  1.00  0.00    -0.359 N 
HETATM   15  C   UNL     1       3.640  33.247  62.135  1.00  0.00     0.002 A 
HETATM   16  C   UNL     1       3.673  32.860  60.802  1.00  0.00     0.001 A 
HETATM   17  C   UNL     1       7.710  33.076  64.152  1.00  0.00     0.156 C 
HETATM   18  C   UNL     1       8.128  32.216  61.870  1.00  0.00     0.108 A 
ENDBRANCH   6   9
ENDBRANCH   2   5
BRANCH   1  19
HETATM   19  C   UNL     1       7.743  28.394  55.934  1.00  0.00     0.280 C 
BRANCH  19  20
HETATM   20  O   UNL     1       6.707  27.830  55.134  1.00  0.00    -0.339 OA
BRANCH  20  21
HETATM   21  C   UNL     1       6.968  26.566  54.663  1.00  0.00     0.102 A 
HETATM   22  C   UNL     1       6.775  26.340  53.289  1.00  0.00     0.102 A 
HETATM   23  C   UNL     1       6.971  25.054  52.772  1.00  0.00     0.051 A 
HETATM   24  C   UNL     1       7.373  24.002  53.605  1.00  0.00    -0.034 A 
HETATM   25  C   UNL     1       7.555  24.239  54.972  1.00  0.00     0.014 A 
HETATM   26  C   UNL     1       7.347  25.514  55.502  1.00  0.00     0.040 A 
BRANCH  22  27
HETATM   27  O   UNL     1       6.397  27.430  52.545  1.00  0.00    -0.353 OA
HETATM   28  C   UNL     1       5.423  27.216  51.531  1.00  0.00     0.210 C 
ENDBRANCH  22  27
BRANCH  24  29
HETATM   29  C   UNL     1       7.541  22.663  53.034  1.00  0.00     0.007 C 
HETATM   30  C   UNL     1       8.452  21.787  53.486  1.00  0.00    -0.030 C 
HETATM   31  C   UNL     1       8.646  20.423  52.906  1.00  0.00     0.036 C 
ENDBRANCH  24  29
ENDBRANCH  20  21
ENDBRANCH  19  20
ENDBRANCH   1  19
TORSDOF 7
ENDMDL
MODEL 10
REMARK VINA RESULT:      -8.9      6.362     11.475
REMARK  7 active torsions:
REMARK  status: ('A' for Active; 'I' for Inactive)
REMARK    1  A    between atoms: C_3  and  C_4 
REMARK    2  A    between atoms: C_6  and  O_7 
REMARK    3  A    between atoms: C_9  and  O_10 
REMARK    4  A    between atoms: O_10  and  C_11 
REMARK    5  A    between atoms: C_11  and  C_12 
REMARK       I    between atoms: C_12  and  N_13 
REMARK    6  A    between atoms: N_13  and  N_14 
REMARK       I    between atoms: N_14  and  C_15 
REMARK    7  A    between atoms: C_15  and  C_16 
ROOT
HETATM    1  C   UNL     1       5.426  27.881  50.301  1.00  0.00     0.260 C 
HETATM    2  N   UNL     1       5.810  26.559  50.410  1.00  0.00    -0.265 N 
HETATM    3  O   UNL     1       5.390  28.650  51.263  1.00  0.00    -0.269 OA
HETATM    4  H   UNL     1       6.022  26.003  49.581  1.00  0.00     0.190 HD
ENDROOT
BRANCH   2   5
HETATM    5  N   UNL     1       6.330  26.119  51.629  1.00  0.00    -0.263 N 
HETATM    6  C   UNL     1       5.711  25.088  52.305  1.00  0.00     0.272 C 
HETATM    7  O   UNL     1       4.635  24.617  51.938  1.00  0.00    -0.266 OA
HETATM    8  H   UNL     1       7.202  26.535  51.935  1.00  0.00     0.190 HD
BRANCH   6   9
HETATM    9  C   UNL     1       6.391  24.654  53.522  1.00  0.00     0.061 A 
HETATM   10  C   UNL     1       7.317  23.576  53.751  1.00  0.00     0.008 A 
HETATM   11  C   UNL     1       7.721  23.644  55.094  1.00  0.00     0.045 A 
HETATM   12  C   UNL     1       7.847  22.534  52.952  1.00  0.00     0.015 A 
HETATM   13  C   UNL     1       8.665  22.753  55.635  1.00  0.00     0.030 A 
HETATM   14  N   UNL     1       7.021  24.679  55.672  1.00  0.00    -0.359 N 
HETATM   15  C   UNL     1       9.195  21.760  54.808  1.00  0.00     0.002 A 
HETATM   16  C   UNL     1       8.786  21.644  53.486  1.00  0.00     0.001 A 
HETATM   17  C   UNL     1       7.085  25.103  57.053  1.00  0.00     0.156 C 
HETATM   18  C   UNL     1       6.210  25.275  54.745  1.00  0.00     0.108 A 
ENDBRANCH   6   9
ENDBRANCH   2   5
BRANCH   1  19
HETATM   19  C   UNL     1       5.110  28.329  48.877  1.00  0.00     0.280 C 
BRANCH  19  20
HETATM   20  O   UNL     1       4.443  27.287  48.170  1.00  0.00    -0.339 OA
BRANCH  20  21
HETATM   21  C   UNL     1       3.174  27.599  47.747  1.00  0.00     0.102 A 
HETATM   22  C   UNL     1       2.464  26.603  47.055  1.00  0.00     0.102 A 
HETATM   23  C   UNL     1       1.190  26.891  46.553  1.00  0.00     0.051 A 
HETATM   24  C   UNL     1       0.613  28.153  46.751  1.00  0.00    -0.034 A 
HETATM   25  C   UNL     1       1.333  29.137  47.436  1.00  0.00     0.014 A 
HETATM   26  C   UNL     1       2.611  28.866  47.926  1.00  0.00     0.040 A 
BRANCH  22  27
HETATM   27  O   UNL     1       3.098  25.392  46.921  1.00  0.00    -0.353 OA
HETATM   28  C   UNL     1       2.965  24.469  47.994  1.00  0.00     0.210 C 
ENDBRANCH  22  27
BRANCH  24  29
HETATM   29  C   UNL     1      -0.712  28.429  46.187  1.00  0.00     0.007 C 
HETATM   30  C   UNL     1      -1.268  29.650  46.197  1.00  0.00    -0.030 C 
HETATM   31  C   UNL     1      -2.623  29.946  45.640  1.00  0.00     0.036 C 
ENDBRANCH  24  29
ENDBRANCH  20  21
ENDBRANCH  19  20
ENDBRANCH   1  19
TORSDOF 7
ENDMDL
