MODEL 1
REMARK VINA RESULT:     -10.0      0.000      0.000
REMARK  7 active torsions:
REMARK  status: ('A' for Active; 'I' for Inactive)
REMARK    1  A    between atoms: C_8  and  C_9 
REMARK    2  A    between atoms: C_9  and  C_10 
REMARK    3  A    between atoms: C_10  and  N_11 
REMARK    4  A    between atoms: C_10  and  C_19 
REMARK       I    between atoms: N_11  and  C_12 
REMARK    5  A    between atoms: C_12  and  C_13 
REMARK       I    between atoms: C_19  and  N_20 
REMARK    6  A    between atoms: N_20  and  N_21 
REMARK       I    between atoms: N_21  and  C_22 
REMARK       I    between atoms: C_22  and  N_23 
REMARK    7  A    between atoms: N_23  and  C_24 
ROOT
HETATM    1  C   UNL     1       7.704  27.296  56.488  1.00  0.00     0.183 C 
ENDROOT
BRANCH   1   2
HETATM    2  C   UNL     1       8.953  26.412  56.663  1.00  0.00     0.076 C 
BRANCH   2   3
HETATM    3  C   UNL     1       8.633  24.956  56.838  1.00  0.00    -0.028 A 
HETATM    4  C   UNL     1       8.389  24.004  55.795  1.00  0.00    -0.002 A 
HETATM    5  C   UNL     1       8.369  24.072  54.387  1.00  0.00     0.014 A 
HETATM    6  C   UNL     1       8.124  22.777  56.405  1.00  0.00     0.042 A 
HETATM    7  C   UNL     1       8.083  22.921  53.644  1.00  0.00     0.001 A 
HETATM    8  C   UNL     1       7.819  21.712  54.283  1.00  0.00     0.002 A 
HETATM    9  C   UNL     1       7.835  21.617  55.677  1.00  0.00     0.030 A 
HETATM   10  N   UNL     1       8.217  22.970  57.762  1.00  0.00    -0.365 N 
HETATM   11  H   UNL     1       8.086  22.245  58.453  1.00  0.00     0.165 HD
HETATM   12  C   UNL     1       8.524  24.277  58.036  1.00  0.00     0.096 A 
ENDBRANCH   2   3
ENDBRANCH   1   2
BRANCH   1  13
HETATM   13  N   UNL     1       7.088  27.123  55.167  1.00  0.00    -0.343 N 
HETATM   14  C   UNL     1       5.827  26.594  55.000  1.00  0.00     0.259 C 
HETATM   15  O   UNL     1       5.053  26.516  55.955  1.00  0.00    -0.267 OA
HETATM   16  H   UNL     1       7.712  27.034  54.370  1.00  0.00     0.163 HD
BRANCH  14  17
HETATM   17  C   UNL     1       5.481  26.163  53.654  1.00  0.00     0.072 A 
HETATM   18  S   UNL     1       5.698  27.175  52.285  1.00  0.00    -0.097 SA
HETATM   19  C   UNL     1       5.080  25.991  51.220  1.00  0.00     0.050 A 
HETATM   20  C   UNL     1       4.723  24.838  51.883  1.00  0.00     0.009 A 
HETATM   21  C   UNL     1       4.954  24.938  53.285  1.00  0.00     0.025 A 
ENDBRANCH  14  17
ENDBRANCH   1  13
BRANCH   1  22
HETATM   22  C   UNL     1       8.095  28.766  56.768  1.00  0.00     0.259 C 
HETATM   23  N   UNL     1       8.784  28.980  57.956  1.00  0.00    -0.264 N 
HETATM   24  H   UNL     1       9.239  28.164  58.376  1.00  0.00     0.190 HD
HETATM   25  O   UNL     1       7.945  29.669  55.942  1.00  0.00    -0.269 OA
BRANCH  23  26
HETATM   26  N   UNL     1       9.458  30.211  58.047  1.00  0.00    -0.249 N 
HETATM   27  C   UNL     1       9.137  31.211  58.934  1.00  0.00     0.339 C 
HETATM   28  N   UNL     1       8.293  30.826  59.946  1.00  0.00    -0.308 N 
HETATM   29  O   UNL     1       9.635  32.322  58.777  1.00  0.00    -0.245 OA
HETATM   30  H   UNL     1       7.912  29.897  59.844  1.00  0.00     0.170 HD
HETATM   31  H   UNL     1       9.952  30.513  57.206  1.00  0.00     0.192 HD
BRANCH  28  32
HETATM   32  C   UNL     1       7.882  31.586  61.058  1.00  0.00     0.036 A 
HETATM   33  C   UNL     1       8.582  31.635  62.268  1.00  0.00     0.031 A 
HETATM   34  C   UNL     1       8.102  32.392  63.343  1.00  0.00     0.026 A 
HETATM   35  C   UNL     1       6.914  33.103  63.213  1.00  0.00     0.034 A 
HETATM   36 CL   UNL     1       6.316  34.023  64.538  1.00  0.00    -0.084 Cl
HETATM   37  C   UNL     1       6.205  33.068  62.015  1.00  0.00     0.026 A 
HETATM   38  C   UNL     1       6.689  32.312  60.939  1.00  0.00     0.031 A 
ENDBRANCH  28  32
ENDBRANCH  23  26
ENDBRANCH   1  22
TORSDOF 7
ENDMDL
MODEL 2
REMARK VINA RESULT:      -9.9      1.955      2.311
REMARK  7 active torsions:
REMARK  status: ('A' for Active; 'I' for Inactive)
REMARK    1  A    between atoms: C_8  and  C_9 
REMARK    2  A    between atoms: C_9  and  C_10 
REMARK    3  A    between atoms: C_10  and  N_11 
REMARK    4  A    between atoms: C_10  and  C_19 
REMARK       I    between atoms: N_11  and  C_12 
REMARK    5  A    between atoms: C_12  and  C_13 
REMARK       I    between atoms: C_19  and  N_20 
REMARK    6  A    between atoms: N_20  and  N_21 
REMARK       I    between atoms: N_21  and  C_22 
REMARK       I    between atoms: C_22  and  N_23 
REMARK    7  A    between atoms: N_23  and  C_24 
ROOT
HETATM    1  C   UNL     1       7.094  27.650  54.447  1.00  0.00     0.183 C 
ENDROOT
BRANCH   1   2
HETATM    2  C   UNL     1       7.668  26.372  53.805  1.00  0.00     0.076 C 
BRANCH   2   3
HETATM    3  C   UNL     1       7.621  25.177  54.711  1.00  0.00    -0.028 A 
HETATM    4  C   UNL     1       7.744  23.804  54.320  1.00  0.00    -0.002 A 
HETATM    5  C   UNL     1       7.942  23.147  53.088  1.00  0.00     0.014 A 
HETATM    6  C   UNL     1       7.633  23.030  55.475  1.00  0.00     0.042 A 
HETATM    7  C   UNL     1       8.015  21.749  53.055  1.00  0.00     0.001 A 
HETATM    8  C   UNL     1       7.897  21.005  54.226  1.00  0.00     0.002 A 
HETATM    9  C   UNL     1       7.704  21.632  55.460  1.00  0.00     0.030 A 
HETATM   10  N   UNL     1       7.464  23.895  56.529  1.00  0.00    -0.365 N 
HETATM   11  H   UNL     1       7.368  23.611  57.493  1.00  0.00     0.165 HD
HETATM   12  C   UNL     1       7.455  25.190  56.082  1.00  0.00     0.096 A 
ENDBRANCH   2   3
ENDBRANCH   1   2
BRANCH   1  13
HETATM   13  N   UNL     1       6.129  28.320  53.566  1.00  0.00    -0.343 N 
HETATM   14  C   UNL     1       4.931  27.745  53.205  1.00  0.00     0.259 C 
HETATM   15  O   UNL     1       4.489  26.779  53.830  1.00  0.00    -0.267 OA
HETATM   16  H   UNL     1       6.491  29.023  52.928  1.00  0.00     0.163 HD
BRANCH  14  17
HETATM   17  C   UNL     1       4.238  28.351  52.077  1.00  0.00     0.072 A 
HETATM   18  S   UNL     1       4.745  28.112  50.456  1.00  0.00    -0.097 SA
HETATM   19  C   UNL     1       3.495  29.102  49.842  1.00  0.00     0.050 A 
HETATM   20  C   UNL     1       2.694  29.602  50.845  1.00  0.00     0.009 A 
HETATM   21  C   UNL     1       3.123  29.168  52.133  1.00  0.00     0.025 A 
ENDBRANCH  14  17
ENDBRANCH   1  13
BRANCH   1  22
HETATM   22  C   UNL     1       8.268  28.573  54.846  1.00  0.00     0.259 C 
HETATM   23  N   UNL     1       8.290  28.960  56.181  1.00  0.00    -0.264 N 
HETATM   24  H   UNL     1       7.750  28.384  56.835  1.00  0.00     0.190 HD
HETATM   25  O   UNL     1       9.203  28.837  54.087  1.00  0.00    -0.269 OA
BRANCH  23  26
HETATM   26  N   UNL     1       9.516  29.476  56.638  1.00  0.00    -0.249 N 
HETATM   27  C   UNL     1       9.662  30.265  57.754  1.00  0.00     0.339 C 
HETATM   28  N   UNL     1       8.568  30.287  58.583  1.00  0.00    -0.308 N 
HETATM   29  O   UNL     1      10.728  30.845  57.931  1.00  0.00    -0.245 OA
HETATM   30  H   UNL     1       7.750  29.826  58.212  1.00  0.00     0.170 HD
HETATM   31  H   UNL     1      10.250  29.571  55.935  1.00  0.00     0.192 HD
BRANCH  28  32
HETATM   32  C   UNL     1       8.458  30.903  59.845  1.00  0.00     0.036 A 
HETATM   33  C   UNL     1       9.124  30.456  60.990  1.00  0.00     0.031 A 
HETATM   34  C   UNL     1       8.949  31.101  62.219  1.00  0.00     0.026 A 
HETATM   35  C   UNL     1       8.102  32.200  62.309  1.00  0.00     0.034 A 
HETATM   36 CL   UNL     1       7.875  32.987  63.822  1.00  0.00    -0.084 Cl
HETATM   37  C   UNL     1       7.433  32.662  61.178  1.00  0.00     0.026 A 
HETATM   38  C   UNL     1       7.612  32.016  59.949  1.00  0.00     0.031 A 
ENDBRANCH  28  32
ENDBRANCH  23  26
ENDBRANCH   1  22
TORSDOF 7
ENDMDL
MODEL 3
REMARK VINA RESULT:      -9.8      2.483      3.257
REMARK  7 active torsions:
REMARK  status: ('A' for Active; 'I' for Inactive)
REMARK    1  A    between atoms: C_8  and  C_9 
REMARK    2  A    between atoms: C_9  and  C_10 
REMARK    3  A    between atoms: C_10  and  N_11 
REMARK    4  A    between atoms: C_10  and  C_19 
REMARK       I    between atoms: N_11  and  C_12 
REMARK    5  A    between atoms: C_12  and  C_13 
REMARK       I    between atoms: C_19  and  N_20 
REMARK    6  A    between atoms: N_20  and  N_21 
REMARK       I    between atoms: N_21  and  C_22 
REMARK       I    between atoms: C_22  and  N_23 
REMARK    7  A    between atoms: N_23  and  C_24 
ROOT
HETATM    1  C   UNL     1       7.078  27.862  56.115  1.00  0.00     0.183 C 
ENDROOT
BRANCH   1   2
HETATM    2  C   UNL     1       7.173  26.794  55.009  1.00  0.00     0.076 C 
BRANCH   2   3
HETATM    3  C   UNL     1       7.288  25.395  55.537  1.00  0.00    -0.028 A 
HETATM    4  C   UNL     1       7.517  24.208  54.769  1.00  0.00    -0.002 A 
HETATM    5  C   UNL     1       7.707  23.947  53.396  1.00  0.00     0.014 A 
HETATM    6  C   UNL     1       7.544  23.133  55.659  1.00  0.00     0.042 A 
HETATM    7  C   UNL     1       7.910  22.631  52.965  1.00  0.00     0.001 A 
HETATM    8  C   UNL     1       7.926  21.580  53.878  1.00  0.00     0.002 A 
HETATM    9  C   UNL     1       7.744  21.811  55.245  1.00  0.00     0.030 A 
HETATM   10  N   UNL     1       7.353  23.646  56.919  1.00  0.00    -0.365 N 
HETATM   11  H   UNL     1       7.338  23.094  57.765  1.00  0.00     0.165 HD
HETATM   12  C   UNL     1       7.198  25.006  56.860  1.00  0.00     0.096 A 
ENDBRANCH   2   3
ENDBRANCH   1   2
BRANCH   1  13
HETATM   13  N   UNL     1       6.236  28.996  55.714  1.00  0.00    -0.343 N 
HETATM   14  C   UNL     1       5.558  29.774  56.625  1.00  0.00     0.259 C 
HETATM   15  O   UNL     1       5.855  29.738  57.820  1.00  0.00    -0.267 OA
HETATM   16  H   UNL     1       5.851  28.980  54.774  1.00  0.00     0.163 HD
BRANCH  14  17
HETATM   17  C   UNL     1       4.509  30.629  56.088  1.00  0.00     0.072 A 
HETATM   18  S   UNL     1       3.782  30.337  54.562  1.00  0.00    -0.097 SA
HETATM   19  C   UNL     1       2.761  31.700  54.706  1.00  0.00     0.050 A 
HETATM   20  C   UNL     1       2.954  32.365  55.895  1.00  0.00     0.009 A 
HETATM   21  C   UNL     1       3.962  31.747  56.692  1.00  0.00     0.025 A 
ENDBRANCH  14  17
ENDBRANCH   1  13
BRANCH   1  22
HETATM   22  C   UNL     1       8.510  28.299  56.505  1.00  0.00     0.259 C 
HETATM   23  N   UNL     1       8.949  29.480  55.920  1.00  0.00    -0.264 N 
HETATM   24  H   UNL     1       8.225  30.107  55.553  1.00  0.00     0.190 HD
HETATM   25  O   UNL     1       9.170  27.733  57.380  1.00  0.00    -0.269 OA
BRANCH  23  26
HETATM   26  N   UNL     1      10.067  30.075  56.531  1.00  0.00    -0.249 N 
HETATM   27  C   UNL     1      10.023  30.796  57.701  1.00  0.00     0.339 C 
HETATM   28  N   UNL     1       8.857  30.660  58.411  1.00  0.00    -0.308 N 
HETATM   29  O   UNL     1      11.005  31.459  58.022  1.00  0.00    -0.245 OA
HETATM   30  H   UNL     1       8.129  30.151  57.931  1.00  0.00     0.170 HD
HETATM   31  H   UNL     1      10.853  30.286  55.916  1.00  0.00     0.192 HD
BRANCH  28  32
HETATM   32  C   UNL     1       8.563  31.176  59.689  1.00  0.00     0.036 A 
HETATM   33  C   UNL     1       7.728  32.276  59.910  1.00  0.00     0.031 A 
HETATM   34  C   UNL     1       7.500  32.752  61.206  1.00  0.00     0.026 A 
HETATM   35  C   UNL     1       8.109  32.128  62.290  1.00  0.00     0.034 A 
HETATM   36 CL   UNL     1       7.839  32.721  63.883  1.00  0.00    -0.084 Cl
HETATM   37  C   UNL     1       8.940  31.030  62.088  1.00  0.00     0.026 A 
HETATM   38  C   UNL     1       9.165  30.554  60.790  1.00  0.00     0.031 A 
ENDBRANCH  28  32
ENDBRANCH  23  26
ENDBRANCH   1  22
TORSDOF 7
ENDMDL
MODEL 4
REMARK VINA RESULT:      -9.8      4.589      9.178
REMARK  7 active torsions:
REMARK  status: ('A' for Active; 'I' for Inactive)
REMARK    1  A    between atoms: C_8  and  C_9 
REMARK    2  A    between atoms: C_9  and  C_10 
REMARK    3  A    between atoms: C_10  and  N_11 
REMARK    4  A    between atoms: C_10  and  C_19 
REMARK       I    between atoms: N_11  and  C_12 
REMARK    5  A    between atoms: C_12  and  C_13 
REMARK       I    between atoms: C_19  and  N_20 
REMARK    6  A    between atoms: N_20  and  N_21 
REMARK       I    between atoms: N_21  and  C_22 
REMARK       I    between atoms: C_22  and  N_23 
REMARK    7  A    between atoms: N_23  and  C_24 
ROOT
HETATM    1  C   UNL     1       7.256  26.368  55.223  1.00  0.00     0.183 C 
ENDROOT
BRANCH   1   2
HETATM    2  C   UNL     1       7.975  26.884  56.484  1.00  0.00     0.076 C 
BRANCH   2   3
HETATM    3  C   UNL     1       7.301  28.068  57.112  1.00  0.00    -0.028 A 
HETATM    4  C   UNL     1       7.946  29.208  57.694  1.00  0.00    -0.002 A 
HETATM    5  C   UNL     1       9.291  29.597  57.863  1.00  0.00     0.014 A 
HETATM    6  C   UNL     1       6.945  30.058  58.165  1.00  0.00     0.042 A 
HETATM    7  C   UNL     1       9.584  30.810  58.497  1.00  0.00     0.001 A 
HETATM    8  C   UNL     1       8.562  31.634  58.959  1.00  0.00     0.002 A 
HETATM    9  C   UNL     1       7.220  31.274  58.802  1.00  0.00     0.030 A 
HETATM   10  N   UNL     1       5.739  29.468  57.870  1.00  0.00    -0.365 N 
HETATM   11  H   UNL     1       4.838  29.870  58.085  1.00  0.00     0.165 HD
HETATM   12  C   UNL     1       5.940  28.271  57.236  1.00  0.00     0.096 A 
ENDBRANCH   2   3
ENDBRANCH   1   2
BRANCH   1  13
HETATM   13  N   UNL     1       7.759  25.054  54.804  1.00  0.00    -0.343 N 
HETATM   14  C   UNL     1       6.961  24.118  54.182  1.00  0.00     0.259 C 
HETATM   15  O   UNL     1       5.880  24.448  53.692  1.00  0.00    -0.267 OA
HETATM   16  H   UNL     1       8.568  24.686  55.296  1.00  0.00     0.163 HD
BRANCH  14  17
HETATM   17  C   UNL     1       7.480  22.759  54.133  1.00  0.00     0.072 A 
HETATM   18  S   UNL     1       7.823  21.859  55.552  1.00  0.00    -0.097 SA
HETATM   19  C   UNL     1       8.352  20.506  54.653  1.00  0.00     0.050 A 
HETATM   20  C   UNL     1       8.263  20.721  53.296  1.00  0.00     0.009 A 
HETATM   21  C   UNL     1       7.760  22.020  52.997  1.00  0.00     0.025 A 
ENDBRANCH  14  17
ENDBRANCH   1  13
BRANCH   1  22
HETATM   22  C   UNL     1       7.385  27.432  54.109  1.00  0.00     0.259 C 
HETATM   23  N   UNL     1       6.243  27.632  53.344  1.00  0.00    -0.264 N 
HETATM   24  H   UNL     1       5.356  27.318  53.753  1.00  0.00     0.190 HD
HETATM   25  O   UNL     1       8.373  28.161  53.988  1.00  0.00    -0.269 OA
BRANCH  23  26
HETATM   26  N   UNL     1       6.221  28.822  52.595  1.00  0.00    -0.249 N 
HETATM   27  C   UNL     1       5.550  28.981  51.405  1.00  0.00     0.339 C 
HETATM   28  N   UNL     1       4.646  27.988  51.123  1.00  0.00    -0.308 N 
HETATM   29  O   UNL     1       5.783  29.976  50.726  1.00  0.00    -0.245 OA
HETATM   30  H   UNL     1       4.674  27.202  51.757  1.00  0.00     0.170 HD
HETATM   31  H   UNL     1       7.003  29.459  52.746  1.00  0.00     0.192 HD
BRANCH  28  32
HETATM   32  C   UNL     1       3.737  27.933  50.049  1.00  0.00     0.036 A 
HETATM   33  C   UNL     1       2.599  28.740  49.952  1.00  0.00     0.031 A 
HETATM   34  C   UNL     1       1.723  28.614  48.867  1.00  0.00     0.026 A 
HETATM   35  C   UNL     1       1.981  27.676  47.873  1.00  0.00     0.034 A 
HETATM   36 CL   UNL     1       0.898  27.512  46.547  1.00  0.00    -0.084 Cl
HETATM   37  C   UNL     1       3.112  26.867  47.952  1.00  0.00     0.026 A 
HETATM   38  C   UNL     1       3.988  26.996  49.037  1.00  0.00     0.031 A 
ENDBRANCH  28  32
ENDBRANCH  23  26
ENDBRANCH   1  22
TORSDOF 7
ENDMDL
MODEL 5
REMARK VINA RESULT:      -9.7      2.411      3.459
REMARK  7 active torsions:
REMARK  status: ('A' for Active; 'I' for Inactive)
REMARK    1  A    between atoms: C_8  and  C_9 
REMARK    2  A    between atoms: C_9  and  C_10 
REMARK    3  A    between atoms: C_10  and  N_11 
REMARK    4  A    between atoms: C_10  and  C_19 
REMARK       I    between atoms: N_11  and  C_12 
REMARK    5  A    between atoms: C_12  and  C_13 
REMARK       I    between atoms: C_19  and  N_20 
REMARK    6  A    between atoms: N_20  and  N_21 
REMARK       I    between atoms: N_21  and  C_22 
REMARK       I    between atoms: C_22  and  N_23 
REMARK    7  A    between atoms: N_23  and  C_24 
ROOT
HETATM    1  C   UNL     1       5.680  26.312  54.362  1.00  0.00     0.183 C 
ENDROOT
BRANCH   1   2
HETATM    2  C   UNL     1       7.199  26.078  54.460  1.00  0.00     0.076 C 
BRANCH   2   3
HETATM    3  C   UNL     1       7.563  24.800  55.157  1.00  0.00    -0.028 A 
HETATM    4  C   UNL     1       7.753  23.518  54.546  1.00  0.00    -0.002 A 
HETATM    5  C   UNL     1       7.686  23.042  53.220  1.00  0.00     0.014 A 
HETATM    6  C   UNL     1       8.070  22.615  55.561  1.00  0.00     0.042 A 
HETATM    7  C   UNL     1       7.931  21.689  52.960  1.00  0.00     0.001 A 
HETATM    8  C   UNL     1       8.241  20.812  53.996  1.00  0.00     0.002 A 
HETATM    9  C   UNL     1       8.317  21.259  55.318  1.00  0.00     0.030 A 
HETATM   10  N   UNL     1       8.087  23.320  56.740  1.00  0.00    -0.365 N 
HETATM   11  H   UNL     1       8.301  22.920  57.643  1.00  0.00     0.165 HD
HETATM   12  C   UNL     1       7.784  24.636  56.511  1.00  0.00     0.096 A 
ENDBRANCH   2   3
ENDBRANCH   1   2
BRANCH   1  13
HETATM   13  N   UNL     1       5.286  26.821  53.042  1.00  0.00    -0.343 N 
HETATM   14  C   UNL     1       5.036  25.991  51.972  1.00  0.00     0.259 C 
HETATM   15  O   UNL     1       4.848  24.787  52.148  1.00  0.00    -0.267 OA
HETATM   16  H   UNL     1       5.560  27.771  52.809  1.00  0.00     0.163 HD
BRANCH  14  17
HETATM   17  C   UNL     1       4.995  26.624  50.662  1.00  0.00     0.072 A 
HETATM   18  S   UNL     1       5.406  28.273  50.428  1.00  0.00    -0.097 SA
HETATM   19  C   UNL     1       5.097  28.187  48.749  1.00  0.00     0.050 A 
HETATM   20  C   UNL     1       4.698  26.928  48.362  1.00  0.00     0.009 A 
HETATM   21  C   UNL     1       4.640  26.027  49.465  1.00  0.00     0.025 A 
ENDBRANCH  14  17
ENDBRANCH   1  13
BRANCH   1  22
HETATM   22  C   UNL     1       5.249  27.254  55.510  1.00  0.00     0.259 C 
HETATM   23  N   UNL     1       5.056  28.581  55.147  1.00  0.00    -0.264 N 
HETATM   24  H   UNL     1       4.905  28.767  54.150  1.00  0.00     0.190 HD
HETATM   25  O   UNL     1       4.953  26.848  56.636  1.00  0.00    -0.269 OA
BRANCH  23  26
HETATM   26  N   UNL     1       4.324  29.355  56.064  1.00  0.00    -0.249 N 
HETATM   27  C   UNL     1       4.841  29.887  57.222  1.00  0.00     0.339 C 
HETATM   28  N   UNL     1       6.211  29.868  57.296  1.00  0.00    -0.308 N 
HETATM   29  O   UNL     1       4.068  30.347  58.057  1.00  0.00    -0.245 OA
HETATM   30  H   UNL     1       6.665  29.355  56.554  1.00  0.00     0.170 HD
HETATM   31  H   UNL     1       3.313  29.217  56.059  1.00  0.00     0.192 HD
BRANCH  28  32
HETATM   32  C   UNL     1       7.027  30.438  58.292  1.00  0.00     0.036 A 
HETATM   33  C   UNL     1       6.745  31.652  58.927  1.00  0.00     0.031 A 
HETATM   34  C   UNL     1       7.614  32.174  59.893  1.00  0.00     0.026 A 
HETATM   35  C   UNL     1       8.773  31.482  60.227  1.00  0.00     0.034 A 
HETATM   36 CL   UNL     1       9.848  32.129  61.404  1.00  0.00    -0.084 Cl
HETATM   37  C   UNL     1       9.068  30.271  59.608  1.00  0.00     0.026 A 
HETATM   38  C   UNL     1       8.195  29.749  58.644  1.00  0.00     0.031 A 
ENDBRANCH  28  32
ENDBRANCH  23  26
ENDBRANCH   1  22
TORSDOF 7
ENDMDL
MODEL 6
REMARK VINA RESULT:      -9.5      2.682      5.341
REMARK  7 active torsions:
REMARK  status: ('A' for Active; 'I' for Inactive)
REMARK    1  A    between atoms: C_8  and  C_9 
REMARK    2  A    between atoms: C_9  and  C_10 
REMARK    3  A    between atoms: C_10  and  N_11 
REMARK    4  A    between atoms: C_10  and  C_19 
REMARK       I    between atoms: N_11  and  C_12 
REMARK    5  A    between atoms: C_12  and  C_13 
REMARK       I    between atoms: C_19  and  N_20 
REMARK    6  A    between atoms: N_20  and  N_21 
REMARK       I    between atoms: N_21  and  C_22 
REMARK       I    between atoms: C_22  and  N_23 
REMARK    7  A    between atoms: N_23  and  C_24 
ROOT
HETATM    1  C   UNL     1       6.881  26.675  55.089  1.00  0.00     0.183 C 
ENDROOT
BRANCH   1   2
HETATM    2  C   UNL     1       5.550  26.888  55.835  1.00  0.00     0.076 C 
BRANCH   2   3
HETATM    3  C   UNL     1       4.792  28.097  55.370  1.00  0.00    -0.028 A 
HETATM    4  C   UNL     1       4.488  29.264  56.143  1.00  0.00    -0.002 A 
HETATM    5  C   UNL     1       4.765  29.666  57.466  1.00  0.00     0.014 A 
HETATM    6  C   UNL     1       3.764  30.130  55.323  1.00  0.00     0.042 A 
HETATM    7  C   UNL     1       4.305  30.908  57.920  1.00  0.00     0.001 A 
HETATM    8  C   UNL     1       3.581  31.748  57.078  1.00  0.00     0.002 A 
HETATM    9  C   UNL     1       3.296  31.375  55.762  1.00  0.00     0.030 A 
HETATM   10  N   UNL     1       3.643  29.522  54.097  1.00  0.00    -0.365 N 
HETATM   11  H   UNL     1       3.174  29.929  53.300  1.00  0.00     0.165 HD
HETATM   12  C   UNL     1       4.258  28.298  54.111  1.00  0.00     0.096 A 
ENDBRANCH   2   3
ENDBRANCH   1   2
BRANCH   1  13
HETATM   13  N   UNL     1       7.526  25.411  55.467  1.00  0.00    -0.343 N 
HETATM   14  C   UNL     1       7.928  24.477  54.539  1.00  0.00     0.259 C 
HETATM   15  O   UNL     1       8.030  24.784  53.350  1.00  0.00    -0.267 OA
HETATM   16  H   UNL     1       7.339  25.054  56.400  1.00  0.00     0.163 HD
BRANCH  14  17
HETATM   17  C   UNL     1       8.230  23.148  55.050  1.00  0.00     0.072 A 
HETATM   18  S   UNL     1       8.627  21.838  54.016  1.00  0.00    -0.097 SA
HETATM   19  C   UNL     1       8.802  20.759  55.329  1.00  0.00     0.050 A 
HETATM   20  C   UNL     1       8.576  21.378  56.538  1.00  0.00     0.009 A 
HETATM   21  C   UNL     1       8.246  22.755  56.377  1.00  0.00     0.025 A 
ENDBRANCH  14  17
ENDBRANCH   1  13
BRANCH   1  22
HETATM   22  C   UNL     1       7.791  27.900  55.340  1.00  0.00     0.259 C 
HETATM   23  N   UNL     1       8.207  28.069  56.655  1.00  0.00    -0.264 N 
HETATM   24  H   UNL     1       8.154  27.245  57.263  1.00  0.00     0.190 HD
HETATM   25  O   UNL     1       8.241  28.599  54.430  1.00  0.00    -0.269 OA
BRANCH  23  26
HETATM   26  N   UNL     1       9.303  28.931  56.833  1.00  0.00    -0.249 N 
HETATM   27  C   UNL     1       9.374  29.915  57.791  1.00  0.00     0.339 C 
HETATM   28  N   UNL     1       8.421  29.822  58.774  1.00  0.00    -0.308 N 
HETATM   29  O   UNL     1      10.268  30.752  57.712  1.00  0.00    -0.245 OA
HETATM   30  H   UNL     1       7.711  29.124  58.607  1.00  0.00     0.170 HD
HETATM   31  H   UNL     1       9.897  29.073  56.015  1.00  0.00     0.192 HD
BRANCH  28  32
HETATM   32  C   UNL     1       8.309  30.605  59.939  1.00  0.00     0.036 A 
HETATM   33  C   UNL     1       9.155  30.479  61.045  1.00  0.00     0.031 A 
HETATM   34  C   UNL     1       8.970  31.273  62.183  1.00  0.00     0.026 A 
HETATM   35  C   UNL     1       7.934  32.200  62.219  1.00  0.00     0.034 A 
HETATM   36 CL   UNL     1       7.698  33.168  63.621  1.00  0.00    -0.084 Cl
HETATM   37  C   UNL     1       7.084  32.342  61.125  1.00  0.00     0.026 A 
HETATM   38  C   UNL     1       7.272  31.547  59.987  1.00  0.00     0.031 A 
ENDBRANCH  28  32
ENDBRANCH  23  26
ENDBRANCH   1  22
TORSDOF 7
ENDMDL
MODEL 7
REMARK VINA RESULT:      -9.4      5.792      9.623
REMARK  7 active torsions:
REMARK  status: ('A' for Active; 'I' for Inactive)
REMARK    1  A    between atoms: C_8  and  C_9 
REMARK    2  A    between atoms: C_9  and  C_10 
REMARK    3  A    between atoms: C_10  and  N_11 
REMARK    4  A    between atoms: C_10  and  C_19 
REMARK       I    between atoms: N_11  and  C_12 
REMARK    5  A    between atoms: C_12  and  C_13 
REMARK       I    between atoms: C_19  and  N_20 
REMARK    6  A    between atoms: N_20  and  N_21 
REMARK       I    between atoms: N_21  and  C_22 
REMARK       I    between atoms: C_22  and  N_23 
REMARK    7  A    between atoms: N_23  and  C_24 
ROOT
HETATM    1  C   UNL     1       5.978  26.487  53.401  1.00  0.00     0.183 C 
ENDROOT
BRANCH   1   2
HETATM    2  C   UNL     1       5.326  25.344  54.201  1.00  0.00     0.076 C 
BRANCH   2   3
HETATM    3  C   UNL     1       6.259  24.694  55.181  1.00  0.00    -0.028 A 
HETATM    4  C   UNL     1       7.166  23.618  54.911  1.00  0.00    -0.002 A 
HETATM    5  C   UNL     1       7.487  22.868  53.761  1.00  0.00     0.014 A 
HETATM    6  C   UNL     1       7.828  23.322  56.103  1.00  0.00     0.042 A 
HETATM    7  C   UNL     1       8.448  21.853  53.844  1.00  0.00     0.001 A 
HETATM    8  C   UNL     1       9.088  21.580  55.051  1.00  0.00     0.002 A 
HETATM    9  C   UNL     1       8.791  22.311  56.204  1.00  0.00     0.030 A 
HETATM   10  N   UNL     1       7.355  24.192  57.057  1.00  0.00    -0.365 N 
HETATM   11  H   UNL     1       7.670  24.215  58.016  1.00  0.00     0.165 HD
HETATM   12  C   UNL     1       6.411  25.022  56.514  1.00  0.00     0.096 A 
ENDBRANCH   2   3
ENDBRANCH   1   2
BRANCH   1  13
HETATM   13  N   UNL     1       5.254  27.754  53.566  1.00  0.00    -0.343 N 
HETATM   14  C   UNL     1       5.513  28.627  54.599  1.00  0.00     0.259 C 
HETATM   15  O   UNL     1       6.550  28.525  55.256  1.00  0.00    -0.267 OA
HETATM   16  H   UNL     1       4.326  27.817  53.157  1.00  0.00     0.163 HD
BRANCH  14  17
HETATM   17  C   UNL     1       4.513  29.656  54.840  1.00  0.00     0.072 A 
HETATM   18  S   UNL     1       3.884  29.972  56.405  1.00  0.00    -0.097 SA
HETATM   19  C   UNL     1       2.856  31.206  55.822  1.00  0.00     0.050 A 
HETATM   20  C   UNL     1       2.989  31.389  54.464  1.00  0.00     0.009 A 
HETATM   21  C   UNL     1       3.944  30.496  53.898  1.00  0.00     0.025 A 
ENDBRANCH  14  17
ENDBRANCH   1  13
BRANCH   1  22
HETATM   22  C   UNL     1       6.083  26.056  51.919  1.00  0.00     0.259 C 
HETATM   23  N   UNL     1       5.124  26.601  51.074  1.00  0.00    -0.264 N 
HETATM   24  H   UNL     1       4.647  27.446  51.405  1.00  0.00     0.190 HD
HETATM   25  O   UNL     1       7.027  25.397  51.477  1.00  0.00    -0.269 OA
BRANCH  23  26
HETATM   26  N   UNL     1       5.418  26.523  49.701  1.00  0.00    -0.249 N 
HETATM   27  C   UNL     1       4.505  26.735  48.696  1.00  0.00     0.339 C 
HETATM   28  N   UNL     1       3.334  27.323  49.104  1.00  0.00    -0.308 N 
HETATM   29  O   UNL     1       4.807  26.420  47.549  1.00  0.00    -0.245 OA
HETATM   30  H   UNL     1       3.235  27.412  50.105  1.00  0.00     0.170 HD
HETATM   31  H   UNL     1       6.222  25.948  49.449  1.00  0.00     0.192 HD
BRANCH  28  32
HETATM   32  C   UNL     1       2.267  27.766  48.297  1.00  0.00     0.036 A 
HETATM   33  C   UNL     1       1.406  26.907  47.606  1.00  0.00     0.031 A 
HETATM   34  C   UNL     1       0.381  27.417  46.801  1.00  0.00     0.026 A 
HETATM   35  C   UNL     1       0.214  28.792  46.682  1.00  0.00     0.034 A 
HETATM   36 CL   UNL     1      -1.038  29.420  45.682  1.00  0.00    -0.084 Cl
HETATM   37  C   UNL     1       1.059  29.662  47.366  1.00  0.00     0.026 A 
HETATM   38  C   UNL     1       2.082  29.149  48.173  1.00  0.00     0.031 A 
ENDBRANCH  28  32
ENDBRANCH  23  26
ENDBRANCH   1  22
TORSDOF 7
ENDMDL
MODEL 8
REMARK VINA RESULT:      -9.3      4.715      8.458
REMARK  7 active torsions:
REMARK  status: ('A' for Active; 'I' for Inactive)
REMARK    1  A    between atoms: C_8  and  C_9 
REMARK    2  A    between atoms: C_9  and  C_10 
REMARK    3  A    between atoms: C_10  and  N_11 
REMARK    4  A    between atoms: C_10  and  C_19 
REMARK       I    between atoms: N_11  and  C_12 
REMARK    5  A    between atoms: C_12  and  C_13 
REMARK       I    between atoms: C_19  and  N_20 
REMARK    6  A    between atoms: N_20  and  N_21 
REMARK       I    between atoms: N_21  and  C_22 
REMARK       I    between atoms: C_22  and  N_23 
REMARK    7  A    between atoms: N_23  and  C_24 
ROOT
HETATM    1  C   UNL     1       6.711  27.234  55.122  1.00  0.00     0.183 C 
ENDROOT
BRANCH   1   2
HETATM    2  C   UNL     1       6.216  26.034  55.952  1.00  0.00     0.076 C 
BRANCH   2   3
HETATM    3  C   UNL     1       7.220  24.924  56.053  1.00  0.00    -0.028 A 
HETATM    4  C   UNL     1       7.590  24.009  55.014  1.00  0.00    -0.002 A 
HETATM    5  C   UNL     1       7.202  23.841  53.669  1.00  0.00     0.014 A 
HETATM    6  C   UNL     1       8.545  23.141  55.544  1.00  0.00     0.042 A 
HETATM    7  C   UNL     1       7.774  22.814  52.909  1.00  0.00     0.001 A 
HETATM    8  C   UNL     1       8.722  21.961  53.469  1.00  0.00     0.002 A 
HETATM    9  C   UNL     1       9.127  22.109  54.798  1.00  0.00     0.030 A 
HETATM   10  N   UNL     1       8.759  23.519  56.848  1.00  0.00    -0.365 N 
HETATM   11  H   UNL     1       9.414  23.071  57.473  1.00  0.00     0.165 HD
HETATM   12  C   UNL     1       7.968  24.591  57.166  1.00  0.00     0.096 A 
ENDBRANCH   2   3
ENDBRANCH   1   2
BRANCH   1  13
HETATM   13  N   UNL     1       7.866  27.892  55.745  1.00  0.00    -0.343 N 
HETATM   14  C   UNL     1       7.808  28.465  56.995  1.00  0.00     0.259 C 
HETATM   15  O   UNL     1       6.880  28.198  57.761  1.00  0.00    -0.267 OA
HETATM   16  H   UNL     1       8.583  28.258  55.125  1.00  0.00     0.163 HD
BRANCH  14  17
HETATM   17  C   UNL     1       8.896  29.367  57.343  1.00  0.00     0.072 A 
HETATM   18  S   UNL     1       8.691  30.666  58.445  1.00  0.00    -0.097 SA
HETATM   19  C   UNL     1      10.317  31.164  58.273  1.00  0.00     0.050 A 
HETATM   20  C   UNL     1      11.014  30.355  57.404  1.00  0.00     0.009 A 
HETATM   21  C   UNL     1      10.195  29.320  56.868  1.00  0.00     0.025 A 
ENDBRANCH  14  17
ENDBRANCH   1  13
BRANCH   1  22
HETATM   22  C   UNL     1       5.527  28.204  54.901  1.00  0.00     0.259 C 
HETATM   23  N   UNL     1       5.833  29.361  54.194  1.00  0.00    -0.264 N 
HETATM   24  H   UNL     1       6.686  29.339  53.625  1.00  0.00     0.190 HD
HETATM   25  O   UNL     1       4.364  27.922  55.194  1.00  0.00    -0.269 OA
BRANCH  23  26
HETATM   26  N   UNL     1       4.729  30.057  53.672  1.00  0.00    -0.249 N 
HETATM   27  C   UNL     1       4.168  29.816  52.440  1.00  0.00     0.339 C 
HETATM   28  N   UNL     1       4.567  28.642  51.852  1.00  0.00    -0.308 N 
HETATM   29  O   UNL     1       3.362  30.625  51.990  1.00  0.00    -0.245 OA
HETATM   30  H   UNL     1       5.314  28.163  52.334  1.00  0.00     0.170 HD
HETATM   31  H   UNL     1       4.570  30.991  54.050  1.00  0.00     0.192 HD
BRANCH  28  32
HETATM   32  C   UNL     1       4.084  28.071  50.658  1.00  0.00     0.036 A 
HETATM   33  C   UNL     1       2.986  28.565  49.947  1.00  0.00     0.031 A 
HETATM   34  C   UNL     1       2.544  27.933  48.780  1.00  0.00     0.026 A 
HETATM   35  C   UNL     1       3.200  26.797  48.317  1.00  0.00     0.034 A 
HETATM   36 CL   UNL     1       2.650  26.011  46.890  1.00  0.00    -0.084 Cl
HETATM   37  C   UNL     1       4.298  26.292  49.010  1.00  0.00     0.026 A 
HETATM   38  C   UNL     1       4.740  26.929  50.177  1.00  0.00     0.031 A 
ENDBRANCH  28  32
ENDBRANCH  23  26
ENDBRANCH   1  22
TORSDOF 7
ENDMDL
MODEL 9
REMARK VINA RESULT:      -9.2      4.461      7.786
REMARK  7 active torsions:
REMARK  status: ('A' for Active; 'I' for Inactive)
REMARK    1  A    between atoms: C_8  and  C_9 
REMARK    2  A    between atoms: C_9  and  C_10 
REMARK    3  A    between atoms: C_10  and  N_11 
REMARK    4  A    between atoms: C_10  and  C_19 
REMARK       I    between atoms: N_11  and  C_12 
REMARK    5  A    between atoms: C_12  and  C_13 
REMARK       I    between atoms: C_19  and  N_20 
REMARK    6  A    between atoms: N_20  and  N_21 
REMARK       I    between atoms: N_21  and  C_22 
REMARK       I    between atoms: C_22  and  N_23 
REMARK    7  A    between atoms: N_23  and  C_24 
ROOT
HETATM    1  C   UNL     1       6.457  26.015  54.599  1.00  0.00     0.183 C 
ENDROOT
BRANCH   1   2
HETATM    2  C   UNL     1       6.542  24.617  55.240  1.00  0.00     0.076 C 
BRANCH   2   3
HETATM    3  C   UNL     1       7.237  23.606  54.377  1.00  0.00    -0.028 A 
HETATM    4  C   UNL     1       7.694  22.309  54.779  1.00  0.00    -0.002 A 
HETATM    5  C   UNL     1       7.657  21.586  55.989  1.00  0.00     0.014 A 
HETATM    6  C   UNL     1       8.288  21.712  53.667  1.00  0.00     0.042 A 
HETATM    7  C   UNL     1       8.214  20.303  56.044  1.00  0.00     0.001 A 
HETATM    8  C   UNL     1       8.803  19.737  54.917  1.00  0.00     0.002 A 
HETATM    9  C   UNL     1       8.851  20.431  53.704  1.00  0.00     0.030 A 
HETATM   10  N   UNL     1       8.184  22.602  52.625  1.00  0.00    -0.365 N 
HETATM   11  H   UNL     1       8.519  22.428  51.688  1.00  0.00     0.165 HD
HETATM   12  C   UNL     1       7.553  23.745  53.039  1.00  0.00     0.096 A 
ENDBRANCH   2   3
ENDBRANCH   1   2
BRANCH   1  13
HETATM   13  N   UNL     1       6.726  27.083  55.570  1.00  0.00    -0.343 N 
HETATM   14  C   UNL     1       7.696  28.040  55.370  1.00  0.00     0.259 C 
HETATM   15  O   UNL     1       8.174  28.217  54.248  1.00  0.00    -0.267 OA
HETATM   16  H   UNL     1       6.476  26.905  56.538  1.00  0.00     0.163 HD
BRANCH  14  17
HETATM   17  C   UNL     1       8.088  28.815  56.537  1.00  0.00     0.072 A 
HETATM   18  S   UNL     1       9.612  29.595  56.648  1.00  0.00    -0.097 SA
HETATM   19  C   UNL     1       9.269  30.203  58.208  1.00  0.00     0.050 A 
HETATM   20  C   UNL     1       8.016  29.834  58.641  1.00  0.00     0.009 A 
HETATM   21  C   UNL     1       7.335  29.034  57.678  1.00  0.00     0.025 A 
ENDBRANCH  14  17
ENDBRANCH   1  13
BRANCH   1  22
HETATM   22  C   UNL     1       5.073  26.167  53.925  1.00  0.00     0.259 C 
HETATM   23  N   UNL     1       4.453  27.396  54.113  1.00  0.00    -0.264 N 
HETATM   24  H   UNL     1       5.057  28.177  54.390  1.00  0.00     0.190 HD
HETATM   25  O   UNL     1       4.605  25.324  53.155  1.00  0.00    -0.269 OA
BRANCH  23  26
HETATM   26  N   UNL     1       3.400  27.681  53.226  1.00  0.00    -0.249 N 
HETATM   27  C   UNL     1       3.363  28.765  52.382  1.00  0.00     0.339 C 
HETATM   28  N   UNL     1       4.564  29.414  52.235  1.00  0.00    -0.308 N 
HETATM   29  O   UNL     1       2.307  29.042  51.823  1.00  0.00    -0.245 OA
HETATM   30  H   UNL     1       5.293  29.095  52.858  1.00  0.00     0.170 HD
HETATM   31  H   UNL     1       2.491  27.285  53.471  1.00  0.00     0.192 HD
BRANCH  28  32
HETATM   32  C   UNL     1       4.867  30.474  51.360  1.00  0.00     0.036 A 
HETATM   33  C   UNL     1       4.466  31.797  51.572  1.00  0.00     0.031 A 
HETATM   34  C   UNL     1       4.780  32.798  50.646  1.00  0.00     0.026 A 
HETATM   35  C   UNL     1       5.499  32.479  49.499  1.00  0.00     0.034 A 
HETATM   36 CL   UNL     1       5.875  33.707  48.354  1.00  0.00    -0.084 Cl
HETATM   37  C   UNL     1       5.910  31.168  49.273  1.00  0.00     0.026 A 
HETATM   38  C   UNL     1       5.597  30.169  50.203  1.00  0.00     0.031 A 
ENDBRANCH  28  32
ENDBRANCH  23  26
ENDBRANCH   1  22
TORSDOF 7
ENDMDL
MODEL 10
REMARK VINA RESULT:      -9.2      4.122      5.023
REMARK  7 active torsions:
REMARK  status: ('A' for Active; 'I' for Inactive)
REMARK    1  A    between atoms: C_8  and  C_9 
REMARK    2  A    between atoms: C_9  and  C_10 
REMARK    3  A    between atoms: C_10  and  N_11 
REMARK    4  A    between atoms: C_10  and  C_19 
REMARK       I    between atoms: N_11  and  C_12 
REMARK    5  A    between atoms: C_12  and  C_13 
REMARK       I    between atoms: C_19  and  N_20 
REMARK    6  A    between atoms: N_20  and  N_21 
REMARK       I    between atoms: N_21  and  C_22 
REMARK       I    between atoms: C_22  and  N_23 
REMARK    7  A    between atoms: N_23  and  C_24 
ROOT
HETATM    1  C   UNL     1       5.924  25.808  55.150  1.00  0.00     0.183 C 
ENDROOT
BRANCH   1   2
HETATM    2  C   UNL     1       7.442  25.565  55.249  1.00  0.00     0.076 C 
BRANCH   2   3
HETATM    3  C   UNL     1       7.797  24.168  55.663  1.00  0.00    -0.028 A 
HETATM    4  C   UNL     1       7.878  23.019  54.811  1.00  0.00    -0.002 A 
HETATM    5  C   UNL     1       7.686  22.804  53.430  1.00  0.00     0.014 A 
HETATM    6  C   UNL     1       8.230  21.930  55.610  1.00  0.00     0.042 A 
HETATM    7  C   UNL     1       7.847  21.517  52.903  1.00  0.00     0.001 A 
HETATM    8  C   UNL     1       8.194  20.451  53.729  1.00  0.00     0.002 A 
HETATM    9  C   UNL     1       8.393  20.637  55.099  1.00  0.00     0.030 A 
HETATM   10  N   UNL     1       8.371  22.399  56.894  1.00  0.00    -0.365 N 
HETATM   11  H   UNL     1       8.636  21.829  57.685  1.00  0.00     0.165 HD
HETATM   12  C   UNL     1       8.114  23.744  56.939  1.00  0.00     0.096 A 
ENDBRANCH   2   3
ENDBRANCH   1   2
BRANCH   1  13
HETATM   13  N   UNL     1       5.567  26.573  53.949  1.00  0.00    -0.343 N 
HETATM   14  C   UNL     1       5.098  25.974  52.801  1.00  0.00     0.259 C 
HETATM   15  O   UNL     1       4.685  24.813  52.827  1.00  0.00    -0.267 OA
HETATM   16  H   UNL     1       6.010  27.478  53.825  1.00  0.00     0.163 HD
BRANCH  14  17
HETATM   17  C   UNL     1       5.111  26.790  51.596  1.00  0.00     0.072 A 
HETATM   18  S   UNL     1       5.396  28.482  51.640  1.00  0.00    -0.097 SA
HETATM   19  C   UNL     1       5.235  28.626  49.945  1.00  0.00     0.050 A 
HETATM   20  C   UNL     1       4.979  27.413  49.346  1.00  0.00     0.009 A 
HETATM   21  C   UNL     1       4.908  26.355  50.298  1.00  0.00     0.025 A 
ENDBRANCH  14  17
ENDBRANCH   1  13
BRANCH   1  22
HETATM   22  C   UNL     1       5.447  26.495  56.451  1.00  0.00     0.259 C 
HETATM   23  N   UNL     1       5.762  27.844  56.558  1.00  0.00    -0.264 N 
HETATM   24  H   UNL     1       5.985  28.334  55.685  1.00  0.00     0.190 HD
HETATM   25  O   UNL     1       4.715  25.940  57.274  1.00  0.00    -0.269 OA
BRANCH  23  26
HETATM   26  N   UNL     1       5.035  28.557  57.528  1.00  0.00    -0.249 N 
HETATM   27  C   UNL     1       4.487  29.802  57.332  1.00  0.00     0.339 C 
HETATM   28  N   UNL     1       4.435  30.202  56.020  1.00  0.00    -0.308 N 
HETATM   29  O   UNL     1       4.075  30.426  58.306  1.00  0.00    -0.245 OA
HETATM   30  H   UNL     1       4.917  29.593  55.376  1.00  0.00     0.170 HD
HETATM   31  H   UNL     1       5.226  28.310  58.500  1.00  0.00     0.192 HD
BRANCH  28  32
HETATM   32  C   UNL     1       3.832  31.363  55.498  1.00  0.00     0.036 A 
HETATM   33  C   UNL     1       2.448  31.558  55.433  1.00  0.00     0.031 A 
HETATM   34  C   UNL     1       1.915  32.727  54.878  1.00  0.00     0.026 A 
HETATM   35  C   UNL     1       2.767  33.708  54.381  1.00  0.00     0.034 A 
HETATM   36 CL   UNL     1       2.113  35.140  53.687  1.00  0.00    -0.084 Cl
HETATM   37  C   UNL     1       4.147  33.532  54.441  1.00  0.00     0.026 A 
HETATM   38  C   UNL     1       4.677  32.363  55.000  1.00  0.00     0.031 A 
ENDBRANCH  28  32
ENDBRANCH  23  26
ENDBRANCH   1  22
TORSDOF 7
ENDMDL
