MODEL 1
REMARK VINA RESULT:     -10.2      0.000      0.000
REMARK  8 active torsions:
REMARK  status: ('A' for Active; 'I' for Inactive)
REMARK    1  A    between atoms: C_5  and  C_6 
REMARK       I    between atoms: C_6  and  N_7 
REMARK    2  A    between atoms: N_7  and  N_8 
REMARK       I    between atoms: N_8  and  C_9 
REMARK    3  A    between atoms: C_9  and  C_10 
REMARK    4  A    between atoms: C_10  and  S_11 
REMARK    5  A    between atoms: S_11  and  C_12 
REMARK    6  A    between atoms: N_13  and  C_14 
REMARK    7  A    between atoms: C_21  and  C_22 
REMARK    8  A    between atoms: C_22  and  N_23 
ROOT
HETATM    1  C   UNL     1       5.038  27.592  54.677  1.00  0.00     0.196 A 
HETATM    2  N   UNL     1       6.401  27.359  54.644  1.00  0.00    -0.274 N 
HETATM    3  C   UNL     1       6.538  26.376  53.670  1.00  0.00     0.166 A 
HETATM    4  N   UNL     1       5.378  26.168  53.075  1.00  0.00    -0.131 NA
HETATM    5  N   UNL     1       4.436  26.920  53.721  1.00  0.00    -0.122 NA
ENDROOT
BRANCH   1   6
HETATM    6  S   UNL     1       4.230  28.606  55.820  1.00  0.00    -0.080 SA
BRANCH   6   7
HETATM    7  C   UNL     1       5.098  30.180  55.583  1.00  0.00     0.187 C 
BRANCH   7   8
HETATM    8  C   UNL     1       5.198  31.056  56.831  1.00  0.00     0.245 C 
HETATM    9  N   UNL     1       5.842  30.401  57.872  1.00  0.00    -0.267 N 
HETATM   10  H   UNL     1       5.764  29.384  57.943  1.00  0.00     0.190 HD
HETATM   11  O   UNL     1       4.801  32.219  56.930  1.00  0.00    -0.271 OA
BRANCH   9  12
HETATM   12  N   UNL     1       5.927  31.060  59.106  1.00  0.00    -0.263 N 
HETATM   13  C   UNL     1       7.142  31.622  59.457  1.00  0.00     0.270 C 
HETATM   14  O   UNL     1       8.103  31.653  58.698  1.00  0.00    -0.266 OA
HETATM   15  H   UNL     1       5.271  30.763  59.819  1.00  0.00     0.190 HD
BRANCH  13  16
HETATM   16  C   UNL     1       7.218  32.161  60.841  1.00  0.00     0.033 A 
HETATM   17  C   UNL     1       8.283  31.838  61.694  1.00  0.00     0.017 A 
HETATM   18  C   UNL     1       8.322  32.353  62.991  1.00  0.00     0.007 A 
HETATM   19  C   UNL     1       7.304  33.199  63.449  1.00  0.00    -0.062 A 
HETATM   20  C   UNL     1       7.317  33.704  64.863  1.00  0.00     0.048 C 
HETATM   21  C   UNL     1       6.230  33.497  62.601  1.00  0.00     0.007 A 
HETATM   22  C   UNL     1       6.185  32.982  61.303  1.00  0.00     0.017 A 
ENDBRANCH  13  16
ENDBRANCH   9  12
ENDBRANCH   7   8
ENDBRANCH   6   7
ENDBRANCH   1   6
BRANCH   2  23
HETATM   23  C   UNL     1       7.438  27.893  55.454  1.00  0.00     0.043 A 
HETATM   24  C   UNL     1       7.538  27.554  56.811  1.00  0.00     0.033 A 
HETATM   25  C   UNL     1       8.562  28.095  57.592  1.00  0.00     0.044 A 
HETATM   26  C   UNL     1       9.477  28.966  57.018  1.00  0.00     0.116 A 
HETATM   27  F   UNL     1      10.457  29.483  57.768  1.00  0.00    -0.206 F 
HETATM   28  C   UNL     1       9.394  29.308  55.673  1.00  0.00     0.044 A 
HETATM   29  C   UNL     1       8.373  28.772  54.884  1.00  0.00     0.033 A 
ENDBRANCH   2  23
BRANCH   3  30
HETATM   30  C   UNL     1       7.731  25.481  53.501  1.00  0.00     0.255 C 
HETATM   31  C   UNL     1       7.855  25.096  52.022  1.00  0.00     0.049 C 
BRANCH  30  32
HETATM   32  N   UNL     1       7.602  24.188  54.355  1.00  0.00    -0.060 N 
HETATM   33  H   UNL     1       6.606  24.150  54.623  1.00  0.00     0.280 HD
HETATM   34  C   UNL     1       7.966  22.933  53.596  1.00  0.00     0.236 C 
HETATM   35  C   UNL     1       7.734  21.699  54.458  1.00  0.00     0.028 C 
HETATM   36  C   UNL     1       8.490  21.775  55.775  1.00  0.00     0.003 C 
HETATM   37  C   UNL     1       8.138  23.055  56.516  1.00  0.00     0.028 C 
HETATM   38  C   UNL     1       8.383  24.288  55.659  1.00  0.00     0.236 C 
ENDBRANCH  30  32
ENDBRANCH   3  30
TORSDOF 8
ENDMDL
MODEL 2
REMARK VINA RESULT:     -10.2      2.693      4.527
REMARK  8 active torsions:
REMARK  status: ('A' for Active; 'I' for Inactive)
REMARK    1  A    between atoms: C_5  and  C_6 
REMARK       I    between atoms: C_6  and  N_7 
REMARK    2  A    between atoms: N_7  and  N_8 
REMARK       I    between atoms: N_8  and  C_9 
REMARK    3  A    between atoms: C_9  and  C_10 
REMARK    4  A    between atoms: C_10  and  S_11 
REMARK    5  A    between atoms: S_11  and  C_12 
REMARK    6  A    between atoms: N_13  and  C_14 
REMARK    7  A    between atoms: C_21  and  C_22 
REMARK    8  A    between atoms: C_22  and  N_23 
ROOT
HETATM    1  C   UNL     1       7.563  29.110  57.811  1.00  0.00     0.196 A 
HETATM    2  N   UNL     1       6.424  28.661  57.168  1.00  0.00    -0.274 N 
HETATM    3  C   UNL     1       6.644  27.294  57.039  1.00  0.00     0.166 A 
HETATM    4  N   UNL     1       7.740  26.950  57.690  1.00  0.00    -0.131 NA
HETATM    5  N   UNL     1       8.323  28.095  58.159  1.00  0.00    -0.122 NA
ENDROOT
BRANCH   1   6
HETATM    6  S   UNL     1       7.951  30.769  58.105  1.00  0.00    -0.080 SA
BRANCH   6   7
HETATM    7  C   UNL     1       9.330  30.616  59.273  1.00  0.00     0.187 C 
BRANCH   7   8
HETATM    8  C   UNL     1       9.043  31.133  60.681  1.00  0.00     0.245 C 
HETATM    9  N   UNL     1       7.754  30.818  61.094  1.00  0.00    -0.267 N 
HETATM   10  H   UNL     1       7.012  30.744  60.395  1.00  0.00     0.190 HD
HETATM   11  O   UNL     1       9.840  31.729  61.408  1.00  0.00    -0.271 OA
BRANCH   9  12
HETATM   12  N   UNL     1       7.328  31.307  62.337  1.00  0.00    -0.263 N 
HETATM   13  C   UNL     1       6.482  32.402  62.344  1.00  0.00     0.270 C 
HETATM   14  O   UNL     1       6.018  32.891  61.321  1.00  0.00    -0.266 OA
HETATM   15  H   UNL     1       7.936  31.119  63.125  1.00  0.00     0.190 HD
BRANCH  13  16
HETATM   16  C   UNL     1       6.197  32.977  63.686  1.00  0.00     0.033 A 
HETATM   17  C   UNL     1       4.887  33.261  64.098  1.00  0.00     0.017 A 
HETATM   18  C   UNL     1       4.653  33.808  65.361  1.00  0.00     0.007 A 
HETATM   19  C   UNL     1       5.721  34.073  66.227  1.00  0.00    -0.062 A 
HETATM   20  C   UNL     1       5.473  34.716  67.561  1.00  0.00     0.048 C 
HETATM   21  C   UNL     1       7.030  33.811  65.801  1.00  0.00     0.007 A 
HETATM   22  C   UNL     1       7.269  33.266  64.537  1.00  0.00     0.017 A 
ENDBRANCH  13  16
ENDBRANCH   9  12
ENDBRANCH   7   8
ENDBRANCH   6   7
ENDBRANCH   1   6
BRANCH   2  23
HETATM   23  C   UNL     1       5.319  29.389  56.656  1.00  0.00     0.043 A 
HETATM   24  C   UNL     1       5.230  29.697  55.291  1.00  0.00     0.033 A 
HETATM   25  C   UNL     1       4.138  30.420  54.807  1.00  0.00     0.044 A 
HETATM   26  C   UNL     1       3.142  30.829  55.683  1.00  0.00     0.116 A 
HETATM   27  F   UNL     1       2.095  31.521  55.218  1.00  0.00    -0.206 F 
HETATM   28  C   UNL     1       3.213  30.527  57.038  1.00  0.00     0.044 A 
HETATM   29  C   UNL     1       4.302  29.804  57.531  1.00  0.00     0.033 A 
ENDBRANCH   2  23
BRANCH   3  30
HETATM   30  C   UNL     1       5.926  26.386  56.084  1.00  0.00     0.255 C 
HETATM   31  C   UNL     1       5.124  25.356  56.888  1.00  0.00     0.049 C 
BRANCH  30  32
HETATM   32  N   UNL     1       6.920  25.640  55.148  1.00  0.00    -0.060 N 
HETATM   33  H   UNL     1       7.828  26.102  55.309  1.00  0.00     0.280 HD
HETATM   34  C   UNL     1       7.042  24.166  55.462  1.00  0.00     0.236 C 
HETATM   35  C   UNL     1       8.092  23.515  54.572  1.00  0.00     0.028 C 
HETATM   36  C   UNL     1       7.801  23.733  53.095  1.00  0.00     0.003 C 
HETATM   37  C   UNL     1       7.650  25.215  52.797  1.00  0.00     0.028 C 
HETATM   38  C   UNL     1       6.591  25.863  53.677  1.00  0.00     0.236 C 
ENDBRANCH  30  32
ENDBRANCH   3  30
TORSDOF 8
ENDMDL
MODEL 3
REMARK VINA RESULT:     -10.1      2.556      3.905
REMARK  8 active torsions:
REMARK  status: ('A' for Active; 'I' for Inactive)
REMARK    1  A    between atoms: C_5  and  C_6 
REMARK       I    between atoms: C_6  and  N_7 
REMARK    2  A    between atoms: N_7  and  N_8 
REMARK       I    between atoms: N_8  and  C_9 
REMARK    3  A    between atoms: C_9  and  C_10 
REMARK    4  A    between atoms: C_10  and  S_11 
REMARK    5  A    between atoms: S_11  and  C_12 
REMARK    6  A    between atoms: N_13  and  C_14 
REMARK    7  A    between atoms: C_21  and  C_22 
REMARK    8  A    between atoms: C_22  and  N_23 
ROOT
HETATM    1  C   UNL     1       8.206  28.253  56.565  1.00  0.00     0.196 A 
HETATM    2  N   UNL     1       7.128  27.716  55.886  1.00  0.00    -0.274 N 
HETATM    3  C   UNL     1       6.980  26.457  56.459  1.00  0.00     0.166 A 
HETATM    4  N   UNL     1       7.796  26.333  57.489  1.00  0.00    -0.131 NA
HETATM    5  N   UNL     1       8.575  27.455  57.542  1.00  0.00    -0.122 NA
ENDROOT
BRANCH   1   6
HETATM    6  S   UNL     1       8.976  29.752  56.180  1.00  0.00    -0.080 SA
BRANCH   6   7
HETATM    7  C   UNL     1       9.989  30.027  57.660  1.00  0.00     0.187 C 
BRANCH   7   8
HETATM    8  C   UNL     1       9.389  30.992  58.681  1.00  0.00     0.245 C 
HETATM    9  N   UNL     1       8.496  30.353  59.533  1.00  0.00    -0.267 N 
HETATM   10  H   UNL     1       7.966  29.551  59.186  1.00  0.00     0.190 HD
HETATM   11  O   UNL     1       9.664  32.189  58.793  1.00  0.00    -0.271 OA
BRANCH   9  12
HETATM   12  N   UNL     1       7.807  31.139  60.467  1.00  0.00    -0.263 N 
HETATM   13  C   UNL     1       8.280  31.161  61.767  1.00  0.00     0.270 C 
HETATM   14  O   UNL     1       9.319  30.608  62.106  1.00  0.00    -0.266 OA
HETATM   15  H   UNL     1       6.829  31.315  60.270  1.00  0.00     0.190 HD
BRANCH  13  16
HETATM   16  C   UNL     1       7.417  31.876  62.746  1.00  0.00     0.033 A 
HETATM   17  C   UNL     1       6.021  31.756  62.714  1.00  0.00     0.017 A 
HETATM   18  C   UNL     1       5.238  32.447  63.643  1.00  0.00     0.007 A 
HETATM   19  C   UNL     1       5.840  33.258  64.613  1.00  0.00    -0.062 A 
HETATM   20  C   UNL     1       4.994  34.046  65.572  1.00  0.00     0.048 C 
HETATM   21  C   UNL     1       7.234  33.393  64.623  1.00  0.00     0.007 A 
HETATM   22  C   UNL     1       8.021  32.707  63.695  1.00  0.00     0.017 A 
ENDBRANCH  13  16
ENDBRANCH   9  12
ENDBRANCH   7   8
ENDBRANCH   6   7
ENDBRANCH   1   6
BRANCH   2  23
HETATM   23  C   UNL     1       6.383  28.239  54.796  1.00  0.00     0.043 A 
HETATM   24  C   UNL     1       6.801  28.032  53.474  1.00  0.00     0.033 A 
HETATM   25  C   UNL     1       6.058  28.561  52.416  1.00  0.00     0.044 A 
HETATM   26  C   UNL     1       4.905  29.287  52.681  1.00  0.00     0.116 A 
HETATM   27  F   UNL     1       4.195  29.792  51.665  1.00  0.00    -0.206 F 
HETATM   28  C   UNL     1       4.475  29.495  53.986  1.00  0.00     0.044 A 
HETATM   29  C   UNL     1       5.212  28.972  55.051  1.00  0.00     0.033 A 
ENDBRANCH   2  23
BRANCH   3  30
HETATM   30  C   UNL     1       6.229  25.309  55.850  1.00  0.00     0.255 C 
HETATM   31  C   UNL     1       5.576  24.493  56.972  1.00  0.00     0.049 C 
BRANCH  30  32
HETATM   32  N   UNL     1       7.169  24.383  55.027  1.00  0.00    -0.060 N 
HETATM   33  H   UNL     1       8.097  24.830  55.090  1.00  0.00     0.280 HD
HETATM   34  C   UNL     1       7.251  22.977  55.575  1.00  0.00     0.236 C 
HETATM   35  C   UNL     1       8.252  22.150  54.780  1.00  0.00     0.028 C 
HETATM   36  C   UNL     1       7.927  22.135  53.296  1.00  0.00     0.003 C 
HETATM   37  C   UNL     1       7.818  23.553  52.761  1.00  0.00     0.028 C 
HETATM   38  C   UNL     1       6.807  24.377  53.547  1.00  0.00     0.236 C 
ENDBRANCH  30  32
ENDBRANCH   3  30
TORSDOF 8
ENDMDL
MODEL 4
REMARK VINA RESULT:      -9.8      2.845      9.172
REMARK  8 active torsions:
REMARK  status: ('A' for Active; 'I' for Inactive)
REMARK    1  A    between atoms: C_5  and  C_6 
REMARK       I    between atoms: C_6  and  N_7 
REMARK    2  A    between atoms: N_7  and  N_8 
REMARK       I    between atoms: N_8  and  C_9 
REMARK    3  A    between atoms: C_9  and  C_10 
REMARK    4  A    between atoms: C_10  and  S_11 
REMARK    5  A    between atoms: S_11  and  C_12 
REMARK    6  A    between atoms: N_13  and  C_14 
REMARK    7  A    between atoms: C_21  and  C_22 
REMARK    8  A    between atoms: C_22  and  N_23 
ROOT
HETATM    1  C   UNL     1       5.595  29.637  57.341  1.00  0.00     0.196 A 
HETATM    2  N   UNL     1       6.018  30.916  57.651  1.00  0.00    -0.274 N 
HETATM    3  C   UNL     1       7.316  30.724  58.113  1.00  0.00     0.166 A 
HETATM    4  N   UNL     1       7.674  29.465  57.938  1.00  0.00    -0.131 NA
HETATM    5  N   UNL     1       6.586  28.783  57.470  1.00  0.00    -0.122 NA
ENDROOT
BRANCH   1   6
HETATM    6  S   UNL     1       3.988  29.208  56.869  1.00  0.00    -0.080 SA
BRANCH   6   7
HETATM    7  C   UNL     1       4.143  29.166  55.062  1.00  0.00     0.187 C 
BRANCH   7   8
HETATM    8  C   UNL     1       4.469  27.794  54.475  1.00  0.00     0.245 C 
HETATM    9  N   UNL     1       4.959  26.922  55.440  1.00  0.00    -0.267 N 
HETATM   10  H   UNL     1       5.488  27.301  56.228  1.00  0.00     0.190 HD
HETATM   11  O   UNL     1       4.298  27.450  53.303  1.00  0.00    -0.271 OA
BRANCH   9  12
HETATM   12  N   UNL     1       5.380  25.653  55.020  1.00  0.00    -0.263 N 
HETATM   13  C   UNL     1       6.654  25.245  55.374  1.00  0.00     0.270 C 
HETATM   14  O   UNL     1       7.381  25.899  56.113  1.00  0.00    -0.266 OA
HETATM   15  H   UNL     1       4.932  25.283  54.191  1.00  0.00     0.190 HD
BRANCH  13  16
HETATM   16  C   UNL     1       7.105  23.965  54.764  1.00  0.00     0.033 A 
HETATM   17  C   UNL     1       7.377  22.836  55.550  1.00  0.00     0.017 A 
HETATM   18  C   UNL     1       7.806  21.651  54.948  1.00  0.00     0.007 A 
HETATM   19  C   UNL     1       7.964  21.579  53.559  1.00  0.00    -0.062 A 
HETATM   20  C   UNL     1       8.482  20.323  52.920  1.00  0.00     0.048 C 
HETATM   21  C   UNL     1       7.716  22.717  52.781  1.00  0.00     0.007 A 
HETATM   22  C   UNL     1       7.288  23.906  53.379  1.00  0.00     0.017 A 
ENDBRANCH  13  16
ENDBRANCH   9  12
ENDBRANCH   7   8
ENDBRANCH   6   7
ENDBRANCH   1   6
BRANCH   2  23
HETATM   23  C   UNL     1       5.309  32.145  57.618  1.00  0.00     0.043 A 
HETATM   24  C   UNL     1       4.668  32.637  58.764  1.00  0.00     0.033 A 
HETATM   25  C   UNL     1       3.969  33.845  58.710  1.00  0.00     0.044 A 
HETATM   26  C   UNL     1       3.916  34.555  57.518  1.00  0.00     0.116 A 
HETATM   27  F   UNL     1       3.247  35.713  57.468  1.00  0.00    -0.206 F 
HETATM   28  C   UNL     1       4.551  34.083  56.376  1.00  0.00     0.044 A 
HETATM   29  C   UNL     1       5.251  32.875  56.420  1.00  0.00     0.033 A 
ENDBRANCH   2  23
BRANCH   3  30
HETATM   30  C   UNL     1       8.097  31.703  58.940  1.00  0.00     0.255 C 
HETATM   31  C   UNL     1       9.594  31.446  58.729  1.00  0.00     0.049 C 
BRANCH  30  32
HETATM   32  N   UNL     1       7.765  31.566  60.454  1.00  0.00    -0.060 N 
HETATM   33  H   UNL     1       6.934  30.955  60.485  1.00  0.00     0.280 HD
HETATM   34  C   UNL     1       8.882  30.935  61.254  1.00  0.00     0.236 C 
HETATM   35  C   UNL     1       8.461  30.750  62.705  1.00  0.00     0.028 C 
HETATM   36  C   UNL     1       8.009  32.055  63.339  1.00  0.00     0.003 C 
HETATM   37  C   UNL     1       6.908  32.695  62.510  1.00  0.00     0.028 C 
HETATM   38  C   UNL     1       7.333  32.894  61.063  1.00  0.00     0.236 C 
ENDBRANCH  30  32
ENDBRANCH   3  30
TORSDOF 8
ENDMDL
MODEL 5
REMARK VINA RESULT:      -9.7      3.451      5.044
REMARK  8 active torsions:
REMARK  status: ('A' for Active; 'I' for Inactive)
REMARK    1  A    between atoms: C_5  and  C_6 
REMARK       I    between atoms: C_6  and  N_7 
REMARK    2  A    between atoms: N_7  and  N_8 
REMARK       I    between atoms: N_8  and  C_9 
REMARK    3  A    between atoms: C_9  and  C_10 
REMARK    4  A    between atoms: C_10  and  S_11 
REMARK    5  A    between atoms: S_11  and  C_12 
REMARK    6  A    between atoms: N_13  and  C_14 
REMARK    7  A    between atoms: C_21  and  C_22 
REMARK    8  A    between atoms: C_22  and  N_23 
ROOT
HETATM    1  C   UNL     1       4.624  29.011  53.397  1.00  0.00     0.196 A 
HETATM    2  N   UNL     1       5.253  28.161  52.507  1.00  0.00    -0.274 N 
HETATM    3  C   UNL     1       5.180  28.846  51.299  1.00  0.00     0.166 A 
HETATM    4  N   UNL     1       4.694  30.057  51.497  1.00  0.00    -0.131 NA
HETATM    5  N   UNL     1       4.330  30.151  52.812  1.00  0.00    -0.122 NA
ENDROOT
BRANCH   1   6
HETATM    6  S   UNL     1       4.254  28.630  55.042  1.00  0.00    -0.080 SA
BRANCH   6   7
HETATM    7  C   UNL     1       5.727  29.256  55.897  1.00  0.00     0.187 C 
BRANCH   7   8
HETATM    8  C   UNL     1       5.456  29.924  57.244  1.00  0.00     0.245 C 
HETATM    9  N   UNL     1       6.579  30.582  57.728  1.00  0.00    -0.267 N 
HETATM   10  H   UNL     1       7.507  30.223  57.492  1.00  0.00     0.190 HD
HETATM   11  O   UNL     1       4.378  29.932  57.842  1.00  0.00    -0.271 OA
BRANCH   9  12
HETATM   12  N   UNL     1       6.496  31.168  58.999  1.00  0.00    -0.263 N 
HETATM   13  C   UNL     1       7.625  31.794  59.498  1.00  0.00     0.270 C 
HETATM   14  O   UNL     1       8.649  31.941  58.840  1.00  0.00    -0.266 OA
HETATM   15  H   UNL     1       5.801  30.781  59.627  1.00  0.00     0.190 HD
BRANCH  13  16
HETATM   16  C   UNL     1       7.529  32.250  60.910  1.00  0.00     0.033 A 
HETATM   17  C   UNL     1       8.489  31.883  61.864  1.00  0.00     0.017 A 
HETATM   18  C   UNL     1       8.366  32.321  63.184  1.00  0.00     0.007 A 
HETATM   19  C   UNL     1       7.289  33.132  63.565  1.00  0.00    -0.062 A 
HETATM   20  C   UNL     1       7.127  33.552  64.998  1.00  0.00     0.048 C 
HETATM   21  C   UNL     1       6.320  33.474  62.614  1.00  0.00     0.007 A 
HETATM   22  C   UNL     1       6.437  33.036  61.292  1.00  0.00     0.017 A 
ENDBRANCH  13  16
ENDBRANCH   9  12
ENDBRANCH   7   8
ENDBRANCH   6   7
ENDBRANCH   1   6
BRANCH   2  23
HETATM   23  C   UNL     1       5.774  26.855  52.704  1.00  0.00     0.043 A 
HETATM   24  C   UNL     1       4.957  25.725  52.561  1.00  0.00     0.033 A 
HETATM   25  C   UNL     1       5.487  24.449  52.766  1.00  0.00     0.044 A 
HETATM   26  C   UNL     1       6.825  24.308  53.109  1.00  0.00     0.116 A 
HETATM   27  F   UNL     1       7.332  23.085  53.305  1.00  0.00    -0.206 F 
HETATM   28  C   UNL     1       7.649  25.418  53.249  1.00  0.00     0.044 A 
HETATM   29  C   UNL     1       7.127  26.698  53.047  1.00  0.00     0.033 A 
ENDBRANCH   2  23
BRANCH   3  30
HETATM   30  C   UNL     1       5.350  28.232  49.940  1.00  0.00     0.255 C 
HETATM   31  C   UNL     1       5.690  29.339  48.935  1.00  0.00     0.049 C 
BRANCH  30  32
HETATM   32  N   UNL     1       4.057  27.502  49.476  1.00  0.00    -0.060 N 
HETATM   33  H   UNL     1       3.676  27.075  50.335  1.00  0.00     0.280 HD
HETATM   34  C   UNL     1       3.028  28.433  48.878  1.00  0.00     0.236 C 
HETATM   35  C   UNL     1       1.757  27.672  48.527  1.00  0.00     0.028 C 
HETATM   36  C   UNL     1       2.033  26.500  47.599  1.00  0.00     0.003 C 
HETATM   37  C   UNL     1       3.090  25.586  48.197  1.00  0.00     0.028 C 
HETATM   38  C   UNL     1       4.365  26.344  48.535  1.00  0.00     0.236 C 
ENDBRANCH  30  32
ENDBRANCH   3  30
TORSDOF 8
ENDMDL
MODEL 6
REMARK VINA RESULT:      -9.3      2.068      9.309
REMARK  8 active torsions:
REMARK  status: ('A' for Active; 'I' for Inactive)
REMARK    1  A    between atoms: C_5  and  C_6 
REMARK       I    between atoms: C_6  and  N_7 
REMARK    2  A    between atoms: N_7  and  N_8 
REMARK       I    between atoms: N_8  and  C_9 
REMARK    3  A    between atoms: C_9  and  C_10 
REMARK    4  A    between atoms: C_10  and  S_11 
REMARK    5  A    between atoms: S_11  and  C_12 
REMARK    6  A    between atoms: N_13  and  C_14 
REMARK    7  A    between atoms: C_21  and  C_22 
REMARK    8  A    between atoms: C_22  and  N_23 
ROOT
HETATM    1  C   UNL     1       5.689  31.422  58.232  1.00  0.00     0.196 A 
HETATM    2  N   UNL     1       6.888  31.242  58.898  1.00  0.00    -0.274 N 
HETATM    3  C   UNL     1       6.618  31.707  60.181  1.00  0.00     0.166 A 
HETATM    4  N   UNL     1       5.332  31.983  60.298  1.00  0.00    -0.131 NA
HETATM    5  N   UNL     1       4.756  31.819  59.069  1.00  0.00    -0.122 NA
ENDROOT
BRANCH   1   6
HETATM    6  S   UNL     1       5.446  31.178  56.539  1.00  0.00    -0.080 SA
BRANCH   6   7
HETATM    7  C   UNL     1       4.044  30.027  56.537  1.00  0.00     0.187 C 
BRANCH   7   8
HETATM    8  C   UNL     1       4.257  28.752  55.723  1.00  0.00     0.245 C 
HETATM    9  N   UNL     1       4.988  27.805  56.429  1.00  0.00    -0.267 N 
HETATM   10  H   UNL     1       5.681  28.119  57.112  1.00  0.00     0.190 HD
HETATM   11  O   UNL     1       3.820  28.536  54.591  1.00  0.00    -0.271 OA
BRANCH   9  12
HETATM   12  N   UNL     1       5.330  26.617  55.768  1.00  0.00    -0.263 N 
HETATM   13  C   UNL     1       6.330  25.835  56.319  1.00  0.00     0.270 C 
HETATM   14  O   UNL     1       6.851  26.086  57.400  1.00  0.00    -0.266 OA
HETATM   15  H   UNL     1       5.142  26.587  54.773  1.00  0.00     0.190 HD
BRANCH  13  16
HETATM   16  C   UNL     1       6.764  24.678  55.490  1.00  0.00     0.033 A 
HETATM   17  C   UNL     1       7.339  23.538  56.070  1.00  0.00     0.017 A 
HETATM   18  C   UNL     1       7.742  22.472  55.263  1.00  0.00     0.007 A 
HETATM   19  C   UNL     1       7.572  22.529  53.875  1.00  0.00    -0.062 A 
HETATM   20  C   UNL     1       8.061  21.407  53.005  1.00  0.00     0.048 C 
HETATM   21  C   UNL     1       7.021  23.681  53.299  1.00  0.00     0.007 A 
HETATM   22  C   UNL     1       6.618  24.752  54.102  1.00  0.00     0.017 A 
ENDBRANCH  13  16
ENDBRANCH   9  12
ENDBRANCH   7   8
ENDBRANCH   6   7
ENDBRANCH   1   6
BRANCH   2  23
HETATM   23  C   UNL     1       8.143  30.793  58.411  1.00  0.00     0.043 A 
HETATM   24  C   UNL     1       9.275  31.619  58.467  1.00  0.00     0.033 A 
HETATM   25  C   UNL     1      10.499  31.161  57.977  1.00  0.00     0.044 A 
HETATM   26  C   UNL     1      10.590  29.885  57.438  1.00  0.00     0.116 A 
HETATM   27  F   UNL     1      11.764  29.447  56.970  1.00  0.00    -0.206 F 
HETATM   28  C   UNL     1       9.479  29.052  57.381  1.00  0.00     0.044 A 
HETATM   29  C   UNL     1       8.249  29.502  57.868  1.00  0.00     0.033 A 
ENDBRANCH   2  23
BRANCH   3  30
HETATM   30  C   UNL     1       7.650  32.108  61.194  1.00  0.00     0.255 C 
HETATM   31  C   UNL     1       8.436  30.862  61.621  1.00  0.00     0.049 C 
BRANCH  30  32
HETATM   32  N   UNL     1       6.997  32.754  62.450  1.00  0.00    -0.060 N 
HETATM   33  H   UNL     1       6.157  32.183  62.631  1.00  0.00     0.280 HD
HETATM   34  C   UNL     1       7.893  32.729  63.667  1.00  0.00     0.236 C 
HETATM   35  C   UNL     1       7.165  33.294  64.879  1.00  0.00     0.028 C 
HETATM   36  C   UNL     1       6.636  34.696  64.623  1.00  0.00     0.003 C 
HETATM   37  C   UNL     1       5.761  34.715  63.381  1.00  0.00     0.028 C 
HETATM   38  C   UNL     1       6.493  34.163  62.166  1.00  0.00     0.236 C 
ENDBRANCH  30  32
ENDBRANCH   3  30
TORSDOF 8
ENDMDL
MODEL 7
REMARK VINA RESULT:      -9.1      2.951     10.453
REMARK  8 active torsions:
REMARK  status: ('A' for Active; 'I' for Inactive)
REMARK    1  A    between atoms: C_5  and  C_6 
REMARK       I    between atoms: C_6  and  N_7 
REMARK    2  A    between atoms: N_7  and  N_8 
REMARK       I    between atoms: N_8  and  C_9 
REMARK    3  A    between atoms: C_9  and  C_10 
REMARK    4  A    between atoms: C_10  and  S_11 
REMARK    5  A    between atoms: S_11  and  C_12 
REMARK    6  A    between atoms: N_13  and  C_14 
REMARK    7  A    between atoms: C_21  and  C_22 
REMARK    8  A    between atoms: C_22  and  N_23 
ROOT
HETATM    1  C   UNL     1       4.397  32.039  58.990  1.00  0.00     0.196 A 
HETATM    2  N   UNL     1       4.981  32.361  60.201  1.00  0.00    -0.274 N 
HETATM    3  C   UNL     1       3.939  32.934  60.921  1.00  0.00     0.166 A 
HETATM    4  N   UNL     1       2.808  32.812  60.250  1.00  0.00    -0.131 NA
HETATM    5  N   UNL     1       3.102  32.265  59.032  1.00  0.00    -0.122 NA
ENDROOT
BRANCH   1   6
HETATM    6  S   UNL     1       5.242  31.441  57.606  1.00  0.00    -0.080 SA
BRANCH   6   7
HETATM    7  C   UNL     1       4.261  29.972  57.192  1.00  0.00     0.187 C 
BRANCH   7   8
HETATM    8  C   UNL     1       4.967  28.958  56.293  1.00  0.00     0.245 C 
HETATM    9  N   UNL     1       4.257  27.767  56.202  1.00  0.00    -0.267 N 
HETATM   10  H   UNL     1       3.689  27.466  56.996  1.00  0.00     0.190 HD
HETATM   11  O   UNL     1       6.018  29.147  55.676  1.00  0.00    -0.271 OA
BRANCH   9  12
HETATM   12  N   UNL     1       4.835  26.716  55.476  1.00  0.00    -0.263 N 
HETATM   13  C   UNL     1       5.479  25.718  56.185  1.00  0.00     0.270 C 
HETATM   14  O   UNL     1       5.478  25.666  57.410  1.00  0.00    -0.266 OA
HETATM   15  H   UNL     1       5.100  26.924  54.521  1.00  0.00     0.190 HD
BRANCH  13  16
HETATM   16  C   UNL     1       6.212  24.721  55.359  1.00  0.00     0.033 A 
HETATM   17  C   UNL     1       7.056  23.766  55.943  1.00  0.00     0.017 A 
HETATM   18  C   UNL     1       7.736  22.849  55.139  1.00  0.00     0.007 A 
HETATM   19  C   UNL     1       7.578  22.872  53.748  1.00  0.00    -0.062 A 
HETATM   20  C   UNL     1       8.357  21.924  52.881  1.00  0.00     0.048 C 
HETATM   21  C   UNL     1       6.754  23.845  53.169  1.00  0.00     0.007 A 
HETATM   22  C   UNL     1       6.073  24.766  53.969  1.00  0.00     0.017 A 
ENDBRANCH  13  16
ENDBRANCH   9  12
ENDBRANCH   7   8
ENDBRANCH   6   7
ENDBRANCH   1   6
BRANCH   2  23
HETATM   23  C   UNL     1       6.333  32.248  60.620  1.00  0.00     0.043 A 
HETATM   24  C   UNL     1       7.386  32.415  59.709  1.00  0.00     0.033 A 
HETATM   25  C   UNL     1       8.708  32.293  60.141  1.00  0.00     0.044 A 
HETATM   26  C   UNL     1       8.973  32.009  61.473  1.00  0.00     0.116 A 
HETATM   27  F   UNL     1      10.241  31.893  61.885  1.00  0.00    -0.206 F 
HETATM   28  C   UNL     1       7.941  31.846  62.389  1.00  0.00     0.044 A 
HETATM   29  C   UNL     1       6.614  31.965  61.967  1.00  0.00     0.033 A 
ENDBRANCH   2  23
BRANCH   3  30
HETATM   30  C   UNL     1       4.096  33.807  62.132  1.00  0.00     0.255 C 
HETATM   31  C   UNL     1       2.785  33.791  62.928  1.00  0.00     0.049 C 
BRANCH  30  32
HETATM   32  N   UNL     1       4.436  35.273  61.739  1.00  0.00    -0.060 N 
HETATM   33  H   UNL     1       4.852  35.202  60.798  1.00  0.00     0.280 HD
HETATM   34  C   UNL     1       3.223  36.173  61.686  1.00  0.00     0.236 C 
HETATM   35  C   UNL     1       3.611  37.567  61.212  1.00  0.00     0.028 C 
HETATM   36  C   UNL     1       4.703  38.179  62.075  1.00  0.00     0.003 C 
HETATM   37  C   UNL     1       5.906  37.252  62.146  1.00  0.00     0.028 C 
HETATM   38  C   UNL     1       5.520  35.863  62.633  1.00  0.00     0.236 C 
ENDBRANCH  30  32
ENDBRANCH   3  30
TORSDOF 8
ENDMDL
MODEL 8
REMARK VINA RESULT:      -9.0      5.630     10.382
REMARK  8 active torsions:
REMARK  status: ('A' for Active; 'I' for Inactive)
REMARK    1  A    between atoms: C_5  and  C_6 
REMARK       I    between atoms: C_6  and  N_7 
REMARK    2  A    between atoms: N_7  and  N_8 
REMARK       I    between atoms: N_8  and  C_9 
REMARK    3  A    between atoms: C_9  and  C_10 
REMARK    4  A    between atoms: C_10  and  S_11 
REMARK    5  A    between atoms: S_11  and  C_12 
REMARK    6  A    between atoms: N_13  and  C_14 
REMARK    7  A    between atoms: C_21  and  C_22 
REMARK    8  A    between atoms: C_22  and  N_23 
ROOT
HETATM    1  C   UNL     1       5.345  27.139  53.994  1.00  0.00     0.196 A 
HETATM    2  N   UNL     1       6.337  26.466  54.684  1.00  0.00    -0.274 N 
HETATM    3  C   UNL     1       6.700  27.362  55.683  1.00  0.00     0.166 A 
HETATM    4  N   UNL     1       5.884  28.399  55.677  1.00  0.00    -0.131 NA
HETATM    5  N   UNL     1       5.046  28.264  54.605  1.00  0.00    -0.122 NA
ENDROOT
BRANCH   1   6
HETATM    6  S   UNL     1       4.611  26.595  52.527  1.00  0.00    -0.080 SA
BRANCH   6   7
HETATM    7  C   UNL     1       5.712  27.322  51.282  1.00  0.00     0.187 C 
BRANCH   7   8
HETATM    8  C   UNL     1       5.017  27.807  50.011  1.00  0.00     0.245 C 
HETATM    9  N   UNL     1       3.702  27.363  49.939  1.00  0.00    -0.267 N 
HETATM   10  H   UNL     1       3.455  26.470  50.370  1.00  0.00     0.190 HD
HETATM   11  O   UNL     1       5.514  28.535  49.148  1.00  0.00    -0.271 OA
BRANCH   9  12
HETATM   12  N   UNL     1       2.973  27.666  48.781  1.00  0.00    -0.263 N 
HETATM   13  C   UNL     1       1.764  28.323  48.932  1.00  0.00     0.270 C 
HETATM   14  O   UNL     1       1.361  28.733  50.014  1.00  0.00    -0.266 OA
HETATM   15  H   UNL     1       3.141  27.073  47.977  1.00  0.00     0.190 HD
BRANCH  13  16
HETATM   16  C   UNL     1       0.959  28.469  47.689  1.00  0.00     0.033 A 
HETATM   17  C   UNL     1       0.526  27.351  46.963  1.00  0.00     0.017 A 
HETATM   18  C   UNL     1      -0.221  27.522  45.796  1.00  0.00     0.007 A 
HETATM   19  C   UNL     1      -0.548  28.807  45.345  1.00  0.00    -0.062 A 
HETATM   20  C   UNL     1      -1.300  28.990  44.058  1.00  0.00     0.048 C 
HETATM   21  C   UNL     1      -0.090  29.920  46.061  1.00  0.00     0.007 A 
HETATM   22  C   UNL     1       0.660  29.754  47.228  1.00  0.00     0.017 A 
ENDBRANCH  13  16
ENDBRANCH   9  12
ENDBRANCH   7   8
ENDBRANCH   6   7
ENDBRANCH   1   6
BRANCH   2  23
HETATM   23  C   UNL     1       6.942  25.209  54.418  1.00  0.00     0.043 A 
HETATM   24  C   UNL     1       7.741  25.022  53.281  1.00  0.00     0.033 A 
HETATM   25  C   UNL     1       8.322  23.776  53.033  1.00  0.00     0.044 A 
HETATM   26  C   UNL     1       8.106  22.729  53.919  1.00  0.00     0.116 A 
HETATM   27  F   UNL     1       8.663  21.536  53.680  1.00  0.00    -0.206 F 
HETATM   28  C   UNL     1       7.320  22.901  55.052  1.00  0.00     0.044 A 
HETATM   29  C   UNL     1       6.734  24.143  55.308  1.00  0.00     0.033 A 
ENDBRANCH   2  23
BRANCH   3  30
HETATM   30  C   UNL     1       7.979  27.317  56.467  1.00  0.00     0.255 C 
HETATM   31  C   UNL     1       7.752  26.492  57.740  1.00  0.00     0.049 C 
BRANCH  30  32
HETATM   32  N   UNL     1       8.458  28.743  56.863  1.00  0.00    -0.060 N 
HETATM   33  H   UNL     1       8.053  29.363  56.145  1.00  0.00     0.280 HD
HETATM   34  C   UNL     1       7.977  29.175  58.230  1.00  0.00     0.236 C 
HETATM   35  C   UNL     1       8.404  30.608  58.519  1.00  0.00     0.028 C 
HETATM   36  C   UNL     1       9.907  30.791  58.390  1.00  0.00     0.003 C 
HETATM   37  C   UNL     1      10.384  30.326  57.024  1.00  0.00     0.028 C 
HETATM   38  C   UNL     1       9.969  28.889  56.740  1.00  0.00     0.236 C 
ENDBRANCH  30  32
ENDBRANCH   3  30
TORSDOF 8
ENDMDL
MODEL 9
REMARK VINA RESULT:      -8.9      3.143     10.577
REMARK  8 active torsions:
REMARK  status: ('A' for Active; 'I' for Inactive)
REMARK    1  A    between atoms: C_5  and  C_6 
REMARK       I    between atoms: C_6  and  N_7 
REMARK    2  A    between atoms: N_7  and  N_8 
REMARK       I    between atoms: N_8  and  C_9 
REMARK    3  A    between atoms: C_9  and  C_10 
REMARK    4  A    between atoms: C_10  and  S_11 
REMARK    5  A    between atoms: S_11  and  C_12 
REMARK    6  A    between atoms: N_13  and  C_14 
REMARK    7  A    between atoms: C_21  and  C_22 
REMARK    8  A    between atoms: C_22  and  N_23 
ROOT
HETATM    1  C   UNL     1       4.338  32.287  58.647  1.00  0.00     0.196 A 
HETATM    2  N   UNL     1       4.390  32.967  59.850  1.00  0.00    -0.274 N 
HETATM    3  C   UNL     1       3.396  33.931  59.720  1.00  0.00     0.166 A 
HETATM    4  N   UNL     1       2.717  33.730  58.606  1.00  0.00    -0.131 NA
HETATM    5  N   UNL     1       3.322  32.708  57.927  1.00  0.00    -0.122 NA
ENDROOT
BRANCH   1   6
HETATM    6  S   UNL     1       5.456  31.068  58.145  1.00  0.00    -0.080 SA
BRANCH   6   7
HETATM    7  C   UNL     1       4.355  29.888  57.317  1.00  0.00     0.187 C 
BRANCH   7   8
HETATM    8  C   UNL     1       5.050  28.916  56.365  1.00  0.00     0.245 C 
HETATM    9  N   UNL     1       4.373  27.706  56.278  1.00  0.00    -0.267 N 
HETATM   10  H   UNL     1       3.849  27.370  57.088  1.00  0.00     0.190 HD
HETATM   11  O   UNL     1       6.067  29.151  55.708  1.00  0.00    -0.271 OA
BRANCH   9  12
HETATM   12  N   UNL     1       4.949  26.690  55.503  1.00  0.00    -0.263 N 
HETATM   13  C   UNL     1       5.488  25.600  56.163  1.00  0.00     0.270 C 
HETATM   14  O   UNL     1       5.394  25.444  57.375  1.00  0.00    -0.266 OA
HETATM   15  H   UNL     1       5.294  26.962  54.590  1.00  0.00     0.190 HD
BRANCH  13  16
HETATM   16  C   UNL     1       6.228  24.637  55.305  1.00  0.00     0.033 A 
HETATM   17  C   UNL     1       6.103  24.656  53.909  1.00  0.00     0.017 A 
HETATM   18  C   UNL     1       6.806  23.733  53.131  1.00  0.00     0.007 A 
HETATM   19  C   UNL     1       7.643  22.788  53.736  1.00  0.00    -0.062 A 
HETATM   20  C   UNL     1       8.351  21.759  52.902  1.00  0.00     0.048 C 
HETATM   21  C   UNL     1       7.744  22.758  55.132  1.00  0.00     0.007 A 
HETATM   22  C   UNL     1       7.041  23.677  55.915  1.00  0.00     0.017 A 
ENDBRANCH  13  16
ENDBRANCH   9  12
ENDBRANCH   7   8
ENDBRANCH   6   7
ENDBRANCH   1   6
BRANCH   2  23
HETATM   23  C   UNL     1       5.285  32.821  60.943  1.00  0.00     0.043 A 
HETATM   24  C   UNL     1       6.573  33.373  60.896  1.00  0.00     0.033 A 
HETATM   25  C   UNL     1       7.442  33.213  61.978  1.00  0.00     0.044 A 
HETATM   26  C   UNL     1       7.021  32.509  63.098  1.00  0.00     0.116 A 
HETATM   27  F   UNL     1       7.854  32.358  64.135  1.00  0.00    -0.206 F 
HETATM   28  C   UNL     1       5.745  31.962  63.162  1.00  0.00     0.044 A 
HETATM   29  C   UNL     1       4.870  32.116  62.083  1.00  0.00     0.033 A 
ENDBRANCH   2  23
BRANCH   3  30
HETATM   30  C   UNL     1       3.279  35.175  60.551  1.00  0.00     0.255 C 
HETATM   31  C   UNL     1       4.169  36.265  59.941  1.00  0.00     0.049 C 
BRANCH  30  32
HETATM   32  N   UNL     1       3.718  34.923  62.022  1.00  0.00    -0.060 N 
HETATM   33  H   UNL     1       4.218  34.021  61.995  1.00  0.00     0.280 HD
HETATM   34  C   UNL     1       4.640  35.993  62.561  1.00  0.00     0.236 C 
HETATM   35  C   UNL     1       5.101  35.643  63.969  1.00  0.00     0.028 C 
HETATM   36  C   UNL     1       3.930  35.411  64.910  1.00  0.00     0.003 C 
HETATM   37  C   UNL     1       2.995  34.355  64.345  1.00  0.00     0.028 C 
HETATM   38  C   UNL     1       2.523  34.712  62.943  1.00  0.00     0.236 C 
ENDBRANCH  30  32
ENDBRANCH   3  30
TORSDOF 8
ENDMDL
MODEL 10
REMARK VINA RESULT:      -8.9      4.288      8.281
REMARK  8 active torsions:
REMARK  status: ('A' for Active; 'I' for Inactive)
REMARK    1  A    between atoms: C_5  and  C_6 
REMARK       I    between atoms: C_6  and  N_7 
REMARK    2  A    between atoms: N_7  and  N_8 
REMARK       I    between atoms: N_8  and  C_9 
REMARK    3  A    between atoms: C_9  and  C_10 
REMARK    4  A    between atoms: C_10  and  S_11 
REMARK    5  A    between atoms: S_11  and  C_12 
REMARK    6  A    between atoms: N_13  and  C_14 
REMARK    7  A    between atoms: C_21  and  C_22 
REMARK    8  A    between atoms: C_22  and  N_23 
ROOT
HETATM    1  C   UNL     1       5.247  27.250  54.769  1.00  0.00     0.196 A 
HETATM    2  N   UNL     1       6.607  27.010  54.714  1.00  0.00    -0.274 N 
HETATM    3  C   UNL     1       6.695  25.806  54.023  1.00  0.00     0.166 A 
HETATM    4  N   UNL     1       5.503  25.456  53.575  1.00  0.00    -0.131 NA
HETATM    5  N   UNL     1       4.595  26.355  54.060  1.00  0.00    -0.122 NA
ENDROOT
BRANCH   1   6
HETATM    6  S   UNL     1       4.499  28.530  55.657  1.00  0.00    -0.080 SA
BRANCH   6   7
HETATM    7  C   UNL     1       4.485  29.862  54.426  1.00  0.00     0.187 C 
BRANCH   7   8
HETATM    8  C   UNL     1       4.222  29.411  52.991  1.00  0.00     0.245 C 
HETATM    9  N   UNL     1       2.863  29.357  52.707  1.00  0.00    -0.267 N 
HETATM   10  H   UNL     1       2.206  29.140  53.460  1.00  0.00     0.190 HD
HETATM   11  O   UNL     1       5.081  29.153  52.145  1.00  0.00    -0.271 OA
BRANCH   9  12
HETATM   12  N   UNL     1       2.476  28.876  51.449  1.00  0.00    -0.263 N 
HETATM   13  C   UNL     1       2.005  29.791  50.523  1.00  0.00     0.270 C 
HETATM   14  O   UNL     1       2.007  31.000  50.724  1.00  0.00    -0.266 OA
HETATM   15  H   UNL     1       2.186  27.906  51.409  1.00  0.00     0.190 HD
BRANCH  13  16
HETATM   16  C   UNL     1       1.457  29.205  49.271  1.00  0.00     0.033 A 
HETATM   17  C   UNL     1       1.490  27.823  49.034  1.00  0.00     0.017 A 
HETATM   18  C   UNL     1       0.974  27.305  47.844  1.00  0.00     0.007 A 
HETATM   19  C   UNL     1       0.416  28.157  46.883  1.00  0.00    -0.062 A 
HETATM   20  C   UNL     1      -0.084  27.604  45.579  1.00  0.00     0.048 C 
HETATM   21  C   UNL     1       0.409  29.538  47.114  1.00  0.00     0.007 A 
HETATM   22  C   UNL     1       0.926  30.062  48.302  1.00  0.00     0.017 A 
ENDBRANCH  13  16
ENDBRANCH   9  12
ENDBRANCH   7   8
ENDBRANCH   6   7
ENDBRANCH   1   6
BRANCH   2  23
HETATM   23  C   UNL     1       7.686  27.731  55.290  1.00  0.00     0.043 A 
HETATM   24  C   UNL     1       7.967  27.630  56.660  1.00  0.00     0.033 A 
HETATM   25  C   UNL     1       9.029  28.353  57.210  1.00  0.00     0.044 A 
HETATM   26  C   UNL     1       9.802  29.166  56.394  1.00  0.00     0.116 A 
HETATM   27  F   UNL     1      10.819  29.857  56.922  1.00  0.00    -0.206 F 
HETATM   28  C   UNL     1       9.539  29.271  55.033  1.00  0.00     0.044 A 
HETATM   29  C   UNL     1       8.479  28.553  54.474  1.00  0.00     0.033 A 
ENDBRANCH   2  23
BRANCH   3  30
HETATM   30  C   UNL     1       7.885  24.892  54.018  1.00  0.00     0.255 C 
HETATM   31  C   UNL     1       8.066  24.320  52.606  1.00  0.00     0.049 C 
BRANCH  30  32
HETATM   32  N   UNL     1       7.709  23.719  55.024  1.00  0.00    -0.060 N 
HETATM   33  H   UNL     1       6.746  23.821  55.379  1.00  0.00     0.280 HD
HETATM   34  C   UNL     1       7.868  22.357  54.386  1.00  0.00     0.236 C 
HETATM   35  C   UNL     1       7.597  21.256  55.402  1.00  0.00     0.028 C 
HETATM   36  C   UNL     1       8.481  21.385  56.632  1.00  0.00     0.003 C 
HETATM   37  C   UNL     1       8.336  22.767  57.247  1.00  0.00     0.028 C 
HETATM   38  C   UNL     1       8.620  23.868  56.236  1.00  0.00     0.236 C 
ENDBRANCH  30  32
ENDBRANCH   3  30
TORSDOF 8
ENDMDL
