MODEL 1
REMARK VINA RESULT:      -8.6      0.000      0.000
REMARK  5 active torsions:
REMARK  status: ('A' for Active; 'I' for Inactive)
REMARK    1  A    between atoms: C_2  and  C_3 
REMARK    2  A    between atoms: C_4  and  C_5 
REMARK    3  A    between atoms: C_8  and  C_9 
REMARK       I    between atoms: C_9  and  N_10 
REMARK    4  A    between atoms: N_10  and  C_11 
REMARK    5  A    between atoms: C_13  and  C_14 
ROOT
HETATM    1  C   UNL     1       7.405  25.555  54.704  1.00  0.00     0.280 C 
HETATM    2  N   UNL     1       7.066  25.902  56.001  1.00  0.00    -0.321 N 
HETATM    3  O   UNL     1       7.636  26.344  53.794  1.00  0.00    -0.265 OA
HETATM    4  H   UNL     1       6.923  25.111  56.621  1.00  0.00     0.169 HD
ENDROOT
BRANCH   2   5
HETATM    5  C   UNL     1       6.941  27.189  56.558  1.00  0.00     0.035 A 
HETATM    6  C   UNL     1       8.025  28.028  56.840  1.00  0.00     0.042 A 
HETATM    7  C   UNL     1       7.838  29.297  57.417  1.00  0.00    -0.021 A 
HETATM    8  C   UNL     1       6.532  29.715  57.705  1.00  0.00     0.012 A 
HETATM    9  C   UNL     1       5.443  28.891  57.419  1.00  0.00     0.003 A 
HETATM   10  C   UNL     1       5.647  27.635  56.847  1.00  0.00     0.029 A 
BRANCH   7  11
HETATM   11  C   UNL     1       8.990  30.140  57.712  1.00  0.00     0.010 A 
HETATM   12  C   UNL     1       9.116  31.271  58.558  1.00  0.00     0.152 A 
HETATM   13  N   UNL     1      10.352  31.778  58.572  1.00  0.00    -0.187 NA
HETATM   14  N   UNL     1      11.028  30.972  57.741  1.00  0.00    -0.289 N 
HETATM   15  H   UNL     1      12.014  31.157  57.589  1.00  0.00     0.188 HD
HETATM   16  C   UNL     1      10.262  29.978  57.201  1.00  0.00     0.123 A 
ENDBRANCH   7  11
ENDBRANCH   2   5
BRANCH   1  17
HETATM   17  C   UNL     1       7.487  24.119  54.512  1.00  0.00     0.144 A 
HETATM   18  O   UNL     1       7.522  23.287  55.601  1.00  0.00    -0.309 OA
HETATM   19  C   UNL     1       7.613  22.011  55.133  1.00  0.00     0.060 A 
HETATM   20  C   UNL     1       7.645  21.996  53.747  1.00  0.00    -0.026 A 
HETATM   21  C   UNL     1       7.549  23.363  53.359  1.00  0.00     0.052 A 
BRANCH  19  22
HETATM   22  C   UNL     1       7.661  20.940  56.163  1.00  0.00     0.061 C 
HETATM   23  C   UNL     1       9.085  20.476  56.421  1.00  0.00     0.012 C 
ENDBRANCH  19  22
BRANCH  20  24
HETATM   24  C   UNL     1       7.750  20.784  52.876  1.00  0.00     0.036 C 
HETATM   25  C   UNL     1       9.110  20.102  52.890  1.00  0.00     0.010 C 
ENDBRANCH  20  24
ENDBRANCH   1  17
TORSDOF 5
ENDMDL
MODEL 2
REMARK VINA RESULT:      -8.5      2.452      8.340
REMARK  5 active torsions:
REMARK  status: ('A' for Active; 'I' for Inactive)
REMARK    1  A    between atoms: C_2  and  C_3 
REMARK    2  A    between atoms: C_4  and  C_5 
REMARK    3  A    between atoms: C_8  and  C_9 
REMARK       I    between atoms: C_9  and  N_10 
REMARK    4  A    between atoms: N_10  and  C_11 
REMARK    5  A    between atoms: C_13  and  C_14 
ROOT
HETATM    1  C   UNL     1       6.808  27.040  56.119  1.00  0.00     0.280 C 
HETATM    2  N   UNL     1       7.748  26.677  55.169  1.00  0.00    -0.321 N 
HETATM    3  O   UNL     1       5.762  26.443  56.349  1.00  0.00    -0.265 OA
HETATM    4  H   UNL     1       8.558  27.287  55.130  1.00  0.00     0.169 HD
ENDROOT
BRANCH   2   5
HETATM    5  C   UNL     1       7.733  25.566  54.304  1.00  0.00     0.035 A 
HETATM    6  C   UNL     1       8.058  24.264  54.699  1.00  0.00     0.042 A 
HETATM    7  C   UNL     1       8.046  23.197  53.782  1.00  0.00    -0.021 A 
HETATM    8  C   UNL     1       7.695  23.462  52.451  1.00  0.00     0.012 A 
HETATM    9  C   UNL     1       7.360  24.755  52.050  1.00  0.00     0.003 A 
HETATM   10  C   UNL     1       7.378  25.801  52.972  1.00  0.00     0.029 A 
BRANCH   7  11
HETATM   11  C   UNL     1       8.404  21.854  54.222  1.00  0.00     0.010 A 
HETATM   12  C   UNL     1       8.497  20.637  53.500  1.00  0.00     0.152 A 
HETATM   13  N   UNL     1       8.867  19.604  54.262  1.00  0.00    -0.187 NA
HETATM   14  N   UNL     1       9.021  20.153  55.475  1.00  0.00    -0.289 N 
HETATM   15  H   UNL     1       9.311  19.552  56.240  1.00  0.00     0.188 HD
HETATM   16  C   UNL     1       8.757  21.492  55.506  1.00  0.00     0.123 A 
ENDBRANCH   7  11
ENDBRANCH   2   5
BRANCH   1  17
HETATM   17  C   UNL     1       7.192  28.226  56.862  1.00  0.00     0.144 A 
HETATM   18  O   UNL     1       8.519  28.531  57.019  1.00  0.00    -0.309 OA
HETATM   19  C   UNL     1       8.587  29.672  57.760  1.00  0.00     0.060 A 
HETATM   20  C   UNL     1       7.318  30.116  58.098  1.00  0.00    -0.026 A 
HETATM   21  C   UNL     1       6.426  29.181  57.500  1.00  0.00     0.052 A 
BRANCH  19  22
HETATM   22  C   UNL     1       9.954  30.184  58.046  1.00  0.00     0.061 C 
HETATM   23  C   UNL     1      10.956  29.713  57.005  1.00  0.00     0.012 C 
ENDBRANCH  19  22
BRANCH  20  24
HETATM   24  C   UNL     1       6.991  31.328  58.912  1.00  0.00     0.036 C 
HETATM   25  C   UNL     1       5.769  32.103  58.442  1.00  0.00     0.010 C 
ENDBRANCH  20  24
ENDBRANCH   1  17
TORSDOF 5
ENDMDL
MODEL 3
REMARK VINA RESULT:      -8.5      2.225      3.680
REMARK  5 active torsions:
REMARK  status: ('A' for Active; 'I' for Inactive)
REMARK    1  A    between atoms: C_2  and  C_3 
REMARK    2  A    between atoms: C_4  and  C_5 
REMARK    3  A    between atoms: C_8  and  C_9 
REMARK       I    between atoms: C_9  and  N_10 
REMARK    4  A    between atoms: N_10  and  C_11 
REMARK    5  A    between atoms: C_13  and  C_14 
ROOT
HETATM    1  C   UNL     1       8.160  26.252  57.224  1.00  0.00     0.280 C 
HETATM    2  N   UNL     1       8.639  27.415  56.644  1.00  0.00    -0.321 N 
HETATM    3  O   UNL     1       7.948  26.089  58.421  1.00  0.00    -0.265 OA
HETATM    4  H   UNL     1       8.740  27.367  55.636  1.00  0.00     0.169 HD
ENDROOT
BRANCH   2   5
HETATM    5  C   UNL     1       8.951  28.638  57.267  1.00  0.00     0.035 A 
HETATM    6  C   UNL     1       8.090  29.314  58.139  1.00  0.00     0.042 A 
HETATM    7  C   UNL     1       8.450  30.546  58.715  1.00  0.00    -0.021 A 
HETATM    8  C   UNL     1       9.702  31.091  58.400  1.00  0.00     0.012 A 
HETATM    9  C   UNL     1      10.572  30.421  57.539  1.00  0.00     0.003 A 
HETATM   10  C   UNL     1      10.198  29.201  56.977  1.00  0.00     0.029 A 
BRANCH   7  11
HETATM   11  C   UNL     1       7.524  31.232  59.607  1.00  0.00     0.010 A 
HETATM   12  C   UNL     1       6.343  31.966  59.329  1.00  0.00     0.152 A 
HETATM   13  N   UNL     1       5.756  32.447  60.429  1.00  0.00    -0.187 NA
HETATM   14  N   UNL     1       6.552  32.018  61.419  1.00  0.00    -0.289 N 
HETATM   15  H   UNL     1       6.303  32.259  62.372  1.00  0.00     0.188 HD
HETATM   16  C   UNL     1       7.621  31.289  60.983  1.00  0.00     0.123 A 
ENDBRANCH   7  11
ENDBRANCH   2   5
BRANCH   1  17
HETATM   17  C   UNL     1       7.903  25.206  56.251  1.00  0.00     0.144 A 
HETATM   18  O   UNL     1       7.326  25.521  55.050  1.00  0.00    -0.309 OA
HETATM   19  C   UNL     1       7.189  24.361  54.349  1.00  0.00     0.060 A 
HETATM   20  C   UNL     1       7.666  23.285  55.082  1.00  0.00    -0.026 A 
HETATM   21  C   UNL     1       8.137  23.847  56.303  1.00  0.00     0.052 A 
BRANCH  19  22
HETATM   22  C   UNL     1       6.579  24.481  52.998  1.00  0.00     0.061 C 
HETATM   23  C   UNL     1       7.602  24.907  51.959  1.00  0.00     0.012 C 
ENDBRANCH  19  22
BRANCH  20  24
HETATM   24  C   UNL     1       7.676  21.852  54.648  1.00  0.00     0.036 C 
HETATM   25  C   UNL     1       8.684  21.520  53.559  1.00  0.00     0.010 C 
ENDBRANCH  20  24
ENDBRANCH   1  17
TORSDOF 5
ENDMDL
MODEL 4
REMARK VINA RESULT:      -8.5      2.508      8.451
REMARK  5 active torsions:
REMARK  status: ('A' for Active; 'I' for Inactive)
REMARK    1  A    between atoms: C_2  and  C_3 
REMARK    2  A    between atoms: C_4  and  C_5 
REMARK    3  A    between atoms: C_8  and  C_9 
REMARK       I    between atoms: C_9  and  N_10 
REMARK    4  A    between atoms: N_10  and  C_11 
REMARK    5  A    between atoms: C_13  and  C_14 
ROOT
HETATM    1  C   UNL     1       6.485  27.073  56.038  1.00  0.00     0.280 C 
HETATM    2  N   UNL     1       7.583  26.622  55.326  1.00  0.00    -0.321 N 
HETATM    3  O   UNL     1       5.352  26.609  55.968  1.00  0.00    -0.265 OA
HETATM    4  H   UNL     1       8.443  27.123  55.525  1.00  0.00     0.169 HD
ENDROOT
BRANCH   2   5
HETATM    5  C   UNL     1       7.656  25.550  54.416  1.00  0.00     0.035 A 
HETATM    6  C   UNL     1       7.968  24.236  54.780  1.00  0.00     0.042 A 
HETATM    7  C   UNL     1       8.046  23.210  53.821  1.00  0.00    -0.021 A 
HETATM    8  C   UNL     1       7.801  23.529  52.478  1.00  0.00     0.012 A 
HETATM    9  C   UNL     1       7.480  24.834  52.106  1.00  0.00     0.003 A 
HETATM   10  C   UNL     1       7.407  25.839  53.071  1.00  0.00     0.029 A 
BRANCH   7  11
HETATM   11  C   UNL     1       8.389  21.853  54.230  1.00  0.00     0.010 A 
HETATM   12  C   UNL     1       8.544  20.668  53.469  1.00  0.00     0.152 A 
HETATM   13  N   UNL     1       8.872  19.608  54.213  1.00  0.00    -0.187 NA
HETATM   14  N   UNL     1       8.936  20.108  55.455  1.00  0.00    -0.289 N 
HETATM   15  H   UNL     1       9.180  19.479  56.213  1.00  0.00     0.188 HD
HETATM   16  C   UNL     1       8.656  21.443  55.521  1.00  0.00     0.123 A 
ENDBRANCH   7  11
ENDBRANCH   2   5
BRANCH   1  17
HETATM   17  C   UNL     1       6.807  28.176  56.925  1.00  0.00     0.144 A 
HETATM   18  O   UNL     1       5.998  29.281  56.958  1.00  0.00    -0.309 OA
HETATM   19  C   UNL     1       6.539  30.153  57.855  1.00  0.00     0.060 A 
HETATM   20  C   UNL     1       7.700  29.633  58.406  1.00  0.00    -0.026 A 
HETATM   21  C   UNL     1       7.854  28.350  57.807  1.00  0.00     0.052 A 
BRANCH  19  22
HETATM   22  C   UNL     1       5.805  31.431  58.047  1.00  0.00     0.061 C 
HETATM   23  C   UNL     1       4.309  31.201  58.188  1.00  0.00     0.012 C 
ENDBRANCH  19  22
BRANCH  20  24
HETATM   24  C   UNL     1       8.576  30.301  59.419  1.00  0.00     0.036 C 
HETATM   25  C   UNL     1       9.459  31.411  58.869  1.00  0.00     0.010 C 
ENDBRANCH  20  24
ENDBRANCH   1  17
TORSDOF 5
ENDMDL
MODEL 5
REMARK VINA RESULT:      -8.5      2.367      3.918
REMARK  5 active torsions:
REMARK  status: ('A' for Active; 'I' for Inactive)
REMARK    1  A    between atoms: C_2  and  C_3 
REMARK    2  A    between atoms: C_4  and  C_5 
REMARK    3  A    between atoms: C_8  and  C_9 
REMARK       I    between atoms: C_9  and  N_10 
REMARK    4  A    between atoms: N_10  and  C_11 
REMARK    5  A    between atoms: C_13  and  C_14 
ROOT
HETATM    1  C   UNL     1       7.829  26.734  57.033  1.00  0.00     0.280 C 
HETATM    2  N   UNL     1       8.196  27.997  56.600  1.00  0.00    -0.321 N 
HETATM    3  O   UNL     1       7.989  26.298  58.169  1.00  0.00    -0.265 OA
HETATM    4  H   UNL     1       7.973  28.185  55.628  1.00  0.00     0.169 HD
ENDROOT
BRANCH   2   5
HETATM    5  C   UNL     1       8.787  29.039  57.340  1.00  0.00     0.035 A 
HETATM    6  C   UNL     1       8.288  29.513  58.558  1.00  0.00     0.042 A 
HETATM    7  C   UNL     1       8.911  30.573  59.241  1.00  0.00    -0.021 A 
HETATM    8  C   UNL     1      10.055  31.152  58.677  1.00  0.00     0.012 A 
HETATM    9  C   UNL     1      10.566  30.681  57.467  1.00  0.00     0.003 A 
HETATM   10  C   UNL     1       9.936  29.629  56.803  1.00  0.00     0.029 A 
BRANCH   7  11
HETATM   11  C   UNL     1       8.357  31.053  60.501  1.00  0.00     0.010 A 
HETATM   12  C   UNL     1       7.231  31.874  60.764  1.00  0.00     0.152 A 
HETATM   13  N   UNL     1       7.038  32.093  62.068  1.00  0.00    -0.187 NA
HETATM   14  N   UNL     1       8.034  31.410  62.649  1.00  0.00    -0.289 N 
HETATM   15  H   UNL     1       8.096  31.420  63.662  1.00  0.00     0.188 HD
HETATM   16  C   UNL     1       8.850  30.772  61.759  1.00  0.00     0.123 A 
ENDBRANCH   7  11
ENDBRANCH   2   5
BRANCH   1  17
HETATM   17  C   UNL     1       7.196  25.946  55.992  1.00  0.00     0.144 A 
HETATM   18  O   UNL     1       7.705  24.717  55.664  1.00  0.00    -0.309 OA
HETATM   19  C   UNL     1       6.934  24.215  54.660  1.00  0.00     0.060 A 
HETATM   20  C   UNL     1       5.928  25.105  54.320  1.00  0.00    -0.026 A 
HETATM   21  C   UNL     1       6.100  26.213  55.198  1.00  0.00     0.052 A 
BRANCH  19  22
HETATM   22  C   UNL     1       7.318  22.870  54.153  1.00  0.00     0.061 C 
HETATM   23  C   UNL     1       8.030  22.961  52.813  1.00  0.00     0.012 C 
ENDBRANCH  19  22
BRANCH  20  24
HETATM   24  C   UNL     1       4.892  24.908  53.258  1.00  0.00     0.036 C 
HETATM   25  C   UNL     1       5.292  25.399  51.875  1.00  0.00     0.010 C 
ENDBRANCH  20  24
ENDBRANCH   1  17
TORSDOF 5
ENDMDL
MODEL 6
REMARK VINA RESULT:      -8.3      4.969      8.307
REMARK  5 active torsions:
REMARK  status: ('A' for Active; 'I' for Inactive)
REMARK    1  A    between atoms: C_2  and  C_3 
REMARK    2  A    between atoms: C_4  and  C_5 
REMARK    3  A    between atoms: C_8  and  C_9 
REMARK       I    between atoms: C_9  and  N_10 
REMARK    4  A    between atoms: N_10  and  C_11 
REMARK    5  A    between atoms: C_13  and  C_14 
ROOT
HETATM    1  C   UNL     1       5.704  26.826  52.149  1.00  0.00     0.280 C 
HETATM    2  N   UNL     1       5.503  25.513  52.541  1.00  0.00    -0.321 N 
HETATM    3  O   UNL     1       6.438  27.632  52.712  1.00  0.00    -0.265 OA
HETATM    4  H   UNL     1       4.868  24.993  51.945  1.00  0.00     0.169 HD
ENDROOT
BRANCH   2   5
HETATM    5  C   UNL     1       6.094  24.821  53.615  1.00  0.00     0.035 A 
HETATM    6  C   UNL     1       6.757  23.596  53.486  1.00  0.00     0.042 A 
HETATM    7  C   UNL     1       7.310  22.941  54.601  1.00  0.00    -0.021 A 
HETATM    8  C   UNL     1       7.187  23.544  55.860  1.00  0.00     0.012 A 
HETATM    9  C   UNL     1       6.536  24.770  55.999  1.00  0.00     0.003 A 
HETATM   10  C   UNL     1       5.993  25.405  54.882  1.00  0.00     0.029 A 
BRANCH   7  11
HETATM   11  C   UNL     1       7.981  21.657  54.434  1.00  0.00     0.010 A 
HETATM   12  C   UNL     1       8.172  20.856  53.280  1.00  0.00     0.152 A 
HETATM   13  N   UNL     1       8.852  19.734  53.531  1.00  0.00    -0.187 NA
HETATM   14  N   UNL     1       9.108  19.812  54.844  1.00  0.00    -0.289 N 
HETATM   15  H   UNL     1       9.631  19.057  55.277  1.00  0.00     0.188 HD
HETATM   16  C   UNL     1       8.610  20.939  55.431  1.00  0.00     0.123 A 
ENDBRANCH   7  11
ENDBRANCH   2   5
BRANCH   1  17
HETATM   17  C   UNL     1       4.956  27.175  50.956  1.00  0.00     0.144 A 
HETATM   18  O   UNL     1       4.880  26.286  49.916  1.00  0.00    -0.309 OA
HETATM   19  C   UNL     1       4.139  26.873  48.935  1.00  0.00     0.060 A 
HETATM   20  C   UNL     1       3.733  28.142  49.317  1.00  0.00    -0.026 A 
HETATM   21  C   UNL     1       4.256  28.319  50.630  1.00  0.00     0.052 A 
BRANCH  19  22
HETATM   22  C   UNL     1       3.929  26.065  47.704  1.00  0.00     0.061 C 
HETATM   23  C   UNL     1       2.994  24.894  47.956  1.00  0.00     0.012 C 
ENDBRANCH  19  22
BRANCH  20  24
HETATM   24  C   UNL     1       2.914  29.093  48.503  1.00  0.00     0.036 C 
HETATM   25  C   UNL     1       1.422  28.796  48.480  1.00  0.00     0.010 C 
ENDBRANCH  20  24
ENDBRANCH   1  17
TORSDOF 5
ENDMDL
MODEL 7
REMARK VINA RESULT:      -8.2      1.662      2.717
REMARK  5 active torsions:
REMARK  status: ('A' for Active; 'I' for Inactive)
REMARK    1  A    between atoms: C_2  and  C_3 
REMARK    2  A    between atoms: C_4  and  C_5 
REMARK    3  A    between atoms: C_8  and  C_9 
REMARK       I    between atoms: C_9  and  N_10 
REMARK    4  A    between atoms: N_10  and  C_11 
REMARK    5  A    between atoms: C_13  and  C_14 
ROOT
HETATM    1  C   UNL     1       7.771  25.865  57.109  1.00  0.00     0.280 C 
HETATM    2  N   UNL     1       7.301  26.983  56.442  1.00  0.00    -0.321 N 
HETATM    3  O   UNL     1       7.945  25.780  58.320  1.00  0.00    -0.265 OA
HETATM    4  H   UNL     1       7.210  26.862  55.438  1.00  0.00     0.169 HD
ENDROOT
BRANCH   2   5
HETATM    5  C   UNL     1       6.901  28.220  56.982  1.00  0.00     0.035 A 
HETATM    6  C   UNL     1       7.710  29.013  57.803  1.00  0.00     0.042 A 
HETATM    7  C   UNL     1       7.246  30.232  58.330  1.00  0.00    -0.021 A 
HETATM    8  C   UNL     1       5.945  30.646  58.013  1.00  0.00     0.012 A 
HETATM    9  C   UNL     1       5.134  29.868  57.188  1.00  0.00     0.003 A 
HETATM   10  C   UNL     1       5.610  28.662  56.674  1.00  0.00     0.029 A 
BRANCH   7  11
HETATM   11  C   UNL     1       8.109  31.028  59.194  1.00  0.00     0.010 A 
HETATM   12  C   UNL     1       9.340  31.678  58.928  1.00  0.00     0.152 A 
HETATM   13  N   UNL     1       9.832  32.322  59.990  1.00  0.00    -0.187 NA
HETATM   14  N   UNL     1       8.916  32.095  60.942  1.00  0.00    -0.289 N 
HETATM   15  H   UNL     1       9.070  32.497  61.861  1.00  0.00     0.188 HD
HETATM   16  C   UNL     1       7.869  31.328  60.520  1.00  0.00     0.123 A 
ENDBRANCH   7  11
ENDBRANCH   2   5
BRANCH   1  17
HETATM   17  C   UNL     1       8.034  24.750  56.218  1.00  0.00     0.144 A 
HETATM   18  O   UNL     1       7.593  24.796  54.922  1.00  0.00    -0.309 OA
HETATM   19  C   UNL     1       7.961  23.627  54.327  1.00  0.00     0.060 A 
HETATM   20  C   UNL     1       8.633  22.809  55.222  1.00  0.00    -0.026 A 
HETATM   21  C   UNL     1       8.686  23.553  56.436  1.00  0.00     0.052 A 
BRANCH  19  22
HETATM   22  C   UNL     1       7.578  23.473  52.898  1.00  0.00     0.061 C 
HETATM   23  C   UNL     1       7.876  24.732  52.101  1.00  0.00     0.012 C 
ENDBRANCH  19  22
BRANCH  20  24
HETATM   24  C   UNL     1       9.181  21.446  54.938  1.00  0.00     0.036 C 
HETATM   25  C   UNL     1       8.144  20.334  54.906  1.00  0.00     0.010 C 
ENDBRANCH  20  24
ENDBRANCH   1  17
TORSDOF 5
ENDMDL
MODEL 8
REMARK VINA RESULT:      -8.1      4.816      8.205
REMARK  5 active torsions:
REMARK  status: ('A' for Active; 'I' for Inactive)
REMARK    1  A    between atoms: C_2  and  C_3 
REMARK    2  A    between atoms: C_4  and  C_5 
REMARK    3  A    between atoms: C_8  and  C_9 
REMARK       I    between atoms: C_9  and  N_10 
REMARK    4  A    between atoms: N_10  and  C_11 
REMARK    5  A    between atoms: C_13  and  C_14 
ROOT
HETATM    1  C   UNL     1       5.440  25.609  52.005  1.00  0.00     0.280 C 
HETATM    2  N   UNL     1       6.660  25.777  52.637  1.00  0.00    -0.321 N 
HETATM    3  O   UNL     1       4.579  24.797  52.326  1.00  0.00    -0.265 OA
HETATM    4  H   UNL     1       7.239  26.508  52.237  1.00  0.00     0.169 HD
ENDROOT
BRANCH   2   5
HETATM    5  C   UNL     1       7.161  25.102  53.766  1.00  0.00     0.035 A 
HETATM    6  C   UNL     1       7.561  23.761  53.762  1.00  0.00     0.042 A 
HETATM    7  C   UNL     1       8.034  23.135  54.930  1.00  0.00    -0.021 A 
HETATM    8  C   UNL     1       8.101  23.885  56.111  1.00  0.00     0.012 A 
HETATM    9  C   UNL     1       7.713  25.225  56.124  1.00  0.00     0.003 A 
HETATM   10  C   UNL     1       7.247  25.830  54.957  1.00  0.00     0.029 A 
BRANCH   7  11
HETATM   11  C   UNL     1       8.429  21.732  54.896  1.00  0.00     0.010 A 
HETATM   12  C   UNL     1       8.434  20.798  53.829  1.00  0.00     0.152 A 
HETATM   13  N   UNL     1       8.877  19.591  54.194  1.00  0.00    -0.187 NA
HETATM   14  N   UNL     1       9.166  19.746  55.494  1.00  0.00    -0.289 N 
HETATM   15  H   UNL     1       9.534  18.948  56.002  1.00  0.00     0.188 HD
HETATM   16  C   UNL     1       8.917  21.004  55.962  1.00  0.00     0.123 A 
ENDBRANCH   7  11
ENDBRANCH   2   5
BRANCH   1  17
HETATM   17  C   UNL     1       5.252  26.527  50.896  1.00  0.00     0.144 A 
HETATM   18  O   UNL     1       5.646  27.833  51.020  1.00  0.00    -0.309 OA
HETATM   19  C   UNL     1       5.340  28.461  49.850  1.00  0.00     0.060 A 
HETATM   20  C   UNL     1       4.743  27.581  48.961  1.00  0.00    -0.026 A 
HETATM   21  C   UNL     1       4.704  26.331  49.644  1.00  0.00     0.052 A 
BRANCH  19  22
HETATM   22  C   UNL     1       5.693  29.903  49.772  1.00  0.00     0.061 C 
HETATM   23  C   UNL     1       4.453  30.782  49.760  1.00  0.00     0.012 C 
ENDBRANCH  19  22
BRANCH  20  24
HETATM   24  C   UNL     1       4.261  27.905  47.582  1.00  0.00     0.036 C 
HETATM   25  C   UNL     1       2.761  28.132  47.465  1.00  0.00     0.010 C 
ENDBRANCH  20  24
ENDBRANCH   1  17
TORSDOF 5
ENDMDL
MODEL 9
REMARK VINA RESULT:      -8.1      5.615      7.708
REMARK  5 active torsions:
REMARK  status: ('A' for Active; 'I' for Inactive)
REMARK    1  A    between atoms: C_2  and  C_3 
REMARK    2  A    between atoms: C_4  and  C_5 
REMARK    3  A    between atoms: C_8  and  C_9 
REMARK       I    between atoms: C_9  and  N_10 
REMARK    4  A    between atoms: N_10  and  C_11 
REMARK    5  A    between atoms: C_13  and  C_14 
ROOT
HETATM    1  C   UNL     1       5.615  25.499  52.993  1.00  0.00     0.280 C 
HETATM    2  N   UNL     1       5.971  25.978  51.743  1.00  0.00    -0.321 N 
HETATM    3  O   UNL     1       4.649  25.873  53.648  1.00  0.00    -0.265 OA
HETATM    4  H   UNL     1       6.797  25.540  51.349  1.00  0.00     0.169 HD
ENDROOT
BRANCH   2   5
HETATM    5  C   UNL     1       5.316  26.945  50.958  1.00  0.00     0.035 A 
HETATM    6  C   UNL     1       4.313  26.648  50.028  1.00  0.00     0.042 A 
HETATM    7  C   UNL     1       3.709  27.657  49.256  1.00  0.00    -0.021 A 
HETATM    8  C   UNL     1       4.131  28.981  49.436  1.00  0.00     0.012 A 
HETATM    9  C   UNL     1       5.123  29.289  50.367  1.00  0.00     0.003 A 
HETATM   10  C   UNL     1       5.711  28.276  51.125  1.00  0.00     0.029 A 
BRANCH   7  11
HETATM   11  C   UNL     1       2.678  27.312  48.285  1.00  0.00     0.010 A 
HETATM   12  C   UNL     1       1.283  27.567  48.286  1.00  0.00     0.152 A 
HETATM   13  N   UNL     1       0.664  27.092  47.201  1.00  0.00    -0.187 NA
HETATM   14  N   UNL     1       1.658  26.536  46.495  1.00  0.00    -0.289 N 
HETATM   15  H   UNL     1       1.431  26.103  45.606  1.00  0.00     0.188 HD
HETATM   16  C   UNL     1       2.880  26.639  47.097  1.00  0.00     0.123 A 
ENDBRANCH   7  11
ENDBRANCH   2   5
BRANCH   1  17
HETATM   17  C   UNL     1       6.509  24.460  53.470  1.00  0.00     0.144 A 
HETATM   18  O   UNL     1       6.714  24.305  54.816  1.00  0.00    -0.309 OA
HETATM   19  C   UNL     1       7.599  23.281  54.975  1.00  0.00     0.060 A 
HETATM   20  C   UNL     1       7.982  22.766  53.746  1.00  0.00    -0.026 A 
HETATM   21  C   UNL     1       7.260  23.528  52.783  1.00  0.00     0.052 A 
BRANCH  19  22
HETATM   22  C   UNL     1       7.959  22.941  56.377  1.00  0.00     0.061 C 
HETATM   23  C   UNL     1       8.875  23.990  56.988  1.00  0.00     0.012 C 
ENDBRANCH  19  22
BRANCH  20  24
HETATM   24  C   UNL     1       8.944  21.643  53.516  1.00  0.00     0.036 C 
HETATM   25  C   UNL     1       8.347  20.416  52.845  1.00  0.00     0.010 C 
ENDBRANCH  20  24
ENDBRANCH   1  17
TORSDOF 5
ENDMDL
MODEL 10
REMARK VINA RESULT:      -7.8      2.875      8.491
REMARK  5 active torsions:
REMARK  status: ('A' for Active; 'I' for Inactive)
REMARK    1  A    between atoms: C_2  and  C_3 
REMARK    2  A    between atoms: C_4  and  C_5 
REMARK    3  A    between atoms: C_8  and  C_9 
REMARK       I    between atoms: C_9  and  N_10 
REMARK    4  A    between atoms: N_10  and  C_11 
REMARK    5  A    between atoms: C_13  and  C_14 
ROOT
HETATM    1  C   UNL     1       8.515  28.666  57.294  1.00  0.00     0.280 C 
HETATM    2  N   UNL     1       7.463  27.936  56.769  1.00  0.00    -0.321 N 
HETATM    3  O   UNL     1       9.702  28.481  57.047  1.00  0.00    -0.265 OA
HETATM    4  H   UNL     1       6.547  28.242  57.080  1.00  0.00     0.169 HD
ENDROOT
BRANCH   2   5
HETATM    5  C   UNL     1       7.509  26.875  55.844  1.00  0.00     0.035 A 
HETATM    6  C   UNL     1       7.672  25.532  56.202  1.00  0.00     0.042 A 
HETATM    7  C   UNL     1       7.732  24.517  55.229  1.00  0.00    -0.021 A 
HETATM    8  C   UNL     1       7.621  24.877  53.879  1.00  0.00     0.012 A 
HETATM    9  C   UNL     1       7.449  26.212  53.512  1.00  0.00     0.003 A 
HETATM   10  C   UNL     1       7.392  27.205  54.490  1.00  0.00     0.029 A 
BRANCH   7  11
HETATM   11  C   UNL     1       7.918  23.130  55.635  1.00  0.00     0.010 A 
HETATM   12  C   UNL     1       8.383  22.576  56.854  1.00  0.00     0.152 A 
HETATM   13  N   UNL     1       8.408  21.240  56.845  1.00  0.00    -0.187 NA
HETATM   14  N   UNL     1       7.953  20.929  55.624  1.00  0.00    -0.289 N 
HETATM   15  H   UNL     1       7.875  19.948  55.376  1.00  0.00     0.188 HD
HETATM   16  C   UNL     1       7.646  22.019  54.861  1.00  0.00     0.123 A 
ENDBRANCH   7  11
ENDBRANCH   2   5
BRANCH   1  17
HETATM   17  C   UNL     1       8.074  29.724  58.184  1.00  0.00     0.144 A 
HETATM   18  O   UNL     1       8.753  29.960  59.350  1.00  0.00    -0.309 OA
HETATM   19  C   UNL     1       8.120  30.984  59.987  1.00  0.00     0.060 A 
HETATM   20  C   UNL     1       7.027  31.419  59.254  1.00  0.00    -0.026 A 
HETATM   21  C   UNL     1       7.017  30.606  58.085  1.00  0.00     0.052 A 
BRANCH  19  22
HETATM   22  C   UNL     1       8.706  31.405  61.287  1.00  0.00     0.061 C 
HETATM   23  C   UNL     1       9.412  30.252  61.982  1.00  0.00     0.012 C 
ENDBRANCH  19  22
BRANCH  20  24
HETATM   24  C   UNL     1       6.085  32.517  59.635  1.00  0.00     0.036 C 
HETATM   25  C   UNL     1       4.949  32.755  58.652  1.00  0.00     0.010 C 
ENDBRANCH  20  24
ENDBRANCH   1  17
TORSDOF 5
ENDMDL
