MODEL 1
REMARK VINA RESULT:      -9.8      0.000      0.000
REMARK  6 active torsions:
REMARK  status: ('A' for Active; 'I' for Inactive)
REMARK    1  A    between atoms: C_3  and  C_4 
REMARK    2  A    between atoms: C_4  and  C_5 
REMARK       I    between atoms: C_5  and  N_6 
REMARK    3  A    between atoms: N_6  and  C_7 
REMARK    4  A    between atoms: C_9  and  C_10 
REMARK    5  A    between atoms: C_11  and  C_12 
REMARK    6  A    between atoms: C_22  and  O_23 
ROOT
HETATM    1  C   UNL     1       8.445  28.545  57.375  1.00  0.00     0.036 A 
HETATM    2  C   UNL     1       7.994  29.189  58.530  1.00  0.00     0.050 A 
HETATM    3  C   UNL     1       8.687  30.291  59.045  1.00  0.00     0.020 A 
HETATM    4  C   UNL     1       9.843  30.751  58.412  1.00  0.00     0.021 A 
HETATM    5  C   UNL     1      10.303  30.113  57.261  1.00  0.00     0.004 A 
HETATM    6  C   UNL     1       9.603  29.020  56.744  1.00  0.00     0.029 A 
ENDROOT
BRANCH   1   7
HETATM    7  N   UNL     1       7.781  27.457  56.768  1.00  0.00    -0.327 N 
HETATM    8  C   UNL     1       7.695  26.160  57.240  1.00  0.00     0.226 C 
HETATM    9  O   UNL     1       8.298  25.689  58.202  1.00  0.00    -0.273 OA
HETATM   10  H   UNL     1       7.357  27.646  55.869  1.00  0.00     0.169 HD
BRANCH   8  11
HETATM   11  C   UNL     1       6.755  25.279  56.435  1.00  0.00     0.144 C 
BRANCH  11  12
HETATM   12  C   UNL     1       7.474  24.289  55.551  1.00  0.00    -0.016 A 
HETATM   13  C   UNL     1       7.438  24.466  54.157  1.00  0.00     0.010 A 
HETATM   14  C   UNL     1       8.028  23.534  53.299  1.00  0.00     0.001 A 
HETATM   15  C   UNL     1       8.656  22.407  53.821  1.00  0.00     0.003 A 
HETATM   16  C   UNL     1       8.701  22.217  55.200  1.00  0.00     0.037 A 
HETATM   17  C   UNL     1       8.124  23.154  56.055  1.00  0.00     0.072 A 
BRANCH  17  18
HETATM   18  O   UNL     1       8.214  22.876  57.390  1.00  0.00    -0.360 OA
HETATM   19  H   UNL     1       7.458  23.278  57.868  1.00  0.00     0.217 HD
ENDBRANCH  17  18
ENDBRANCH  11  12
ENDBRANCH   8  11
ENDBRANCH   1   7
BRANCH   3  20
HETATM   20  C   UNL     1       8.193  30.961  60.209  1.00  0.00    -0.060 C 
HETATM   21  C   UNL     1       7.765  31.494  61.197  1.00  0.00    -0.041 C 
BRANCH  21  22
HETATM   22  C   UNL     1       7.244  32.101  62.379  1.00  0.00     0.110 A 
HETATM   23  N   UNL     1       5.897  32.098  62.470  1.00  0.00    -0.252 NA
HETATM   24  C   UNL     1       5.363  32.671  63.570  1.00  0.00     0.118 A 
HETATM   25  C   UNL     1       6.115  33.247  64.581  1.00  0.00     0.019 A 
HETATM   26  C   UNL     1       7.501  33.236  64.460  1.00  0.00     0.004 A 
HETATM   27  C   UNL     1       8.082  32.650  63.337  1.00  0.00     0.041 A 
ENDBRANCH  21  22
ENDBRANCH   3  20
TORSDOF 6
ENDMDL
MODEL 2
REMARK VINA RESULT:      -9.6      1.186      1.605
REMARK  6 active torsions:
REMARK  status: ('A' for Active; 'I' for Inactive)
REMARK    1  A    between atoms: C_3  and  C_4 
REMARK    2  A    between atoms: C_4  and  C_5 
REMARK       I    between atoms: C_5  and  N_6 
REMARK    3  A    between atoms: N_6  and  C_7 
REMARK    4  A    between atoms: C_9  and  C_10 
REMARK    5  A    between atoms: C_11  and  C_12 
REMARK    6  A    between atoms: C_22  and  O_23 
ROOT
HETATM    1  C   UNL     1       8.320  28.458  57.347  1.00  0.00     0.036 A 
HETATM    2  C   UNL     1       7.899  29.223  58.438  1.00  0.00     0.050 A 
HETATM    3  C   UNL     1       8.684  30.284  58.906  1.00  0.00     0.020 A 
HETATM    4  C   UNL     1       9.900  30.582  58.291  1.00  0.00     0.021 A 
HETATM    5  C   UNL     1      10.330  29.822  57.204  1.00  0.00     0.004 A 
HETATM    6  C   UNL     1       9.541  28.770  56.733  1.00  0.00     0.029 A 
ENDROOT
BRANCH   1   7
HETATM    7  N   UNL     1       7.569  27.402  56.788  1.00  0.00    -0.327 N 
HETATM    8  C   UNL     1       7.570  26.075  57.179  1.00  0.00     0.226 C 
HETATM    9  O   UNL     1       8.328  25.552  57.992  1.00  0.00    -0.273 OA
HETATM   10  H   UNL     1       7.000  27.643  55.987  1.00  0.00     0.169 HD
BRANCH   8  11
HETATM   11  C   UNL     1       6.513  25.234  56.484  1.00  0.00     0.144 C 
BRANCH  11  12
HETATM   12  C   UNL     1       7.018  24.549  55.238  1.00  0.00    -0.016 A 
HETATM   13  C   UNL     1       7.329  23.178  55.290  1.00  0.00     0.010 A 
HETATM   14  C   UNL     1       7.867  22.522  54.180  1.00  0.00     0.001 A 
HETATM   15  C   UNL     1       8.110  23.225  53.004  1.00  0.00     0.003 A 
HETATM   16  C   UNL     1       7.807  24.583  52.936  1.00  0.00     0.037 A 
HETATM   17  C   UNL     1       7.258  25.235  54.038  1.00  0.00     0.072 A 
BRANCH  17  18
HETATM   18  O   UNL     1       7.000  26.566  53.876  1.00  0.00    -0.360 OA
HETATM   19  H   UNL     1       7.832  27.047  53.682  1.00  0.00     0.217 HD
ENDBRANCH  17  18
ENDBRANCH  11  12
ENDBRANCH   8  11
ENDBRANCH   1   7
BRANCH   3  20
HETATM   20  C   UNL     1       8.222  31.079  60.003  1.00  0.00    -0.060 C 
HETATM   21  C   UNL     1       7.865  31.754  60.931  1.00  0.00    -0.041 C 
BRANCH  21  22
HETATM   22  C   UNL     1       7.471  32.561  62.040  1.00  0.00     0.110 A 
HETATM   23  N   UNL     1       6.562  33.516  61.750  1.00  0.00    -0.252 NA
HETATM   24  C   UNL     1       6.169  34.308  62.771  1.00  0.00     0.118 A 
HETATM   25  C   UNL     1       6.646  34.188  64.067  1.00  0.00     0.019 A 
HETATM   26  C   UNL     1       7.583  33.195  64.336  1.00  0.00     0.004 A 
HETATM   27  C   UNL     1       8.007  32.362  63.303  1.00  0.00     0.041 A 
ENDBRANCH  21  22
ENDBRANCH   3  20
TORSDOF 6
ENDMDL
MODEL 3
REMARK VINA RESULT:      -9.0      6.958     13.184
REMARK  6 active torsions:
REMARK  status: ('A' for Active; 'I' for Inactive)
REMARK    1  A    between atoms: C_3  and  C_4 
REMARK    2  A    between atoms: C_4  and  C_5 
REMARK       I    between atoms: C_5  and  N_6 
REMARK    3  A    between atoms: N_6  and  C_7 
REMARK    4  A    between atoms: C_9  and  C_10 
REMARK    5  A    between atoms: C_11  and  C_12 
REMARK    6  A    between atoms: C_22  and  O_23 
ROOT
HETATM    1  C   UNL     1       5.209  34.815  67.266  1.00  0.00     0.036 A 
HETATM    2  C   UNL     1       5.924  34.079  66.317  1.00  0.00     0.050 A 
HETATM    3  C   UNL     1       5.884  34.438  64.964  1.00  0.00     0.020 A 
HETATM    4  C   UNL     1       5.121  35.531  64.551  1.00  0.00     0.021 A 
HETATM    5  C   UNL     1       4.402  36.268  65.490  1.00  0.00     0.004 A 
HETATM    6  C   UNL     1       4.451  35.914  66.840  1.00  0.00     0.029 A 
ENDROOT
BRANCH   1   7
HETATM    7  N   UNL     1       5.231  34.546  68.652  1.00  0.00    -0.327 N 
HETATM    8  C   UNL     1       6.146  35.007  69.580  1.00  0.00     0.226 C 
HETATM    9  O   UNL     1       7.185  35.621  69.343  1.00  0.00    -0.273 OA
HETATM   10  H   UNL     1       4.518  33.912  68.989  1.00  0.00     0.169 HD
BRANCH   8  11
HETATM   11  C   UNL     1       5.779  34.675  71.017  1.00  0.00     0.144 C 
BRANCH  11  12
HETATM   12  C   UNL     1       6.500  33.464  71.554  1.00  0.00    -0.016 A 
HETATM   13  C   UNL     1       7.588  33.648  72.427  1.00  0.00     0.010 A 
HETATM   14  C   UNL     1       8.329  32.557  72.890  1.00  0.00     0.001 A 
HETATM   15  C   UNL     1       8.000  31.268  72.483  1.00  0.00     0.003 A 
HETATM   16  C   UNL     1       6.926  31.069  71.619  1.00  0.00     0.037 A 
HETATM   17  C   UNL     1       6.178  32.155  71.168  1.00  0.00     0.072 A 
BRANCH  17  18
HETATM   18  O   UNL     1       5.148  31.859  70.321  1.00  0.00    -0.360 OA
HETATM   19  H   UNL     1       4.336  31.668  70.835  1.00  0.00     0.217 HD
ENDBRANCH  17  18
ENDBRANCH  11  12
ENDBRANCH   8  11
ENDBRANCH   1   7
BRANCH   3  20
HETATM   20  C   UNL     1       6.649  33.696  64.010  1.00  0.00    -0.060 C 
HETATM   21  C   UNL     1       7.264  33.069  63.190  1.00  0.00    -0.041 C 
BRANCH  21  22
HETATM   22  C   UNL     1       7.969  32.322  62.199  1.00  0.00     0.110 A 
HETATM   23  N   UNL     1       7.926  32.847  60.956  1.00  0.00    -0.252 NA
HETATM   24  C   UNL     1       8.573  32.165  59.987  1.00  0.00     0.118 A 
HETATM   25  C   UNL     1       9.261  30.982  60.206  1.00  0.00     0.019 A 
HETATM   26  C   UNL     1       9.289  30.464  61.497  1.00  0.00     0.004 A 
HETATM   27  C   UNL     1       8.631  31.146  62.518  1.00  0.00     0.041 A 
ENDBRANCH  21  22
ENDBRANCH   3  20
TORSDOF 6
ENDMDL
MODEL 4
REMARK VINA RESULT:      -8.9      2.380      3.669
REMARK  6 active torsions:
REMARK  status: ('A' for Active; 'I' for Inactive)
REMARK    1  A    between atoms: C_3  and  C_4 
REMARK    2  A    between atoms: C_4  and  C_5 
REMARK       I    between atoms: C_5  and  N_6 
REMARK    3  A    between atoms: N_6  and  C_7 
REMARK    4  A    between atoms: C_9  and  C_10 
REMARK    5  A    between atoms: C_11  and  C_12 
REMARK    6  A    between atoms: C_22  and  O_23 
ROOT
HETATM    1  C   UNL     1       6.959  27.397  54.491  1.00  0.00     0.036 A 
HETATM    2  C   UNL     1       7.377  28.011  55.675  1.00  0.00     0.050 A 
HETATM    3  C   UNL     1       6.672  29.104  56.193  1.00  0.00     0.020 A 
HETATM    4  C   UNL     1       5.550  29.596  55.526  1.00  0.00     0.021 A 
HETATM    5  C   UNL     1       5.128  28.992  54.343  1.00  0.00     0.004 A 
HETATM    6  C   UNL     1       5.827  27.895  53.832  1.00  0.00     0.029 A 
ENDROOT
BRANCH   1   7
HETATM    7  N   UNL     1       7.587  26.265  53.926  1.00  0.00    -0.327 N 
HETATM    8  C   UNL     1       7.013  25.036  53.657  1.00  0.00     0.226 C 
HETATM    9  O   UNL     1       5.890  24.664  53.989  1.00  0.00    -0.273 OA
HETATM   10  H   UNL     1       8.577  26.359  53.738  1.00  0.00     0.169 HD
BRANCH   8  11
HETATM   11  C   UNL     1       7.921  24.095  52.884  1.00  0.00     0.144 C 
BRANCH  11  12
HETATM   12  C   UNL     1       8.202  22.804  53.612  1.00  0.00    -0.016 A 
HETATM   13  C   UNL     1       7.885  21.584  52.987  1.00  0.00     0.010 A 
HETATM   14  C   UNL     1       8.062  20.369  53.653  1.00  0.00     0.001 A 
HETATM   15  C   UNL     1       8.551  20.353  54.956  1.00  0.00     0.003 A 
HETATM   16  C   UNL     1       8.870  21.552  55.589  1.00  0.00     0.037 A 
HETATM   17  C   UNL     1       8.707  22.763  54.919  1.00  0.00     0.072 A 
BRANCH  17  18
HETATM   18  O   UNL     1       9.043  23.883  55.625  1.00  0.00    -0.360 OA
HETATM   19  H   UNL     1       8.264  24.474  55.706  1.00  0.00     0.217 HD
ENDBRANCH  17  18
ENDBRANCH  11  12
ENDBRANCH   8  11
ENDBRANCH   1   7
BRANCH   3  20
HETATM   20  C   UNL     1       7.092  29.701  57.425  1.00  0.00    -0.060 C 
HETATM   21  C   UNL     1       7.464  30.222  58.441  1.00  0.00    -0.041 C 
BRANCH  21  22
HETATM   22  C   UNL     1       7.926  30.859  59.632  1.00  0.00     0.110 A 
HETATM   23  N   UNL     1       8.830  30.149  60.340  1.00  0.00    -0.252 NA
HETATM   24  C   UNL     1       9.285  30.713  61.479  1.00  0.00     0.118 A 
HETATM   25  C   UNL     1       8.876  31.953  61.943  1.00  0.00     0.019 A 
HETATM   26  C   UNL     1       7.942  32.662  61.193  1.00  0.00     0.004 A 
HETATM   27  C   UNL     1       7.454  32.106  60.011  1.00  0.00     0.041 A 
ENDBRANCH  21  22
ENDBRANCH   3  20
TORSDOF 6
ENDMDL
MODEL 5
REMARK VINA RESULT:      -8.9      1.602      2.126
REMARK  6 active torsions:
REMARK  status: ('A' for Active; 'I' for Inactive)
REMARK    1  A    between atoms: C_3  and  C_4 
REMARK    2  A    between atoms: C_4  and  C_5 
REMARK       I    between atoms: C_5  and  N_6 
REMARK    3  A    between atoms: N_6  and  C_7 
REMARK    4  A    between atoms: C_9  and  C_10 
REMARK    5  A    between atoms: C_11  and  C_12 
REMARK    6  A    between atoms: C_22  and  O_23 
ROOT
HETATM    1  C   UNL     1       8.013  27.042  56.814  1.00  0.00     0.036 A 
HETATM    2  C   UNL     1       8.008  27.932  57.891  1.00  0.00     0.050 A 
HETATM    3  C   UNL     1       7.618  29.264  57.709  1.00  0.00     0.020 A 
HETATM    4  C   UNL     1       7.239  29.717  56.446  1.00  0.00     0.021 A 
HETATM    5  C   UNL     1       7.243  28.838  55.364  1.00  0.00     0.004 A 
HETATM    6  C   UNL     1       7.624  27.506  55.550  1.00  0.00     0.029 A 
ENDROOT
BRANCH   1   7
HETATM    7  N   UNL     1       8.351  25.675  56.922  1.00  0.00    -0.327 N 
HETATM    8  C   UNL     1       7.498  24.592  56.821  1.00  0.00     0.226 C 
HETATM    9  O   UNL     1       6.271  24.628  56.756  1.00  0.00    -0.273 OA
HETATM   10  H   UNL     1       9.319  25.477  57.138  1.00  0.00     0.169 HD
BRANCH   8  11
HETATM   11  C   UNL     1       8.213  23.251  56.807  1.00  0.00     0.144 C 
BRANCH  11  12
HETATM   12  C   UNL     1       8.155  22.556  55.470  1.00  0.00    -0.016 A 
HETATM   13  C   UNL     1       8.200  23.328  54.295  1.00  0.00     0.010 A 
HETATM   14  C   UNL     1       8.076  22.730  53.038  1.00  0.00     0.001 A 
HETATM   15  C   UNL     1       7.898  21.354  52.935  1.00  0.00     0.003 A 
HETATM   16  C   UNL     1       7.851  20.575  54.088  1.00  0.00     0.037 A 
HETATM   17  C   UNL     1       7.988  21.169  55.341  1.00  0.00     0.072 A 
BRANCH  17  18
HETATM   18  O   UNL     1       7.924  20.323  56.412  1.00  0.00    -0.360 OA
HETATM   19  H   UNL     1       8.606  20.567  57.073  1.00  0.00     0.217 HD
ENDBRANCH  17  18
ENDBRANCH  11  12
ENDBRANCH   8  11
ENDBRANCH   1   7
BRANCH   3  20
HETATM   20  C   UNL     1       7.586  30.154  58.830  1.00  0.00    -0.060 C 
HETATM   21  C   UNL     1       7.541  30.878  59.787  1.00  0.00    -0.041 C 
BRANCH  21  22
HETATM   22  C   UNL     1       7.470  31.718  60.939  1.00  0.00     0.110 A 
HETATM   23  N   UNL     1       6.541  32.696  60.871  1.00  0.00    -0.252 NA
HETATM   24  C   UNL     1       6.447  33.518  61.937  1.00  0.00     0.118 A 
HETATM   25  C   UNL     1       7.242  33.408  63.067  1.00  0.00     0.019 A 
HETATM   26  C   UNL     1       8.192  32.392  63.109  1.00  0.00     0.004 A 
HETATM   27  C   UNL     1       8.311  31.526  62.024  1.00  0.00     0.041 A 
ENDBRANCH  21  22
ENDBRANCH   3  20
TORSDOF 6
ENDMDL
MODEL 6
REMARK VINA RESULT:      -8.6      2.580      9.417
REMARK  6 active torsions:
REMARK  status: ('A' for Active; 'I' for Inactive)
REMARK    1  A    between atoms: C_3  and  C_4 
REMARK    2  A    between atoms: C_4  and  C_5 
REMARK       I    between atoms: C_5  and  N_6 
REMARK    3  A    between atoms: N_6  and  C_7 
REMARK    4  A    between atoms: C_9  and  C_10 
REMARK    5  A    between atoms: C_11  and  C_12 
REMARK    6  A    between atoms: C_22  and  O_23 
ROOT
HETATM    1  C   UNL     1       8.638  30.986  59.625  1.00  0.00     0.036 A 
HETATM    2  C   UNL     1       8.221  29.800  59.014  1.00  0.00     0.050 A 
HETATM    3  C   UNL     1       8.875  29.322  57.872  1.00  0.00     0.020 A 
HETATM    4  C   UNL     1       9.946  30.032  57.328  1.00  0.00     0.021 A 
HETATM    5  C   UNL     1      10.367  31.217  57.928  1.00  0.00     0.004 A 
HETATM    6  C   UNL     1       9.719  31.687  59.073  1.00  0.00     0.029 A 
ENDROOT
BRANCH   1   7
HETATM    7  N   UNL     1       8.060  31.512  60.801  1.00  0.00    -0.327 N 
HETATM    8  C   UNL     1       8.325  31.134  62.104  1.00  0.00     0.226 C 
HETATM    9  O   UNL     1       9.007  30.177  62.466  1.00  0.00    -0.273 OA
HETATM   10  H   UNL     1       7.346  32.215  60.664  1.00  0.00     0.169 HD
BRANCH   8  11
HETATM   11  C   UNL     1       7.664  32.024  63.143  1.00  0.00     0.144 C 
BRANCH  11  12
HETATM   12  C   UNL     1       6.382  32.656  62.661  1.00  0.00    -0.016 A 
HETATM   13  C   UNL     1       6.410  33.976  62.178  1.00  0.00     0.010 A 
HETATM   14  C   UNL     1       5.234  34.624  61.790  1.00  0.00     0.001 A 
HETATM   15  C   UNL     1       4.012  33.966  61.884  1.00  0.00     0.003 A 
HETATM   16  C   UNL     1       3.966  32.658  62.360  1.00  0.00     0.037 A 
HETATM   17  C   UNL     1       5.141  32.007  62.735  1.00  0.00     0.072 A 
BRANCH  17  18
HETATM   18  O   UNL     1       4.993  30.729  63.193  1.00  0.00    -0.360 OA
HETATM   19  H   UNL     1       4.053  30.559  63.416  1.00  0.00     0.217 HD
ENDBRANCH  17  18
ENDBRANCH  11  12
ENDBRANCH   8  11
ENDBRANCH   1   7
BRANCH   3  20
HETATM   20  C   UNL     1       8.458  28.088  57.279  1.00  0.00    -0.060 C 
HETATM   21  C   UNL     1       8.118  27.064  56.751  1.00  0.00    -0.041 C 
BRANCH  21  22
HETATM   22  C   UNL     1       7.722  25.858  56.098  1.00  0.00     0.110 A 
HETATM   23  N   UNL     1       7.990  24.727  56.785  1.00  0.00    -0.252 NA
HETATM   24  C   UNL     1       7.639  23.564  56.196  1.00  0.00     0.118 A 
HETATM   25  C   UNL     1       7.034  23.481  54.952  1.00  0.00     0.019 A 
HETATM   26  C   UNL     1       6.771  24.663  54.267  1.00  0.00     0.004 A 
HETATM   27  C   UNL     1       7.120  25.880  54.849  1.00  0.00     0.041 A 
ENDBRANCH  21  22
ENDBRANCH   3  20
TORSDOF 6
ENDMDL
MODEL 7
REMARK VINA RESULT:      -8.6      6.616     10.200
REMARK  6 active torsions:
REMARK  status: ('A' for Active; 'I' for Inactive)
REMARK    1  A    between atoms: C_3  and  C_4 
REMARK    2  A    between atoms: C_4  and  C_5 
REMARK       I    between atoms: C_5  and  N_6 
REMARK    3  A    between atoms: N_6  and  C_7 
REMARK    4  A    between atoms: C_9  and  C_10 
REMARK    5  A    between atoms: C_11  and  C_12 
REMARK    6  A    between atoms: C_22  and  O_23 
ROOT
HETATM    1  C   UNL     1       4.496  27.687  53.193  1.00  0.00     0.036 A 
HETATM    2  C   UNL     1       5.177  26.468  53.167  1.00  0.00     0.050 A 
HETATM    3  C   UNL     1       5.670  25.904  54.350  1.00  0.00     0.020 A 
HETATM    4  C   UNL     1       5.493  26.563  55.568  1.00  0.00     0.021 A 
HETATM    5  C   UNL     1       4.817  27.782  55.603  1.00  0.00     0.004 A 
HETATM    6  C   UNL     1       4.318  28.337  54.423  1.00  0.00     0.029 A 
ENDROOT
BRANCH   1   7
HETATM    7  N   UNL     1       3.931  28.300  52.053  1.00  0.00    -0.327 N 
HETATM    8  C   UNL     1       4.583  29.067  51.106  1.00  0.00     0.226 C 
HETATM    9  O   UNL     1       5.744  29.468  51.160  1.00  0.00    -0.273 OA
HETATM   10  H   UNL     1       2.931  28.194  51.947  1.00  0.00     0.169 HD
BRANCH   8  11
HETATM   11  C   UNL     1       3.717  29.426  49.910  1.00  0.00     0.144 C 
BRANCH  11  12
HETATM   12  C   UNL     1       3.477  28.267  48.976  1.00  0.00    -0.016 A 
HETATM   13  C   UNL     1       2.156  27.864  48.711  1.00  0.00     0.010 A 
HETATM   14  C   UNL     1       1.891  26.750  47.910  1.00  0.00     0.001 A 
HETATM   15  C   UNL     1       2.942  26.018  47.366  1.00  0.00     0.003 A 
HETATM   16  C   UNL     1       4.257  26.404  47.617  1.00  0.00     0.037 A 
HETATM   17  C   UNL     1       4.520  27.522  48.406  1.00  0.00     0.072 A 
BRANCH  17  18
HETATM   18  O   UNL     1       5.840  27.818  48.599  1.00  0.00    -0.360 OA
HETATM   19  H   UNL     1       6.359  27.567  47.805  1.00  0.00     0.217 HD
ENDBRANCH  17  18
ENDBRANCH  11  12
ENDBRANCH   8  11
ENDBRANCH   1   7
BRANCH   3  20
HETATM   20  C   UNL     1       6.335  24.638  54.311  1.00  0.00    -0.060 C 
HETATM   21  C   UNL     1       6.899  23.578  54.310  1.00  0.00    -0.041 C 
BRANCH  21  22
HETATM   22  C   UNL     1       7.576  22.321  54.339  1.00  0.00     0.110 A 
HETATM   23  N   UNL     1       7.796  21.824  55.575  1.00  0.00    -0.252 NA
HETATM   24  C   UNL     1       8.442  20.641  55.646  1.00  0.00     0.118 A 
HETATM   25  C   UNL     1       8.879  19.933  54.538  1.00  0.00     0.019 A 
HETATM   26  C   UNL     1       8.640  20.470  53.276  1.00  0.00     0.004 A 
HETATM   27  C   UNL     1       7.974  21.690  53.170  1.00  0.00     0.041 A 
ENDBRANCH  21  22
ENDBRANCH   3  20
TORSDOF 6
ENDMDL
MODEL 8
REMARK VINA RESULT:      -8.5      3.038      9.858
REMARK  6 active torsions:
REMARK  status: ('A' for Active; 'I' for Inactive)
REMARK    1  A    between atoms: C_3  and  C_4 
REMARK    2  A    between atoms: C_4  and  C_5 
REMARK       I    between atoms: C_5  and  N_6 
REMARK    3  A    between atoms: N_6  and  C_7 
REMARK    4  A    between atoms: C_9  and  C_10 
REMARK    5  A    between atoms: C_11  and  C_12 
REMARK    6  A    between atoms: C_22  and  O_23 
ROOT
HETATM    1  C   UNL     1       9.036  30.065  58.980  1.00  0.00     0.036 A 
HETATM    2  C   UNL     1       8.336  29.212  58.122  1.00  0.00     0.050 A 
HETATM    3  C   UNL     1       8.719  29.084  56.782  1.00  0.00     0.020 A 
HETATM    4  C   UNL     1       9.800  29.815  56.288  1.00  0.00     0.021 A 
HETATM    5  C   UNL     1      10.502  30.671  57.135  1.00  0.00     0.004 A 
HETATM    6  C   UNL     1      10.124  30.790  58.475  1.00  0.00     0.029 A 
ENDROOT
BRANCH   1   7
HETATM    7  N   UNL     1       8.741  30.217  60.353  1.00  0.00    -0.327 N 
HETATM    8  C   UNL     1       7.995  31.222  60.942  1.00  0.00     0.226 C 
HETATM    9  O   UNL     1       7.572  32.238  60.394  1.00  0.00    -0.273 OA
HETATM   10  H   UNL     1       9.159  29.534  60.971  1.00  0.00     0.169 HD
BRANCH   8  11
HETATM   11  C   UNL     1       7.721  30.992  62.418  1.00  0.00     0.144 C 
BRANCH  11  12
HETATM   12  C   UNL     1       7.052  32.164  63.092  1.00  0.00    -0.016 A 
HETATM   13  C   UNL     1       7.802  32.966  63.971  1.00  0.00     0.010 A 
HETATM   14  C   UNL     1       7.204  34.017  64.671  1.00  0.00     0.001 A 
HETATM   15  C   UNL     1       5.847  34.279  64.510  1.00  0.00     0.003 A 
HETATM   16  C   UNL     1       5.090  33.495  63.643  1.00  0.00     0.037 A 
HETATM   17  C   UNL     1       5.689  32.455  62.935  1.00  0.00     0.072 A 
BRANCH  17  18
HETATM   18  O   UNL     1       4.864  31.740  62.114  1.00  0.00    -0.360 OA
HETATM   19  H   UNL     1       3.928  31.905  62.354  1.00  0.00     0.217 HD
ENDBRANCH  17  18
ENDBRANCH  11  12
ENDBRANCH   8  11
ENDBRANCH   1   7
BRANCH   3  20
HETATM   20  C   UNL     1       8.014  28.180  55.925  1.00  0.00    -0.060 C 
HETATM   21  C   UNL     1       7.397  27.421  55.228  1.00  0.00    -0.041 C 
BRANCH  21  22
HETATM   22  C   UNL     1       6.642  26.518  54.421  1.00  0.00     0.110 A 
HETATM   23  N   UNL     1       5.509  27.035  53.899  1.00  0.00    -0.252 NA
HETATM   24  C   UNL     1       4.761  26.210  53.136  1.00  0.00     0.118 A 
HETATM   25  C   UNL     1       5.094  24.890  52.873  1.00  0.00     0.019 A 
HETATM   26  C   UNL     1       6.266  24.383  53.426  1.00  0.00     0.004 A 
HETATM   27  C   UNL     1       7.060  25.212  54.217  1.00  0.00     0.041 A 
ENDBRANCH  21  22
ENDBRANCH   3  20
TORSDOF 6
ENDMDL
MODEL 9
REMARK VINA RESULT:      -8.0      6.059      8.370
REMARK  6 active torsions:
REMARK  status: ('A' for Active; 'I' for Inactive)
REMARK    1  A    between atoms: C_3  and  C_4 
REMARK    2  A    between atoms: C_4  and  C_5 
REMARK       I    between atoms: C_5  and  N_6 
REMARK    3  A    between atoms: N_6  and  C_7 
REMARK    4  A    between atoms: C_9  and  C_10 
REMARK    5  A    between atoms: C_11  and  C_12 
REMARK    6  A    between atoms: C_22  and  O_23 
ROOT
HETATM    1  C   UNL     1       5.768  26.366  51.826  1.00  0.00     0.036 A 
HETATM    2  C   UNL     1       6.460  27.191  52.716  1.00  0.00     0.050 A 
HETATM    3  C   UNL     1       6.748  26.751  54.014  1.00  0.00     0.020 A 
HETATM    4  C   UNL     1       6.336  25.486  54.433  1.00  0.00     0.021 A 
HETATM    5  C   UNL     1       5.641  24.657  53.553  1.00  0.00     0.004 A 
HETATM    6  C   UNL     1       5.364  25.094  52.256  1.00  0.00     0.029 A 
ENDROOT
BRANCH   1   7
HETATM    7  N   UNL     1       5.477  26.717  50.490  1.00  0.00    -0.327 N 
HETATM    8  C   UNL     1       4.772  27.822  50.049  1.00  0.00     0.226 C 
HETATM    9  O   UNL     1       4.154  28.623  50.746  1.00  0.00    -0.273 OA
HETATM   10  H   UNL     1       5.788  26.061  49.785  1.00  0.00     0.169 HD
BRANCH   8  11
HETATM   11  C   UNL     1       4.793  27.997  48.540  1.00  0.00     0.144 C 
BRANCH  11  12
HETATM   12  C   UNL     1       3.422  27.949  47.913  1.00  0.00    -0.016 A 
HETATM   13  C   UNL     1       2.939  29.085  47.238  1.00  0.00     0.010 A 
HETATM   14  C   UNL     1       1.647  29.109  46.707  1.00  0.00     0.001 A 
HETATM   15  C   UNL     1       0.815  28.003  46.847  1.00  0.00     0.003 A 
HETATM   16  C   UNL     1       1.277  26.870  47.513  1.00  0.00     0.037 A 
HETATM   17  C   UNL     1       2.571  26.841  48.031  1.00  0.00     0.072 A 
BRANCH  17  18
HETATM   18  O   UNL     1       2.931  25.689  48.670  1.00  0.00    -0.360 OA
HETATM   19  H   UNL     1       2.198  25.380  49.243  1.00  0.00     0.217 HD
ENDBRANCH  17  18
ENDBRANCH  11  12
ENDBRANCH   8  11
ENDBRANCH   1   7
BRANCH   3  20
HETATM   20  C   UNL     1       7.488  27.594  54.903  1.00  0.00    -0.060 C 
HETATM   21  C   UNL     1       8.089  28.328  55.640  1.00  0.00    -0.041 C 
BRANCH  21  22
HETATM   22  C   UNL     1       8.785  29.222  56.508  1.00  0.00     0.110 A 
HETATM   23  N   UNL     1       8.033  29.750  57.498  1.00  0.00    -0.252 NA
HETATM   24  C   UNL     1       8.652  30.608  58.336  1.00  0.00     0.118 A 
HETATM   25  C   UNL     1       9.988  30.963  58.228  1.00  0.00     0.019 A 
HETATM   26  C   UNL     1      10.737  30.404  57.198  1.00  0.00     0.004 A 
HETATM   27  C   UNL     1      10.127  29.514  56.317  1.00  0.00     0.041 A 
ENDBRANCH  21  22
ENDBRANCH   3  20
TORSDOF 6
ENDMDL
MODEL 10
REMARK VINA RESULT:      -8.0      5.304      9.018
REMARK  6 active torsions:
REMARK  status: ('A' for Active; 'I' for Inactive)
REMARK    1  A    between atoms: C_3  and  C_4 
REMARK    2  A    between atoms: C_4  and  C_5 
REMARK       I    between atoms: C_5  and  N_6 
REMARK    3  A    between atoms: N_6  and  C_7 
REMARK    4  A    between atoms: C_9  and  C_10 
REMARK    5  A    between atoms: C_11  and  C_12 
REMARK    6  A    between atoms: C_22  and  O_23 
ROOT
HETATM    1  C   UNL     1       6.537  27.185  54.888  1.00  0.00     0.036 A 
HETATM    2  C   UNL     1       5.918  27.218  53.636  1.00  0.00     0.050 A 
HETATM    3  C   UNL     1       5.047  28.262  53.302  1.00  0.00     0.020 A 
HETATM    4  C   UNL     1       4.781  29.275  54.224  1.00  0.00     0.021 A 
HETATM    5  C   UNL     1       5.390  29.249  55.477  1.00  0.00     0.004 A 
HETATM    6  C   UNL     1       6.267  28.211  55.804  1.00  0.00     0.029 A 
ENDROOT
BRANCH   1   7
HETATM    7  N   UNL     1       7.460  26.193  55.285  1.00  0.00    -0.327 N 
HETATM    8  C   UNL     1       7.188  25.022  55.970  1.00  0.00     0.226 C 
HETATM    9  O   UNL     1       6.114  24.702  56.476  1.00  0.00    -0.273 OA
HETATM   10  H   UNL     1       8.430  26.387  55.078  1.00  0.00     0.169 HD
BRANCH   8  11
HETATM   11  C   UNL     1       8.382  24.091  56.083  1.00  0.00     0.144 C 
BRANCH  11  12
HETATM   12  C   UNL     1       8.267  22.862  55.214  1.00  0.00    -0.016 A 
HETATM   13  C   UNL     1       8.118  23.019  53.825  1.00  0.00     0.010 A 
HETATM   14  C   UNL     1       7.935  21.912  52.993  1.00  0.00     0.001 A 
HETATM   15  C   UNL     1       7.892  20.631  53.536  1.00  0.00     0.003 A 
HETATM   16  C   UNL     1       8.038  20.458  54.910  1.00  0.00     0.037 A 
HETATM   17  C   UNL     1       8.234  21.562  55.738  1.00  0.00     0.072 A 
BRANCH  17  18
HETATM   18  O   UNL     1       8.362  21.291  57.071  1.00  0.00    -0.360 OA
HETATM   19  H   UNL     1       7.593  20.769  57.383  1.00  0.00     0.217 HD
ENDBRANCH  17  18
ENDBRANCH  11  12
ENDBRANCH   8  11
ENDBRANCH   1   7
BRANCH   3  20
HETATM   20  C   UNL     1       4.448  28.300  52.003  1.00  0.00    -0.060 C 
HETATM   21  C   UNL     1       3.917  28.338  50.926  1.00  0.00    -0.041 C 
BRANCH  21  22
HETATM   22  C   UNL     1       3.258  28.388  49.661  1.00  0.00     0.110 A 
HETATM   23  N   UNL     1       4.023  28.025  48.609  1.00  0.00    -0.252 NA
HETATM   24  C   UNL     1       3.440  28.067  47.392  1.00  0.00     0.118 A 
HETATM   25  C   UNL     1       2.127  28.457  47.180  1.00  0.00     0.019 A 
HETATM   26  C   UNL     1       1.362  28.827  48.282  1.00  0.00     0.004 A 
HETATM   27  C   UNL     1       1.936  28.792  49.552  1.00  0.00     0.041 A 
ENDBRANCH  21  22
ENDBRANCH   3  20
TORSDOF 6
ENDMDL
