MODEL 1
REMARK VINA RESULT:      -8.9      0.000      0.000
REMARK  3 active torsions:
REMARK  status: ('A' for Active; 'I' for Inactive)
REMARK    1  A    between atoms: C_4  and  C_5 
REMARK       I    between atoms: C_5  and  N_6 
REMARK    2  A    between atoms: C_16  and  C_17 
REMARK    3  A    between atoms: C_27  and  O_28 
ROOT
HETATM    1  C   UNL     1       4.917  27.401  54.252  1.00  0.00     0.275 C 
HETATM    2  N   UNL     1       5.294  27.956  55.483  1.00  0.00    -0.339 N 
HETATM    3  C   UNL     1       4.345  28.796  56.193  1.00  0.00     0.123 C 
HETATM    4  C   UNL     1       4.993  29.059  57.575  1.00  0.00     0.221 C 
HETATM    5  N   UNL     1       5.024  30.568  57.837  1.00  0.00    -0.064 N 
HETATM    6  H   UNL     1       5.457  30.749  58.753  1.00  0.00     0.280 HD
HETATM    7  C   UNL     1       5.750  31.403  56.792  1.00  0.00     0.236 C 
HETATM    8  C   UNL     1       5.236  31.021  55.410  1.00  0.00     0.034 C 
HETATM    9  C   UNL     1       3.981  30.144  55.532  1.00  0.00     0.014 C 
HETATM   10  C   UNL     1       2.981  30.868  56.465  1.00  0.00     0.034 C 
HETATM   11  C   UNL     1       3.576  31.062  57.869  1.00  0.00     0.236 C 
HETATM   12  C   UNL     1       6.323  28.254  57.615  1.00  0.00     0.070 C 
HETATM   13  C   UNL     1       6.144  27.264  56.448  1.00  0.00     0.138 C 
HETATM   14  O   UNL     1       3.811  27.647  53.762  1.00  0.00    -0.266 OA
ENDROOT
BRANCH   1  15
HETATM   15  C   UNL     1       5.834  26.481  53.503  1.00  0.00     0.157 A 
HETATM   16  N   UNL     1       7.111  26.905  53.301  1.00  0.00    -0.253 NA
HETATM   17  C   UNL     1       7.925  26.065  52.620  1.00  0.00     0.117 A 
HETATM   18  C   UNL     1       7.531  24.828  52.134  1.00  0.00     0.022 A 
HETATM   19  C   UNL     1       6.215  24.424  52.338  1.00  0.00     0.040 A 
HETATM   20  C   UNL     1       5.344  25.264  53.020  1.00  0.00     0.100 A 
BRANCH  20  21
HETATM   21  O   UNL     1       4.057  24.831  53.170  1.00  0.00    -0.358 OA
HETATM   22  H   UNL     1       3.885  24.129  52.504  1.00  0.00     0.218 HD
ENDBRANCH  20  21
ENDBRANCH   1  15
BRANCH  12  23
HETATM   23  C   UNL     1       7.642  28.999  57.624  1.00  0.00    -0.044 A 
HETATM   24  C   UNL     1       8.419  29.025  56.451  1.00  0.00     0.050 A 
HETATM   25  C   UNL     1       9.636  29.709  56.421  1.00  0.00     0.119 A 
HETATM   26  F   UNL     1      10.358  29.698  55.294  1.00  0.00    -0.206 F 
HETATM   27  C   UNL     1      10.113  30.382  57.534  1.00  0.00     0.084 A 
HETATM   28  C   UNL     1       9.347  30.372  58.688  1.00  0.00     0.119 A 
HETATM   29  F   UNL     1       9.792  31.006  59.780  1.00  0.00    -0.206 F 
HETATM   30  C   UNL     1       8.126  29.696  58.744  1.00  0.00     0.050 A 
ENDBRANCH  12  23
TORSDOF 3
ENDMDL
MODEL 2
REMARK VINA RESULT:      -8.9      0.084      1.550
REMARK  3 active torsions:
REMARK  status: ('A' for Active; 'I' for Inactive)
REMARK    1  A    between atoms: C_4  and  C_5 
REMARK       I    between atoms: C_5  and  N_6 
REMARK    2  A    between atoms: C_16  and  C_17 
REMARK    3  A    between atoms: C_27  and  O_28 
ROOT
HETATM    1  C   UNL     1       4.916  27.395  54.273  1.00  0.00     0.275 C 
HETATM    2  N   UNL     1       5.304  27.963  55.495  1.00  0.00    -0.339 N 
HETATM    3  C   UNL     1       4.359  28.802  56.211  1.00  0.00     0.123 C 
HETATM    4  C   UNL     1       5.021  29.079  57.582  1.00  0.00     0.221 C 
HETATM    5  N   UNL     1       5.046  30.589  57.833  1.00  0.00    -0.064 N 
HETATM    6  H   UNL     1       5.488  30.780  58.743  1.00  0.00     0.280 HD
HETATM    7  C   UNL     1       5.754  31.422  56.774  1.00  0.00     0.236 C 
HETATM    8  C   UNL     1       5.226  31.026  55.401  1.00  0.00     0.034 C 
HETATM    9  C   UNL     1       3.978  30.142  55.544  1.00  0.00     0.014 C 
HETATM   10  C   UNL     1       2.985  30.867  56.484  1.00  0.00     0.034 C 
HETATM   11  C   UNL     1       3.595  31.075  57.879  1.00  0.00     0.236 C 
HETATM   12  C   UNL     1       6.356  28.282  57.613  1.00  0.00     0.070 C 
HETATM   13  C   UNL     1       6.169  27.282  56.456  1.00  0.00     0.138 C 
HETATM   14  O   UNL     1       3.803  27.631  53.794  1.00  0.00    -0.266 OA
ENDROOT
BRANCH   1  15
HETATM   15  C   UNL     1       5.831  26.476  53.520  1.00  0.00     0.157 A 
HETATM   16  N   UNL     1       7.108  26.898  53.317  1.00  0.00    -0.253 NA
HETATM   17  C   UNL     1       7.919  26.058  52.633  1.00  0.00     0.117 A 
HETATM   18  C   UNL     1       7.522  24.824  52.143  1.00  0.00     0.022 A 
HETATM   19  C   UNL     1       6.205  24.421  52.348  1.00  0.00     0.040 A 
HETATM   20  C   UNL     1       5.337  25.262  53.034  1.00  0.00     0.100 A 
BRANCH  20  21
HETATM   21  O   UNL     1       4.049  24.831  53.184  1.00  0.00    -0.358 OA
HETATM   22  H   UNL     1       3.874  24.132  52.516  1.00  0.00     0.218 HD
ENDBRANCH  20  21
ENDBRANCH   1  15
BRANCH  12  23
HETATM   23  C   UNL     1       7.671  29.035  57.601  1.00  0.00    -0.044 A 
HETATM   24  C   UNL     1       8.104  29.673  58.776  1.00  0.00     0.050 A 
HETATM   25  C   UNL     1       9.315  30.369  58.803  1.00  0.00     0.119 A 
HETATM   26  F   UNL     1       9.687  30.980  59.934  1.00  0.00    -0.206 F 
HETATM   27  C   UNL     1      10.125  30.448  57.682  1.00  0.00     0.084 A 
HETATM   28  C   UNL     1       9.713  29.809  56.524  1.00  0.00     0.119 A 
HETATM   29  F   UNL     1      10.473  29.881  55.425  1.00  0.00    -0.206 F 
HETATM   30  C   UNL     1       8.507  29.107  56.472  1.00  0.00     0.050 A 
ENDBRANCH  12  23
TORSDOF 3
ENDMDL
MODEL 3
REMARK VINA RESULT:      -8.5      3.113      5.534
REMARK  3 active torsions:
REMARK  status: ('A' for Active; 'I' for Inactive)
REMARK    1  A    between atoms: C_4  and  C_5 
REMARK       I    between atoms: C_5  and  N_6 
REMARK    2  A    between atoms: C_16  and  C_17 
REMARK    3  A    between atoms: C_27  and  O_28 
ROOT
HETATM    1  C   UNL     1       4.978  27.050  50.879  1.00  0.00     0.275 C 
HETATM    2  N   UNL     1       5.818  27.107  52.000  1.00  0.00    -0.339 N 
HETATM    3  C   UNL     1       6.659  25.963  52.305  1.00  0.00     0.123 C 
HETATM    4  C   UNL     1       7.586  26.437  53.451  1.00  0.00     0.221 C 
HETATM    5  N   UNL     1       7.502  25.442  54.611  1.00  0.00    -0.064 N 
HETATM    6  H   UNL     1       8.115  25.754  55.377  1.00  0.00     0.280 HD
HETATM    7  C   UNL     1       6.110  25.207  55.179  1.00  0.00     0.236 C 
HETATM    8  C   UNL     1       5.153  24.910  54.031  1.00  0.00     0.034 C 
HETATM    9  C   UNL     1       5.937  24.666  52.733  1.00  0.00     0.014 C 
HETATM   10  C   UNL     1       7.021  23.601  53.023  1.00  0.00     0.034 C 
HETATM   11  C   UNL     1       8.004  24.090  54.099  1.00  0.00     0.236 C 
HETATM   12  C   UNL     1       7.261  27.935  53.711  1.00  0.00     0.070 C 
HETATM   13  C   UNL     1       6.488  28.330  52.437  1.00  0.00     0.138 C 
HETATM   14  O   UNL     1       4.926  26.032  50.182  1.00  0.00    -0.266 OA
ENDROOT
BRANCH   1  15
HETATM   15  C   UNL     1       4.131  28.223  50.483  1.00  0.00     0.157 A 
HETATM   16  N   UNL     1       4.434  28.841  49.311  1.00  0.00    -0.253 NA
HETATM   17  C   UNL     1       3.663  29.901  48.970  1.00  0.00     0.117 A 
HETATM   18  C   UNL     1       2.609  30.370  49.739  1.00  0.00     0.022 A 
HETATM   19  C   UNL     1       2.329  29.732  50.943  1.00  0.00     0.040 A 
HETATM   20  C   UNL     1       3.107  28.649  51.334  1.00  0.00     0.100 A 
BRANCH  20  21
HETATM   21  O   UNL     1       2.808  28.076  52.538  1.00  0.00    -0.358 OA
HETATM   22  H   UNL     1       2.665  27.114  52.398  1.00  0.00     0.218 HD
ENDBRANCH  20  21
ENDBRANCH   1  15
BRANCH  12  23
HETATM   23  C   UNL     1       6.595  28.336  55.012  1.00  0.00    -0.044 A 
HETATM   24  C   UNL     1       7.379  28.456  56.172  1.00  0.00     0.050 A 
HETATM   25  C   UNL     1       6.800  28.831  57.386  1.00  0.00     0.119 A 
HETATM   26  F   UNL     1       7.574  28.918  58.475  1.00  0.00    -0.206 F 
HETATM   27  C   UNL     1       5.445  29.102  57.485  1.00  0.00     0.084 A 
HETATM   28  C   UNL     1       4.668  29.000  56.343  1.00  0.00     0.119 A 
HETATM   29  F   UNL     1       3.354  29.244  56.416  1.00  0.00    -0.206 F 
HETATM   30  C   UNL     1       5.223  28.626  55.117  1.00  0.00     0.050 A 
ENDBRANCH  12  23
TORSDOF 3
ENDMDL
MODEL 4
REMARK VINA RESULT:      -8.4      3.287      5.577
REMARK  3 active torsions:
REMARK  status: ('A' for Active; 'I' for Inactive)
REMARK    1  A    between atoms: C_4  and  C_5 
REMARK       I    between atoms: C_5  and  N_6 
REMARK    2  A    between atoms: C_16  and  C_17 
REMARK    3  A    between atoms: C_27  and  O_28 
ROOT
HETATM    1  C   UNL     1       4.973  27.008  50.923  1.00  0.00     0.275 C 
HETATM    2  N   UNL     1       5.838  27.062  52.024  1.00  0.00    -0.339 N 
HETATM    3  C   UNL     1       6.680  25.914  52.312  1.00  0.00     0.123 C 
HETATM    4  C   UNL     1       7.636  26.383  53.436  1.00  0.00     0.221 C 
HETATM    5  N   UNL     1       7.573  25.389  54.598  1.00  0.00    -0.064 N 
HETATM    6  H   UNL     1       8.204  25.698  55.349  1.00  0.00     0.280 HD
HETATM    7  C   UNL     1       6.192  25.161  55.197  1.00  0.00     0.236 C 
HETATM    8  C   UNL     1       5.208  24.868  54.071  1.00  0.00     0.034 C 
HETATM    9  C   UNL     1       5.961  24.620  52.756  1.00  0.00     0.014 C 
HETATM   10  C   UNL     1       7.046  23.550  53.021  1.00  0.00     0.034 C 
HETATM   11  C   UNL     1       8.056  24.034  54.075  1.00  0.00     0.236 C 
HETATM   12  C   UNL     1       7.323  27.883  53.702  1.00  0.00     0.070 C 
HETATM   13  C   UNL     1       6.524  28.281  52.446  1.00  0.00     0.138 C 
HETATM   14  O   UNL     1       4.900  25.991  50.228  1.00  0.00    -0.266 OA
ENDROOT
BRANCH   1  15
HETATM   15  C   UNL     1       4.123  28.185  50.547  1.00  0.00     0.157 A 
HETATM   16  N   UNL     1       3.251  28.647  51.483  1.00  0.00    -0.253 NA
HETATM   17  C   UNL     1       2.488  29.707  51.126  1.00  0.00     0.117 A 
HETATM   18  C   UNL     1       2.553  30.327  49.888  1.00  0.00     0.022 A 
HETATM   19  C   UNL     1       3.441  29.825  48.940  1.00  0.00     0.040 A 
HETATM   20  C   UNL     1       4.231  28.729  49.263  1.00  0.00     0.100 A 
BRANCH  20  21
HETATM   21  O   UNL     1       5.065  28.259  48.288  1.00  0.00    -0.358 OA
HETATM   22  H   UNL     1       4.585  28.280  47.431  1.00  0.00     0.218 HD
ENDBRANCH  20  21
ENDBRANCH   1  15
BRANCH  12  23
HETATM   23  C   UNL     1       6.689  28.288  55.017  1.00  0.00    -0.044 A 
HETATM   24  C   UNL     1       5.302  28.513  55.066  1.00  0.00     0.050 A 
HETATM   25  C   UNL     1       4.683  28.879  56.263  1.00  0.00     0.119 A 
HETATM   26  F   UNL     1       3.364  29.103  56.269  1.00  0.00    -0.206 F 
HETATM   27  C   UNL     1       5.409  29.026  57.434  1.00  0.00     0.084 A 
HETATM   28  C   UNL     1       6.774  28.792  57.397  1.00  0.00     0.119 A 
HETATM   29  F   UNL     1       7.498  28.939  58.513  1.00  0.00    -0.206 F 
HETATM   30  C   UNL     1       7.416  28.425  56.213  1.00  0.00     0.050 A 
ENDBRANCH  12  23
TORSDOF 3
ENDMDL
MODEL 5
REMARK VINA RESULT:      -8.3      2.742      4.628
REMARK  3 active torsions:
REMARK  status: ('A' for Active; 'I' for Inactive)
REMARK    1  A    between atoms: C_4  and  C_5 
REMARK       I    between atoms: C_5  and  N_6 
REMARK    2  A    between atoms: C_16  and  C_17 
REMARK    3  A    between atoms: C_27  and  O_28 
ROOT
HETATM    1  C   UNL     1       5.255  26.380  52.793  1.00  0.00     0.275 C 
HETATM    2  N   UNL     1       6.226  26.681  53.758  1.00  0.00    -0.339 N 
HETATM    3  C   UNL     1       6.959  25.592  54.379  1.00  0.00     0.123 C 
HETATM    4  C   UNL     1       8.069  26.275  55.215  1.00  0.00     0.221 C 
HETATM    5  N   UNL     1       8.012  25.749  56.652  1.00  0.00    -0.064 N 
HETATM    6  H   UNL     1       8.745  26.202  57.213  1.00  0.00     0.280 HD
HETATM    7  C   UNL     1       6.681  25.930  57.368  1.00  0.00     0.236 C 
HETATM    8  C   UNL     1       5.564  25.415  56.471  1.00  0.00     0.034 C 
HETATM    9  C   UNL     1       6.149  24.636  55.283  1.00  0.00     0.014 C 
HETATM   10  C   UNL     1       7.130  23.578  55.843  1.00  0.00     0.034 C 
HETATM   11  C   UNL     1       8.287  24.244  56.605  1.00  0.00     0.236 C 
HETATM   12  C   UNL     1       7.953  27.805  54.962  1.00  0.00     0.070 C 
HETATM   13  C   UNL     1       7.081  27.863  53.692  1.00  0.00     0.138 C 
HETATM   14  O   UNL     1       5.000  25.208  52.500  1.00  0.00    -0.266 OA
ENDROOT
BRANCH   1  15
HETATM   15  C   UNL     1       4.507  27.467  52.080  1.00  0.00     0.157 A 
HETATM   16  N   UNL     1       3.670  28.238  52.824  1.00  0.00    -0.253 NA
HETATM   17  C   UNL     1       3.000  29.213  52.165  1.00  0.00     0.117 A 
HETATM   18  C   UNL     1       3.125  29.454  50.806  1.00  0.00     0.022 A 
HETATM   19  C   UNL     1       3.974  28.641  50.062  1.00  0.00     0.040 A 
HETATM   20  C   UNL     1       4.669  27.621  50.700  1.00  0.00     0.100 A 
BRANCH  20  21
HETATM   21  O   UNL     1       5.468  26.834  49.919  1.00  0.00    -0.358 OA
HETATM   22  H   UNL     1       5.060  26.763  49.027  1.00  0.00     0.218 HD
ENDBRANCH  20  21
ENDBRANCH   1  15
BRANCH  12  23
HETATM   23  C   UNL     1       7.502  28.713  56.088  1.00  0.00    -0.044 A 
HETATM   24  C   UNL     1       8.419  29.056  57.097  1.00  0.00     0.050 A 
HETATM   25  C   UNL     1       8.040  29.897  58.146  1.00  0.00     0.119 A 
HETATM   26  F   UNL     1       8.934  30.188  59.099  1.00  0.00    -0.206 F 
HETATM   27  C   UNL     1       6.760  30.421  58.223  1.00  0.00     0.084 A 
HETATM   28  C   UNL     1       5.855  30.099  57.224  1.00  0.00     0.119 A 
HETATM   29  F   UNL     1       4.609  30.584  57.283  1.00  0.00    -0.206 F 
HETATM   30  C   UNL     1       6.209  29.260  56.166  1.00  0.00     0.050 A 
ENDBRANCH  12  23
TORSDOF 3
ENDMDL
MODEL 6
REMARK VINA RESULT:      -8.3      3.399      5.316
REMARK  3 active torsions:
REMARK  status: ('A' for Active; 'I' for Inactive)
REMARK    1  A    between atoms: C_4  and  C_5 
REMARK       I    between atoms: C_5  and  N_6 
REMARK    2  A    between atoms: C_16  and  C_17 
REMARK    3  A    between atoms: C_27  and  O_28 
ROOT
HETATM    1  C   UNL     1       4.629  28.818  52.530  1.00  0.00     0.275 C 
HETATM    2  N   UNL     1       4.957  27.815  53.454  1.00  0.00    -0.339 N 
HETATM    3  C   UNL     1       5.206  28.189  54.835  1.00  0.00     0.123 C 
HETATM    4  C   UNL     1       5.327  26.849  55.601  1.00  0.00     0.221 C 
HETATM    5  N   UNL     1       6.635  26.841  56.397  1.00  0.00    -0.064 N 
HETATM    6  H   UNL     1       6.722  25.951  56.907  1.00  0.00     0.280 HD
HETATM    7  C   UNL     1       7.903  27.051  55.583  1.00  0.00     0.236 C 
HETATM    8  C   UNL     1       7.722  28.275  54.695  1.00  0.00     0.034 C 
HETATM    9  C   UNL     1       6.461  29.050  55.104  1.00  0.00     0.014 C 
HETATM   10  C   UNL     1       6.533  29.307  56.629  1.00  0.00     0.034 C 
HETATM   11  C   UNL     1       6.567  27.985  57.412  1.00  0.00     0.236 C 
HETATM   12  C   UNL     1       5.055  25.712  54.577  1.00  0.00     0.070 C 
HETATM   13  C   UNL     1       4.388  26.470  53.413  1.00  0.00     0.138 C 
HETATM   14  O   UNL     1       4.586  30.002  52.874  1.00  0.00    -0.266 OA
ENDROOT
BRANCH   1  15
HETATM   15  C   UNL     1       4.305  28.482  51.104  1.00  0.00     0.157 A 
HETATM   16  N   UNL     1       5.340  28.112  50.303  1.00  0.00    -0.253 NA
HETATM   17  C   UNL     1       5.032  27.816  49.018  1.00  0.00     0.117 A 
HETATM   18  C   UNL     1       3.749  27.871  48.496  1.00  0.00     0.022 A 
HETATM   19  C   UNL     1       2.710  28.270  49.332  1.00  0.00     0.040 A 
HETATM   20  C   UNL     1       2.987  28.595  50.653  1.00  0.00     0.100 A 
BRANCH  20  21
HETATM   21  O   UNL     1       1.935  29.006  51.423  1.00  0.00    -0.358 OA
HETATM   22  H   UNL     1       2.228  29.034  52.361  1.00  0.00     0.218 HD
ENDBRANCH  20  21
ENDBRANCH   1  15
BRANCH  12  23
HETATM   23  C   UNL     1       6.187  24.790  54.172  1.00  0.00    -0.044 A 
HETATM   24  C   UNL     1       6.774  24.945  52.904  1.00  0.00     0.050 A 
HETATM   25  C   UNL     1       7.825  24.118  52.501  1.00  0.00     0.119 A 
HETATM   26  F   UNL     1       8.349  24.282  51.281  1.00  0.00    -0.206 F 
HETATM   27  C   UNL     1       8.323  23.129  53.333  1.00  0.00     0.084 A 
HETATM   28  C   UNL     1       7.759  22.979  54.590  1.00  0.00     0.119 A 
HETATM   29  F   UNL     1       8.215  22.022  55.407  1.00  0.00    -0.206 F 
HETATM   30  C   UNL     1       6.708  23.793  55.016  1.00  0.00     0.050 A 
ENDBRANCH  12  23
TORSDOF 3
ENDMDL
MODEL 7
REMARK VINA RESULT:      -8.2      3.698      5.500
REMARK  3 active torsions:
REMARK  status: ('A' for Active; 'I' for Inactive)
REMARK    1  A    between atoms: C_4  and  C_5 
REMARK       I    between atoms: C_5  and  N_6 
REMARK    2  A    between atoms: C_16  and  C_17 
REMARK    3  A    between atoms: C_27  and  O_28 
ROOT
HETATM    1  C   UNL     1       7.129  25.501  56.525  1.00  0.00     0.275 C 
HETATM    2  N   UNL     1       6.997  26.589  55.651  1.00  0.00    -0.339 N 
HETATM    3  C   UNL     1       6.705  27.901  56.202  1.00  0.00     0.123 C 
HETATM    4  C   UNL     1       6.834  28.879  55.009  1.00  0.00     0.221 C 
HETATM    5  N   UNL     1       5.560  29.722  54.910  1.00  0.00    -0.064 N 
HETATM    6  H   UNL     1       5.639  30.373  54.116  1.00  0.00     0.280 HD
HETATM    7  C   UNL     1       4.263  28.941  54.759  1.00  0.00     0.236 C 
HETATM    8  C   UNL     1       4.212  27.858  55.830  1.00  0.00     0.034 C 
HETATM    9  C   UNL     1       5.322  28.081  56.867  1.00  0.00     0.014 C 
HETATM   10  C   UNL     1       5.228  29.545  57.360  1.00  0.00     0.034 C 
HETATM   11  C   UNL     1       5.439  30.534  56.202  1.00  0.00     0.236 C 
HETATM   12  C   UNL     1       7.288  28.042  53.780  1.00  0.00     0.070 C 
HETATM   13  C   UNL     1       7.794  26.742  54.436  1.00  0.00     0.138 C 
HETATM   14  O   UNL     1       6.966  25.646  57.740  1.00  0.00    -0.266 OA
ENDROOT
BRANCH   1  15
HETATM   15  C   UNL     1       7.486  24.136  56.016  1.00  0.00     0.157 A 
HETATM   16  N   UNL     1       7.041  23.800  54.776  1.00  0.00    -0.253 NA
HETATM   17  C   UNL     1       7.368  22.563  54.332  1.00  0.00     0.117 A 
HETATM   18  C   UNL     1       8.114  21.651  55.062  1.00  0.00     0.022 A 
HETATM   19  C   UNL     1       8.543  22.011  56.336  1.00  0.00     0.040 A 
HETATM   20  C   UNL     1       8.215  23.267  56.832  1.00  0.00     0.100 A 
BRANCH  20  21
HETATM   21  O   UNL     1       8.637  23.561  58.099  1.00  0.00    -0.358 OA
HETATM   22  H   UNL     1       9.609  23.424  58.143  1.00  0.00     0.218 HD
ENDBRANCH  20  21
ENDBRANCH   1  15
BRANCH  12  23
HETATM   23  C   UNL     1       6.332  27.843  52.622  1.00  0.00    -0.044 A 
HETATM   24  C   UNL     1       5.882  26.544  52.324  1.00  0.00     0.050 A 
HETATM   25  C   UNL     1       4.994  26.325  51.269  1.00  0.00     0.119 A 
HETATM   26  F   UNL     1       4.600  25.073  51.002  1.00  0.00    -0.206 F 
HETATM   27  C   UNL     1       4.525  27.371  50.491  1.00  0.00     0.084 A 
HETATM   28  C   UNL     1       4.953  28.655  50.788  1.00  0.00     0.119 A 
HETATM   29  F   UNL     1       4.524  29.681  50.044  1.00  0.00    -0.206 F 
HETATM   30  C   UNL     1       5.841  28.901  51.838  1.00  0.00     0.050 A 
ENDBRANCH  12  23
TORSDOF 3
ENDMDL
MODEL 8
REMARK VINA RESULT:      -7.8      3.249      5.397
REMARK  3 active torsions:
REMARK  status: ('A' for Active; 'I' for Inactive)
REMARK    1  A    between atoms: C_4  and  C_5 
REMARK       I    between atoms: C_5  and  N_6 
REMARK    2  A    between atoms: C_16  and  C_17 
REMARK    3  A    between atoms: C_27  and  O_28 
ROOT
HETATM    1  C   UNL     1       4.611  29.628  53.598  1.00  0.00     0.275 C 
HETATM    2  N   UNL     1       5.018  28.526  54.364  1.00  0.00    -0.339 N 
HETATM    3  C   UNL     1       5.490  28.751  55.719  1.00  0.00     0.123 C 
HETATM    4  C   UNL     1       5.650  27.337  56.331  1.00  0.00     0.221 C 
HETATM    5  N   UNL     1       7.060  27.198  56.913  1.00  0.00    -0.064 N 
HETATM    6  H   UNL     1       7.173  26.259  57.319  1.00  0.00     0.280 HD
HETATM    7  C   UNL     1       8.202  27.437  55.937  1.00  0.00     0.236 C 
HETATM    8  C   UNL     1       7.958  28.750  55.204  1.00  0.00     0.034 C 
HETATM    9  C   UNL     1       6.816  29.530  55.872  1.00  0.00     0.014 C 
HETATM   10  C   UNL     1       7.128  29.631  57.384  1.00  0.00     0.034 C 
HETATM   11  C   UNL     1       7.206  28.237  58.028  1.00  0.00     0.236 C 
HETATM   12  C   UNL     1       5.167  26.319  55.260  1.00  0.00     0.070 C 
HETATM   13  C   UNL     1       4.377  27.216  54.287  1.00  0.00     0.138 C 
HETATM   14  O   UNL     1       4.685  30.773  54.052  1.00  0.00    -0.266 OA
ENDROOT
BRANCH   1  15
HETATM   15  C   UNL     1       4.061  29.449  52.214  1.00  0.00     0.157 A 
HETATM   16  N   UNL     1       2.765  29.053  52.107  1.00  0.00    -0.253 NA
HETATM   17  C   UNL     1       2.285  28.892  50.851  1.00  0.00     0.117 A 
HETATM   18  C   UNL     1       3.031  29.107  49.703  1.00  0.00     0.022 A 
HETATM   19  C   UNL     1       4.361  29.494  49.839  1.00  0.00     0.040 A 
HETATM   20  C   UNL     1       4.895  29.656  51.111  1.00  0.00     0.100 A 
BRANCH  20  21
HETATM   21  O   UNL     1       6.212  30.011  51.189  1.00  0.00    -0.358 OA
HETATM   22  H   UNL     1       6.741  29.360  50.677  1.00  0.00     0.218 HD
ENDBRANCH  20  21
ENDBRANCH   1  15
BRANCH  12  23
HETATM   23  C   UNL     1       6.174  25.397  54.603  1.00  0.00    -0.044 A 
HETATM   24  C   UNL     1       6.584  24.237  55.284  1.00  0.00     0.050 A 
HETATM   25  C   UNL     1       7.504  23.361  54.705  1.00  0.00     0.119 A 
HETATM   26  F   UNL     1       7.885  22.276  55.390  1.00  0.00    -0.206 F 
HETATM   27  C   UNL     1       8.036  23.601  53.449  1.00  0.00     0.084 A 
HETATM   28  C   UNL     1       7.626  24.734  52.766  1.00  0.00     0.119 A 
HETATM   29  F   UNL     1       8.134  24.994  51.555  1.00  0.00    -0.206 F 
HETATM   30  C   UNL     1       6.707  25.626  53.322  1.00  0.00     0.050 A 
ENDBRANCH  12  23
TORSDOF 3
ENDMDL
MODEL 9
REMARK VINA RESULT:      -7.8      3.477      5.451
REMARK  3 active torsions:
REMARK  status: ('A' for Active; 'I' for Inactive)
REMARK    1  A    between atoms: C_4  and  C_5 
REMARK       I    between atoms: C_5  and  N_6 
REMARK    2  A    between atoms: C_16  and  C_17 
REMARK    3  A    between atoms: C_27  and  O_28 
ROOT
HETATM    1  C   UNL     1       7.537  25.163  55.853  1.00  0.00     0.275 C 
HETATM    2  N   UNL     1       7.259  26.344  55.150  1.00  0.00    -0.339 N 
HETATM    3  C   UNL     1       6.923  27.542  55.899  1.00  0.00     0.123 C 
HETATM    4  C   UNL     1       6.886  28.679  54.848  1.00  0.00     0.221 C 
HETATM    5  N   UNL     1       5.552  29.423  54.960  1.00  0.00    -0.064 N 
HETATM    6  H   UNL     1       5.521  30.178  54.261  1.00  0.00     0.280 HD
HETATM    7  C   UNL     1       4.304  28.568  54.795  1.00  0.00     0.236 C 
HETATM    8  C   UNL     1       4.417  27.351  55.705  1.00  0.00     0.034 C 
HETATM    9  C   UNL     1       5.590  27.521  56.681  1.00  0.00     0.014 C 
HETATM   10  C   UNL     1       5.436  28.894  57.379  1.00  0.00     0.034 C 
HETATM   11  C   UNL     1       5.483  30.042  56.358  1.00  0.00     0.236 C 
HETATM   12  C   UNL     1       7.294  28.053  53.485  1.00  0.00     0.070 C 
HETATM   13  C   UNL     1       7.940  26.721  53.915  1.00  0.00     0.138 C 
HETATM   14  O   UNL     1       7.465  25.130  57.084  1.00  0.00    -0.266 OA
ENDROOT
BRANCH   1  15
HETATM   15  C   UNL     1       7.945  23.911  55.133  1.00  0.00     0.157 A 
HETATM   16  N   UNL     1       9.112  23.328  55.514  1.00  0.00    -0.253 NA
HETATM   17  C   UNL     1       9.468  22.201  54.853  1.00  0.00     0.117 A 
HETATM   18  C   UNL     1       8.719  21.631  53.836  1.00  0.00     0.022 A 
HETATM   19  C   UNL     1       7.536  22.256  53.451  1.00  0.00     0.040 A 
HETATM   20  C   UNL     1       7.145  23.422  54.097  1.00  0.00     0.100 A 
BRANCH  20  21
HETATM   21  O   UNL     1       5.990  24.011  53.663  1.00  0.00    -0.358 OA
HETATM   22  H   UNL     1       5.236  23.621  54.157  1.00  0.00     0.218 HD
ENDBRANCH  20  21
ENDBRANCH   1  15
BRANCH  12  23
HETATM   23  C   UNL     1       6.262  27.934  52.383  1.00  0.00    -0.044 A 
HETATM   24  C   UNL     1       5.718  29.106  51.828  1.00  0.00     0.050 A 
HETATM   25  C   UNL     1       4.770  29.035  50.804  1.00  0.00     0.119 A 
HETATM   26  F   UNL     1       4.261  30.170  50.312  1.00  0.00    -0.206 F 
HETATM   27  C   UNL     1       4.342  27.817  50.302  1.00  0.00     0.084 A 
HETATM   28  C   UNL     1       4.884  26.658  50.834  1.00  0.00     0.119 A 
HETATM   29  F   UNL     1       4.477  25.469  50.374  1.00  0.00    -0.206 F 
HETATM   30  C   UNL     1       5.833  26.702  51.858  1.00  0.00     0.050 A 
ENDBRANCH  12  23
TORSDOF 3
ENDMDL
MODEL 10
REMARK VINA RESULT:      -7.6      3.077      6.440
REMARK  3 active torsions:
REMARK  status: ('A' for Active; 'I' for Inactive)
REMARK    1  A    between atoms: C_4  and  C_5 
REMARK       I    between atoms: C_5  and  N_6 
REMARK    2  A    between atoms: C_16  and  C_17 
REMARK    3  A    between atoms: C_27  and  O_28 
ROOT
HETATM    1  C   UNL     1       8.269  28.318  57.329  1.00  0.00     0.275 C 
HETATM    2  N   UNL     1       7.004  28.309  56.725  1.00  0.00    -0.339 N 
HETATM    3  C   UNL     1       6.564  27.108  56.037  1.00  0.00     0.123 C 
HETATM    4  C   UNL     1       5.079  27.366  55.681  1.00  0.00     0.221 C 
HETATM    5  N   UNL     1       4.869  27.114  54.186  1.00  0.00    -0.064 N 
HETATM    6  H   UNL     1       3.884  27.287  53.943  1.00  0.00     0.280 HD
HETATM    7  C   UNL     1       5.743  27.936  53.250  1.00  0.00     0.236 C 
HETATM    8  C   UNL     1       7.193  27.824  53.703  1.00  0.00     0.034 C 
HETATM    9  C   UNL     1       7.338  26.717  54.758  1.00  0.00     0.014 C 
HETATM   10  C   UNL     1       6.689  25.431  54.193  1.00  0.00     0.034 C 
HETATM   11  C   UNL     1       5.192  25.643  53.914  1.00  0.00     0.236 C 
HETATM   12  C   UNL     1       4.702  28.751  56.279  1.00  0.00     0.070 C 
HETATM   13  C   UNL     1       5.844  28.998  57.283  1.00  0.00     0.138 C 
HETATM   14  O   UNL     1       9.012  27.335  57.251  1.00  0.00    -0.266 OA
ENDROOT
BRANCH   1  15
HETATM   15  C   UNL     1       8.751  29.510  58.100  1.00  0.00     0.157 A 
HETATM   16  N   UNL     1       8.147  29.766  59.291  1.00  0.00    -0.253 NA
HETATM   17  C   UNL     1       8.590  30.848  59.973  1.00  0.00     0.117 A 
HETATM   18  C   UNL     1       9.604  31.683  59.528  1.00  0.00     0.022 A 
HETATM   19  C   UNL     1      10.195  31.411  58.298  1.00  0.00     0.040 A 
HETATM   20  C   UNL     1       9.757  30.317  57.561  1.00  0.00     0.100 A 
BRANCH  20  21
HETATM   21  O   UNL     1      10.352  30.110  56.348  1.00  0.00    -0.358 OA
HETATM   22  H   UNL     1      10.401  29.142  56.186  1.00  0.00     0.218 HD
ENDBRANCH  20  21
ENDBRANCH   1  15
BRANCH  12  23
HETATM   23  C   UNL     1       4.411  29.908  55.345  1.00  0.00    -0.044 A 
HETATM   24  C   UNL     1       4.964  31.170  55.629  1.00  0.00     0.050 A 
HETATM   25  C   UNL     1       4.724  32.257  54.786  1.00  0.00     0.119 A 
HETATM   26  F   UNL     1       5.251  33.447  55.096  1.00  0.00    -0.206 F 
HETATM   27  C   UNL     1       3.944  32.128  53.648  1.00  0.00     0.084 A 
HETATM   28  C   UNL     1       3.408  30.885  53.354  1.00  0.00     0.119 A 
HETATM   29  F   UNL     1       2.641  30.738  52.267  1.00  0.00    -0.206 F 
HETATM   30  C   UNL     1       3.633  29.783  54.181  1.00  0.00     0.050 A 
ENDBRANCH  12  23
TORSDOF 3
ENDMDL
