MODEL 1
REMARK VINA RESULT:      -8.4      0.000      0.000
REMARK  5 active torsions:
REMARK  status: ('A' for Active; 'I' for Inactive)
REMARK    1  A    between atoms: C_3  and  N_4 
REMARK       I    between atoms: N_4  and  C_5 
REMARK       I    between atoms: C_5  and  N_6 
REMARK    2  A    between atoms: N_6  and  C_7 
REMARK    3  A    between atoms: C_7  and  C_8 
REMARK    4  A    between atoms: C_8  and  O_9 
REMARK    5  A    between atoms: O_9  and  C_10 
ROOT
HETATM    1  N   UNL     1       7.749  28.209  57.234  1.00  0.00    -0.307 N 
HETATM    2  C   UNL     1       7.314  27.737  56.032  1.00  0.00     0.320 C 
HETATM    3  N   UNL     1       6.457  26.679  56.101  1.00  0.00    -0.340 N 
HETATM    4  O   UNL     1       7.570  28.208  54.930  1.00  0.00    -0.247 OA
HETATM    5  H   UNL     1       6.994  28.203  57.910  1.00  0.00     0.170 HD
HETATM    6  H   UNL     1       6.166  26.434  55.162  1.00  0.00     0.164 HD
ENDROOT
BRANCH   3   7
HETATM    7  C   UNL     1       6.466  25.559  57.044  1.00  0.00     0.156 C 
BRANCH   7   8
HETATM    8  C   UNL     1       7.477  24.412  56.820  1.00  0.00     0.142 C 
HETATM    9  C   UNL     1       8.788  24.756  57.529  1.00  0.00     0.042 C 
BRANCH   8  10
HETATM   10  O   UNL     1       7.695  24.289  55.410  1.00  0.00    -0.343 OA
BRANCH  10  11
HETATM   11  C   UNL     1       7.775  23.056  54.824  1.00  0.00     0.086 A 
HETATM   12  C   UNL     1       7.847  23.031  53.421  1.00  0.00     0.044 A 
HETATM   13 BR   UNL     1       7.856  24.634  52.400  1.00  0.00    -0.048 Br
HETATM   14  C   UNL     1       7.922  21.818  52.729  1.00  0.00     0.022 A 
HETATM   15  C   UNL     1       7.916  20.617  53.432  1.00  0.00     0.002 A 
HETATM   16  C   UNL     1       7.833  20.629  54.822  1.00  0.00     0.003 A 
HETATM   17  C   UNL     1       7.760  21.842  55.516  1.00  0.00     0.038 A 
ENDBRANCH  10  11
ENDBRANCH   8  10
ENDBRANCH   7   8
ENDBRANCH   3   7
BRANCH   1  18
HETATM   18  C   UNL     1       8.756  29.179  57.449  1.00  0.00     0.059 A 
HETATM   19  C   UNL     1       8.612  30.371  58.175  1.00  0.00    -0.032 A 
HETATM   20  C   UNL     1       7.337  30.832  58.823  1.00  0.00     0.050 C 
HETATM   21  C   UNL     1       9.734  31.210  58.303  1.00  0.00     0.028 A 
HETATM   22  C   UNL     1      10.918  30.875  57.666  1.00  0.00     0.117 A 
HETATM   23  N   UNL     1      11.069  29.772  56.910  1.00  0.00    -0.271 NA
HETATM   24  C   UNL     1       9.990  28.957  56.826  1.00  0.00     0.146 A 
ENDBRANCH   1  18
TORSDOF 5
ENDMDL
MODEL 2
REMARK VINA RESULT:      -8.3      2.097      2.858
REMARK  5 active torsions:
REMARK  status: ('A' for Active; 'I' for Inactive)
REMARK    1  A    between atoms: C_3  and  N_4 
REMARK       I    between atoms: N_4  and  C_5 
REMARK       I    between atoms: C_5  and  N_6 
REMARK    2  A    between atoms: N_6  and  C_7 
REMARK    3  A    between atoms: C_7  and  C_8 
REMARK    4  A    between atoms: C_8  and  O_9 
REMARK    5  A    between atoms: O_9  and  C_10 
ROOT
HETATM    1  N   UNL     1       7.425  27.964  54.872  1.00  0.00    -0.307 N 
HETATM    2  C   UNL     1       6.201  28.430  54.497  1.00  0.00     0.320 C 
HETATM    3  N   UNL     1       5.559  27.680  53.556  1.00  0.00    -0.340 N 
HETATM    4  O   UNL     1       5.618  29.402  54.963  1.00  0.00    -0.247 OA
HETATM    5  H   UNL     1       7.411  26.954  54.943  1.00  0.00     0.170 HD
HETATM    6  H   UNL     1       4.648  28.089  53.380  1.00  0.00     0.164 HD
ENDROOT
BRANCH   3   7
HETATM    7  C   UNL     1       6.131  26.962  52.417  1.00  0.00     0.156 C 
BRANCH   7   8
HETATM    8  C   UNL     1       6.216  25.420  52.481  1.00  0.00     0.142 C 
HETATM    9  C   UNL     1       4.844  24.860  52.863  1.00  0.00     0.042 C 
BRANCH   8  10
HETATM   10  O   UNL     1       7.185  25.076  53.479  1.00  0.00    -0.343 OA
BRANCH  10  11
HETATM   11  C   UNL     1       7.446  23.765  53.770  1.00  0.00     0.086 A 
HETATM   12  C   UNL     1       7.348  23.391  55.120  1.00  0.00     0.044 A 
HETATM   13 BR   UNL     1       6.854  24.643  56.463  1.00  0.00    -0.048 Br
HETATM   14  C   UNL     1       7.606  22.076  55.520  1.00  0.00     0.022 A 
HETATM   15  C   UNL     1       7.973  21.123  54.574  1.00  0.00     0.002 A 
HETATM   16  C   UNL     1       8.086  21.486  53.234  1.00  0.00     0.003 A 
HETATM   17  C   UNL     1       7.827  22.801  52.833  1.00  0.00     0.038 A 
ENDBRANCH  10  11
ENDBRANCH   8  10
ENDBRANCH   7   8
ENDBRANCH   3   7
BRANCH   1  18
HETATM   18  C   UNL     1       8.366  28.623  55.696  1.00  0.00     0.059 A 
HETATM   19  C   UNL     1       8.304  28.734  57.094  1.00  0.00    -0.032 A 
HETATM   20  C   UNL     1       7.195  28.191  57.949  1.00  0.00     0.050 C 
HETATM   21  C   UNL     1       9.346  29.411  57.752  1.00  0.00     0.028 A 
HETATM   22  C   UNL     1      10.360  29.998  57.012  1.00  0.00     0.117 A 
HETATM   23  N   UNL     1      10.413  29.964  55.668  1.00  0.00    -0.271 NA
HETATM   24  C   UNL     1       9.422  29.279  55.051  1.00  0.00     0.146 A 
ENDBRANCH   1  18
TORSDOF 5
ENDMDL
MODEL 3
REMARK VINA RESULT:      -8.2      2.467      8.008
REMARK  5 active torsions:
REMARK  status: ('A' for Active; 'I' for Inactive)
REMARK    1  A    between atoms: C_3  and  N_4 
REMARK       I    between atoms: N_4  and  C_5 
REMARK       I    between atoms: C_5  and  N_6 
REMARK    2  A    between atoms: N_6  and  C_7 
REMARK    3  A    between atoms: C_7  and  C_8 
REMARK    4  A    between atoms: C_8  and  O_9 
REMARK    5  A    between atoms: O_9  and  C_10 
ROOT
HETATM    1  N   UNL     1       7.254  24.098  56.034  1.00  0.00    -0.307 N 
HETATM    2  C   UNL     1       8.145  24.747  56.833  1.00  0.00     0.320 C 
HETATM    3  N   UNL     1       7.660  25.859  57.458  1.00  0.00    -0.340 N 
HETATM    4  O   UNL     1       9.292  24.395  57.080  1.00  0.00    -0.247 OA
HETATM    5  H   UNL     1       6.337  24.085  56.465  1.00  0.00     0.170 HD
HETATM    6  H   UNL     1       8.385  26.240  58.054  1.00  0.00     0.164 HD
ENDROOT
BRANCH   3   7
HETATM    7  C   UNL     1       6.711  26.850  56.948  1.00  0.00     0.156 C 
BRANCH   7   8
HETATM    8  C   UNL     1       7.261  28.185  56.398  1.00  0.00     0.142 C 
HETATM    9  C   UNL     1       7.630  28.002  54.924  1.00  0.00     0.042 C 
BRANCH   8  10
HETATM   10  O   UNL     1       8.425  28.527  57.159  1.00  0.00    -0.343 OA
BRANCH  10  11
HETATM   11  C   UNL     1       8.450  29.667  57.915  1.00  0.00     0.086 A 
HETATM   12  C   UNL     1       9.680  30.339  57.997  1.00  0.00     0.044 A 
HETATM   13 BR   UNL     1      11.221  29.702  57.082  1.00  0.00    -0.048 Br
HETATM   14  C   UNL     1       9.810  31.508  58.753  1.00  0.00     0.022 A 
HETATM   15  C   UNL     1       8.712  32.013  59.443  1.00  0.00     0.002 A 
HETATM   16  C   UNL     1       7.490  31.348  59.380  1.00  0.00     0.003 A 
HETATM   17  C   UNL     1       7.359  30.179  58.622  1.00  0.00     0.038 A 
ENDBRANCH  10  11
ENDBRANCH   8  10
ENDBRANCH   7   8
ENDBRANCH   3   7
BRANCH   1  18
HETATM   18  C   UNL     1       7.530  23.027  55.152  1.00  0.00     0.059 A 
HETATM   19  C   UNL     1       7.688  23.123  53.761  1.00  0.00    -0.032 A 
HETATM   20  C   UNL     1       7.553  24.392  52.968  1.00  0.00     0.050 C 
HETATM   21  C   UNL     1       7.983  21.949  53.045  1.00  0.00     0.028 A 
HETATM   22  C   UNL     1       8.047  20.736  53.711  1.00  0.00     0.117 A 
HETATM   23  N   UNL     1       7.838  20.602  55.033  1.00  0.00    -0.271 NA
HETATM   24  C   UNL     1       7.590  21.745  55.714  1.00  0.00     0.146 A 
ENDBRANCH   1  18
TORSDOF 5
ENDMDL
MODEL 4
REMARK VINA RESULT:      -8.2      2.009      2.806
REMARK  5 active torsions:
REMARK  status: ('A' for Active; 'I' for Inactive)
REMARK    1  A    between atoms: C_3  and  N_4 
REMARK       I    between atoms: N_4  and  C_5 
REMARK       I    between atoms: C_5  and  N_6 
REMARK    2  A    between atoms: N_6  and  C_7 
REMARK    3  A    between atoms: C_7  and  C_8 
REMARK    4  A    between atoms: C_8  and  O_9 
REMARK    5  A    between atoms: O_9  and  C_10 
ROOT
HETATM    1  N   UNL     1       8.483  28.040  56.743  1.00  0.00    -0.307 N 
HETATM    2  C   UNL     1       8.002  26.858  57.217  1.00  0.00     0.320 C 
HETATM    3  N   UNL     1       7.791  25.897  56.272  1.00  0.00    -0.340 N 
HETATM    4  O   UNL     1       7.806  26.571  58.392  1.00  0.00    -0.247 OA
HETATM    5  H   UNL     1       9.170  27.876  56.016  1.00  0.00     0.170 HD
HETATM    6  H   UNL     1       7.474  25.052  56.732  1.00  0.00     0.164 HD
ENDROOT
BRANCH   3   7
HETATM    7  C   UNL     1       7.307  26.059  54.900  1.00  0.00     0.156 C 
BRANCH   7   8
HETATM    8  C   UNL     1       6.996  24.792  54.071  1.00  0.00     0.142 C 
HETATM    9  C   UNL     1       5.531  24.829  53.632  1.00  0.00     0.042 C 
BRANCH   8  10
HETATM   10  O   UNL     1       7.233  23.653  54.906  1.00  0.00    -0.343 OA
BRANCH  10  11
HETATM   11  C   UNL     1       7.694  22.482  54.370  1.00  0.00     0.086 A 
HETATM   12  C   UNL     1       8.180  21.525  55.276  1.00  0.00     0.044 A 
HETATM   13 BR   UNL     1       8.171  21.840  57.151  1.00  0.00    -0.048 Br
HETATM   14  C   UNL     1       8.682  20.301  54.825  1.00  0.00     0.022 A 
HETATM   15  C   UNL     1       8.712  20.024  53.462  1.00  0.00     0.002 A 
HETATM   16  C   UNL     1       8.245  20.970  52.553  1.00  0.00     0.003 A 
HETATM   17  C   UNL     1       7.741  22.195  53.003  1.00  0.00     0.038 A 
ENDBRANCH  10  11
ENDBRANCH   8  10
ENDBRANCH   7   8
ENDBRANCH   3   7
BRANCH   1  18
HETATM   18  C   UNL     1       8.636  29.244  57.468  1.00  0.00     0.059 A 
HETATM   19  C   UNL     1       9.813  30.001  57.574  1.00  0.00    -0.032 A 
HETATM   20  C   UNL     1      11.129  29.631  56.952  1.00  0.00     0.050 C 
HETATM   21  C   UNL     1       9.772  31.190  58.325  1.00  0.00     0.028 A 
HETATM   22  C   UNL     1       8.606  31.546  58.984  1.00  0.00     0.117 A 
HETATM   23  N   UNL     1       7.481  30.810  58.954  1.00  0.00    -0.271 NA
HETATM   24  C   UNL     1       7.525  29.687  58.198  1.00  0.00     0.146 A 
ENDBRANCH   1  18
TORSDOF 5
ENDMDL
MODEL 5
REMARK VINA RESULT:      -8.1      3.214      4.834
REMARK  5 active torsions:
REMARK  status: ('A' for Active; 'I' for Inactive)
REMARK    1  A    between atoms: C_3  and  N_4 
REMARK       I    between atoms: N_4  and  C_5 
REMARK       I    between atoms: C_5  and  N_6 
REMARK    2  A    between atoms: N_6  and  C_7 
REMARK    3  A    between atoms: C_7  and  C_8 
REMARK    4  A    between atoms: C_8  and  O_9 
REMARK    5  A    between atoms: O_9  and  C_10 
ROOT
HETATM    1  N   UNL     1       5.694  26.789  54.283  1.00  0.00    -0.307 N 
HETATM    2  C   UNL     1       4.996  27.239  55.362  1.00  0.00     0.320 C 
HETATM    3  N   UNL     1       5.233  26.569  56.526  1.00  0.00    -0.340 N 
HETATM    4  O   UNL     1       4.241  28.204  55.389  1.00  0.00    -0.247 OA
HETATM    5  H   UNL     1       6.641  26.546  54.551  1.00  0.00     0.170 HD
HETATM    6  H   UNL     1       4.699  27.006  57.268  1.00  0.00     0.164 HD
ENDROOT
BRANCH   3   7
HETATM    7  C   UNL     1       5.485  25.141  56.721  1.00  0.00     0.156 C 
BRANCH   7   8
HETATM    8  C   UNL     1       6.948  24.643  56.738  1.00  0.00     0.142 C 
HETATM    9  C   UNL     1       7.841  25.738  57.326  1.00  0.00     0.042 C 
BRANCH   8  10
HETATM   10  O   UNL     1       7.332  24.365  55.387  1.00  0.00    -0.343 OA
BRANCH  10  11
HETATM   11  C   UNL     1       7.596  23.084  54.989  1.00  0.00     0.086 A 
HETATM   12  C   UNL     1       7.938  22.903  53.638  1.00  0.00     0.044 A 
HETATM   13 BR   UNL     1       8.047  24.374  52.438  1.00  0.00    -0.048 Br
HETATM   14  C   UNL     1       8.216  21.630  53.133  1.00  0.00     0.022 A 
HETATM   15  C   UNL     1       8.147  20.521  53.972  1.00  0.00     0.002 A 
HETATM   16  C   UNL     1       7.797  20.686  55.310  1.00  0.00     0.003 A 
HETATM   17  C   UNL     1       7.521  21.960  55.816  1.00  0.00     0.038 A 
ENDBRANCH  10  11
ENDBRANCH   8  10
ENDBRANCH   7   8
ENDBRANCH   3   7
BRANCH   1  18
HETATM   18  C   UNL     1       5.523  27.187  52.937  1.00  0.00     0.059 A 
HETATM   19  C   UNL     1       5.043  26.382  51.892  1.00  0.00    -0.032 A 
HETATM   20  C   UNL     1       4.661  24.936  52.030  1.00  0.00     0.050 C 
HETATM   21  C   UNL     1       4.918  26.957  50.615  1.00  0.00     0.028 A 
HETATM   22  C   UNL     1       5.325  28.266  50.408  1.00  0.00     0.117 A 
HETATM   23  N   UNL     1       5.848  29.043  51.374  1.00  0.00    -0.271 NA
HETATM   24  C   UNL     1       5.929  28.486  52.605  1.00  0.00     0.146 A 
ENDBRANCH   1  18
TORSDOF 5
ENDMDL
MODEL 6
REMARK VINA RESULT:      -8.1      5.327      7.508
REMARK  5 active torsions:
REMARK  status: ('A' for Active; 'I' for Inactive)
REMARK    1  A    between atoms: C_3  and  N_4 
REMARK       I    between atoms: N_4  and  C_5 
REMARK       I    between atoms: C_5  and  N_6 
REMARK    2  A    between atoms: N_6  and  C_7 
REMARK    3  A    between atoms: C_7  and  C_8 
REMARK    4  A    between atoms: C_8  and  O_9 
REMARK    5  A    between atoms: O_9  and  C_10 
ROOT
HETATM    1  N   UNL     1       5.383  26.695  50.008  1.00  0.00    -0.307 N 
HETATM    2  C   UNL     1       5.227  27.118  51.294  1.00  0.00     0.320 C 
HETATM    3  N   UNL     1       6.236  26.773  52.144  1.00  0.00    -0.340 N 
HETATM    4  O   UNL     1       4.315  27.814  51.725  1.00  0.00    -0.247 OA
HETATM    5  H   UNL     1       6.350  26.789  49.721  1.00  0.00     0.170 HD
HETATM    6  H   UNL     1       6.042  27.167  53.057  1.00  0.00     0.164 HD
ENDROOT
BRANCH   3   7
HETATM    7  C   UNL     1       7.022  25.538  52.172  1.00  0.00     0.156 C 
BRANCH   7   8
HETATM    8  C   UNL     1       6.698  24.480  53.249  1.00  0.00     0.142 C 
HETATM    9  C   UNL     1       5.813  25.116  54.324  1.00  0.00     0.042 C 
BRANCH   8  10
HETATM   10  O   UNL     1       7.936  24.044  53.823  1.00  0.00    -0.343 OA
BRANCH  10  11
HETATM   11  C   UNL     1       8.157  22.718  54.073  1.00  0.00     0.086 A 
HETATM   12  C   UNL     1       8.459  22.371  55.400  1.00  0.00     0.044 A 
HETATM   13 BR   UNL     1       8.533  23.683  56.775  1.00  0.00    -0.048 Br
HETATM   14  C   UNL     1       8.711  21.043  55.755  1.00  0.00     0.022 A 
HETATM   15  C   UNL     1       8.672  20.046  54.784  1.00  0.00     0.002 A 
HETATM   16  C   UNL     1       8.385  20.379  53.463  1.00  0.00     0.003 A 
HETATM   17  C   UNL     1       8.131  21.708  53.107  1.00  0.00     0.038 A 
ENDBRANCH  10  11
ENDBRANCH   8  10
ENDBRANCH   7   8
ENDBRANCH   3   7
BRANCH   1  18
HETATM   18  C   UNL     1       4.427  26.771  48.970  1.00  0.00     0.059 A 
HETATM   19  C   UNL     1       4.129  27.908  48.202  1.00  0.00    -0.032 A 
HETATM   20  C   UNL     1       4.764  29.256  48.386  1.00  0.00     0.050 C 
HETATM   21  C   UNL     1       3.157  27.790  47.192  1.00  0.00     0.028 A 
HETATM   22  C   UNL     1       2.483  26.591  47.023  1.00  0.00     0.117 A 
HETATM   23  N   UNL     1       2.701  25.503  47.784  1.00  0.00    -0.271 NA
HETATM   24  C   UNL     1       3.663  25.621  48.729  1.00  0.00     0.146 A 
ENDBRANCH   1  18
TORSDOF 5
ENDMDL
MODEL 7
REMARK VINA RESULT:      -8.0      2.320      3.260
REMARK  5 active torsions:
REMARK  status: ('A' for Active; 'I' for Inactive)
REMARK    1  A    between atoms: C_3  and  N_4 
REMARK       I    between atoms: N_4  and  C_5 
REMARK       I    between atoms: C_5  and  N_6 
REMARK    2  A    between atoms: N_6  and  C_7 
REMARK    3  A    between atoms: C_7  and  C_8 
REMARK    4  A    between atoms: C_8  and  O_9 
REMARK    5  A    between atoms: O_9  and  C_10 
ROOT
HETATM    1  N   UNL     1       4.584  28.183  56.752  1.00  0.00    -0.307 N 
HETATM    2  C   UNL     1       4.984  27.586  55.595  1.00  0.00     0.320 C 
HETATM    3  N   UNL     1       5.050  26.224  55.638  1.00  0.00    -0.340 N 
HETATM    4  O   UNL     1       5.225  28.147  54.533  1.00  0.00    -0.247 OA
HETATM    5  H   UNL     1       3.841  27.647  57.187  1.00  0.00     0.170 HD
HETATM    6  H   UNL     1       5.317  25.882  54.722  1.00  0.00     0.164 HD
ENDROOT
BRANCH   3   7
HETATM    7  C   UNL     1       5.462  25.366  56.749  1.00  0.00     0.156 C 
BRANCH   7   8
HETATM    8  C   UNL     1       6.897  24.793  56.749  1.00  0.00     0.142 C 
HETATM    9  C   UNL     1       7.832  25.787  57.441  1.00  0.00     0.042 C 
BRANCH   8  10
HETATM   10  O   UNL     1       7.295  24.609  55.385  1.00  0.00    -0.343 OA
BRANCH  10  11
HETATM   11  C   UNL     1       7.541  23.356  54.896  1.00  0.00     0.086 A 
HETATM   12  C   UNL     1       7.739  23.250  53.510  1.00  0.00     0.044 A 
HETATM   13 BR   UNL     1       7.688  24.780  52.381  1.00  0.00    -0.048 Br
HETATM   14  C   UNL     1       7.988  22.011  52.913  1.00  0.00     0.022 A 
HETATM   15  C   UNL     1       8.033  20.861  53.696  1.00  0.00     0.002 A 
HETATM   16  C   UNL     1       7.825  20.951  55.070  1.00  0.00     0.003 A 
HETATM   17  C   UNL     1       7.578  22.192  55.668  1.00  0.00     0.038 A 
ENDBRANCH  10  11
ENDBRANCH   8  10
ENDBRANCH   7   8
ENDBRANCH   3   7
BRANCH   1  18
HETATM   18  C   UNL     1       4.585  29.568  57.035  1.00  0.00     0.059 A 
HETATM   19  C   UNL     1       5.673  30.312  57.516  1.00  0.00    -0.032 A 
HETATM   20  C   UNL     1       7.023  29.741  57.845  1.00  0.00     0.050 C 
HETATM   21  C   UNL     1       5.495  31.692  57.721  1.00  0.00     0.028 A 
HETATM   22  C   UNL     1       4.251  32.264  57.505  1.00  0.00     0.117 A 
HETATM   23  N   UNL     1       3.172  31.566  57.106  1.00  0.00    -0.271 NA
HETATM   24  C   UNL     1       3.369  30.246  56.880  1.00  0.00     0.146 A 
ENDBRANCH   1  18
TORSDOF 5
ENDMDL
MODEL 8
REMARK VINA RESULT:      -7.9      4.098      5.827
REMARK  5 active torsions:
REMARK  status: ('A' for Active; 'I' for Inactive)
REMARK    1  A    between atoms: C_3  and  N_4 
REMARK       I    between atoms: N_4  and  C_5 
REMARK       I    between atoms: C_5  and  N_6 
REMARK    2  A    between atoms: N_6  and  C_7 
REMARK    3  A    between atoms: C_7  and  C_8 
REMARK    4  A    between atoms: C_8  and  O_9 
REMARK    5  A    between atoms: O_9  and  C_10 
ROOT
HETATM    1  N   UNL     1       5.651  27.714  52.291  1.00  0.00    -0.307 N 
HETATM    2  C   UNL     1       4.766  27.684  53.326  1.00  0.00     0.320 C 
HETATM    3  N   UNL     1       5.325  27.536  54.561  1.00  0.00    -0.340 N 
HETATM    4  O   UNL     1       3.553  27.835  53.251  1.00  0.00    -0.247 OA
HETATM    5  H   UNL     1       6.476  28.243  52.547  1.00  0.00     0.170 HD
HETATM    6  H   UNL     1       4.590  27.566  55.257  1.00  0.00     0.164 HD
ENDROOT
BRANCH   3   7
HETATM    7  C   UNL     1       6.490  26.737  54.945  1.00  0.00     0.156 C 
BRANCH   7   8
HETATM    8  C   UNL     1       6.278  25.254  55.322  1.00  0.00     0.142 C 
HETATM    9  C   UNL     1       5.679  25.177  56.728  1.00  0.00     0.042 C 
BRANCH   8  10
HETATM   10  O   UNL     1       7.555  24.607  55.292  1.00  0.00    -0.343 OA
BRANCH  10  11
HETATM   11  C   UNL     1       7.671  23.317  54.851  1.00  0.00     0.086 A 
HETATM   12  C   UNL     1       7.808  23.138  53.465  1.00  0.00     0.044 A 
HETATM   13 BR   UNL     1       7.853  24.618  52.273  1.00  0.00    -0.048 Br
HETATM   14  C   UNL     1       7.923  21.857  52.916  1.00  0.00     0.022 A 
HETATM   15  C   UNL     1       7.893  20.741  53.747  1.00  0.00     0.002 A 
HETATM   16  C   UNL     1       7.745  20.906  55.122  1.00  0.00     0.003 A 
HETATM   17  C   UNL     1       7.632  22.187  55.673  1.00  0.00     0.038 A 
ENDBRANCH  10  11
ENDBRANCH   8  10
ENDBRANCH   7   8
ENDBRANCH   3   7
BRANCH   1  18
HETATM   18  C   UNL     1       5.340  27.694  50.911  1.00  0.00     0.059 A 
HETATM   19  C   UNL     1       5.326  28.803  50.051  1.00  0.00    -0.032 A 
HETATM   20  C   UNL     1       5.611  30.217  50.471  1.00  0.00     0.050 C 
HETATM   21  C   UNL     1       5.013  28.589  48.697  1.00  0.00     0.028 A 
HETATM   22  C   UNL     1       4.671  27.318  48.264  1.00  0.00     0.117 A 
HETATM   23  N   UNL     1       4.613  26.247  49.076  1.00  0.00    -0.271 NA
HETATM   24  C   UNL     1       4.951  26.463  50.369  1.00  0.00     0.146 A 
ENDBRANCH   1  18
TORSDOF 5
ENDMDL
MODEL 9
REMARK VINA RESULT:      -7.9      3.336      4.691
REMARK  5 active torsions:
REMARK  status: ('A' for Active; 'I' for Inactive)
REMARK    1  A    between atoms: C_3  and  N_4 
REMARK       I    between atoms: N_4  and  C_5 
REMARK       I    between atoms: C_5  and  N_6 
REMARK    2  A    between atoms: N_6  and  C_7 
REMARK    3  A    between atoms: C_7  and  C_8 
REMARK    4  A    between atoms: C_8  and  O_9 
REMARK    5  A    between atoms: O_9  and  C_10 
ROOT
HETATM    1  N   UNL     1       7.440  30.849  59.684  1.00  0.00    -0.307 N 
HETATM    2  C   UNL     1       8.367  30.910  58.688  1.00  0.00     0.320 C 
HETATM    3  N   UNL     1       8.230  29.969  57.710  1.00  0.00    -0.340 N 
HETATM    4  O   UNL     1       9.250  31.751  58.566  1.00  0.00    -0.247 OA
HETATM    5  H   UNL     1       6.526  30.634  59.303  1.00  0.00     0.170 HD
HETATM    6  H   UNL     1       8.939  30.127  57.004  1.00  0.00     0.164 HD
ENDROOT
BRANCH   3   7
HETATM    7  C   UNL     1       7.806  28.574  57.841  1.00  0.00     0.156 C 
BRANCH   7   8
HETATM    8  C   UNL     1       6.679  28.054  56.922  1.00  0.00     0.142 C 
HETATM    9  C   UNL     1       5.366  28.741  57.305  1.00  0.00     0.042 C 
BRANCH   8  10
HETATM   10  O   UNL     1       6.571  26.639  57.117  1.00  0.00    -0.343 OA
BRANCH  10  11
HETATM   11  C   UNL     1       6.549  25.789  56.046  1.00  0.00     0.086 A 
HETATM   12  C   UNL     1       7.540  24.795  56.013  1.00  0.00     0.044 A 
HETATM   13 BR   UNL     1       8.827  24.632  57.403  1.00  0.00    -0.048 Br
HETATM   14  C   UNL     1       7.608  23.885  54.955  1.00  0.00     0.022 A 
HETATM   15  C   UNL     1       6.690  23.964  53.912  1.00  0.00     0.002 A 
HETATM   16  C   UNL     1       5.710  24.954  53.926  1.00  0.00     0.003 A 
HETATM   17  C   UNL     1       5.640  25.864  54.987  1.00  0.00     0.038 A 
ENDBRANCH  10  11
ENDBRANCH   8  10
ENDBRANCH   7   8
ENDBRANCH   3   7
BRANCH   1  18
HETATM   18  C   UNL     1       7.443  31.588  60.890  1.00  0.00     0.059 A 
HETATM   19  C   UNL     1       8.297  31.381  61.984  1.00  0.00    -0.032 A 
HETATM   20  C   UNL     1       9.341  30.304  62.064  1.00  0.00     0.050 C 
HETATM   21  C   UNL     1       8.169  32.232  63.096  1.00  0.00     0.028 A 
HETATM   22  C   UNL     1       7.175  33.198  63.111  1.00  0.00     0.117 A 
HETATM   23  N   UNL     1       6.300  33.379  62.105  1.00  0.00    -0.271 NA
HETATM   24  C   UNL     1       6.459  32.576  61.027  1.00  0.00     0.146 A 
ENDBRANCH   1  18
TORSDOF 5
ENDMDL
MODEL 10
REMARK VINA RESULT:      -7.9      5.679      7.934
REMARK  5 active torsions:
REMARK  status: ('A' for Active; 'I' for Inactive)
REMARK    1  A    between atoms: C_3  and  N_4 
REMARK       I    between atoms: N_4  and  C_5 
REMARK       I    between atoms: C_5  and  N_6 
REMARK    2  A    between atoms: N_6  and  C_7 
REMARK    3  A    between atoms: C_7  and  C_8 
REMARK    4  A    between atoms: C_8  and  O_9 
REMARK    5  A    between atoms: O_9  and  C_10 
ROOT
HETATM    1  N   UNL     1       4.766  27.003  49.611  1.00  0.00    -0.307 N 
HETATM    2  C   UNL     1       4.793  27.396  50.915  1.00  0.00     0.320 C 
HETATM    3  N   UNL     1       5.823  26.890  51.651  1.00  0.00    -0.340 N 
HETATM    4  O   UNL     1       4.029  28.190  51.451  1.00  0.00    -0.247 OA
HETATM    5  H   UNL     1       5.705  26.978  49.230  1.00  0.00     0.170 HD
HETATM    6  H   UNL     1       5.772  27.273  52.588  1.00  0.00     0.164 HD
ENDROOT
BRANCH   3   7
HETATM    7  C   UNL     1       6.434  25.562  51.572  1.00  0.00     0.156 C 
BRANCH   7   8
HETATM    8  C   UNL     1       6.093  24.525  52.665  1.00  0.00     0.142 C 
HETATM    9  C   UNL     1       5.045  25.120  53.609  1.00  0.00     0.042 C 
BRANCH   8  10
HETATM   10  O   UNL     1       7.297  24.234  53.384  1.00  0.00    -0.343 OA
BRANCH  10  11
HETATM   11  C   UNL     1       7.558  22.962  53.816  1.00  0.00     0.086 A 
HETATM   12  C   UNL     1       7.639  22.775  55.205  1.00  0.00     0.044 A 
HETATM   13 BR   UNL     1       7.374  24.216  56.417  1.00  0.00    -0.048 Br
HETATM   14  C   UNL     1       7.911  21.514  55.744  1.00  0.00     0.022 A 
HETATM   15  C   UNL     1       8.116  20.428  54.899  1.00  0.00     0.002 A 
HETATM   16  C   UNL     1       8.051  20.604  53.519  1.00  0.00     0.003 A 
HETATM   17  C   UNL     1       7.776  21.865  52.978  1.00  0.00     0.038 A 
ENDBRANCH  10  11
ENDBRANCH   8  10
ENDBRANCH   7   8
ENDBRANCH   3   7
BRANCH   1  18
HETATM   18  C   UNL     1       3.733  27.242  48.675  1.00  0.00     0.059 A 
HETATM   19  C   UNL     1       2.968  26.264  48.021  1.00  0.00    -0.032 A 
HETATM   20  C   UNL     1       3.149  24.782  48.188  1.00  0.00     0.050 C 
HETATM   21  C   UNL     1       1.963  26.690  47.134  1.00  0.00     0.028 A 
HETATM   22  C   UNL     1       1.798  28.043  46.883  1.00  0.00     0.117 A 
HETATM   23  N   UNL     1       2.556  29.001  47.445  1.00  0.00    -0.271 NA
HETATM   24  C   UNL     1       3.496  28.577  48.323  1.00  0.00     0.146 A 
ENDBRANCH   1  18
TORSDOF 5
ENDMDL
