MODEL 1
REMARK VINA RESULT:      -9.7      0.000      0.000
REMARK  7 active torsions:
REMARK  status: ('A' for Active; 'I' for Inactive)
REMARK    1  A    between atoms: N_2  and  C_4 
REMARK    2  A    between atoms: C_4  and  C_5 
REMARK    3  A    between atoms: C_5  and  C_6 
REMARK    4  A    between atoms: C_6  and  N_7 
REMARK    5  A    between atoms: N_7  and  C_8 
REMARK    6  A    between atoms: C_23  and  N_24 
REMARK    7  A    between atoms: N_27  and  C_29 
ROOT
HETATM    1  C   UNL     1       5.900  31.513  58.166  1.00  0.00     0.025 A 
HETATM    2  C   UNL     1       6.283  31.896  59.467  1.00  0.00     0.052 A 
HETATM    3  C   UNL     1       7.382  31.192  59.891  1.00  0.00     0.050 A 
HETATM    4  C   UNL     1       7.905  31.413  61.118  1.00  0.00     0.126 A 
HETATM    5  C   UNL     1       7.444  32.366  62.095  1.00  0.00     0.015 A 
HETATM    6  C   UNL     1       6.301  33.123  61.722  1.00  0.00     0.028 A 
HETATM    7  C   UNL     1       5.650  32.879  60.380  1.00  0.00     0.196 A 
HETATM    8  O   UNL     1       4.617  33.441  60.031  1.00  0.00    -0.287 OA
HETATM    9  C   UNL     1       8.053  32.583  63.329  1.00  0.00     0.015 A 
HETATM   10  C   UNL     1       7.526  33.552  64.190  1.00  0.00     0.001 A 
HETATM   11  C   UNL     1       6.399  34.297  63.822  1.00  0.00     0.001 A 
HETATM   12  C   UNL     1       5.781  34.084  62.587  1.00  0.00     0.016 A 
HETATM   13  C   UNL     1       8.158  30.204  59.243  1.00  0.00     0.125 A 
HETATM   14  N   UNL     1       9.112  29.804  60.121  1.00  0.00    -0.125 NA
HETATM   15  O   UNL     1       8.958  30.580  61.285  1.00  0.00    -0.211 OA
HETATM   16  C   UNL     1       7.842  29.804  57.909  1.00  0.00     0.064 A 
HETATM   17  C   UNL     1       6.686  30.535  57.429  1.00  0.00     0.056 A 
ENDROOT
BRANCH  16  18
HETATM   18  N   UNL     1       8.545  28.915  57.090  1.00  0.00    -0.376 N 
HETATM   19  C   UNL     1       8.650  29.198  55.651  1.00  0.00     0.150 C 
HETATM   20  C   UNL     1       7.510  28.514  54.863  1.00  0.00     0.255 C 
HETATM   21  N   UNL     1       7.458  26.998  55.131  1.00  0.00    -0.064 N 
HETATM   22  H   UNL     1       8.361  26.606  54.838  1.00  0.00     0.280 HD
HETATM   23  C   UNL     1       7.360  26.757  56.661  1.00  0.00     0.255 C 
HETATM   24  C   UNL     1       8.516  27.472  57.399  1.00  0.00     0.150 C 
BRANCH  21  25
HETATM   25  C   UNL     1       6.345  26.293  54.334  1.00  0.00     0.188 C 
HETATM   26  C   UNL     1       6.650  26.303  52.823  1.00  0.00     0.033 C 
HETATM   27  C   UNL     1       7.886  25.478  52.463  1.00  0.00     0.002 C 
HETATM   28  C   UNL     1       7.764  24.041  52.964  1.00  0.00     0.000 C 
HETATM   29  C   UNL     1       7.399  23.967  54.446  1.00  0.00     0.002 C 
HETATM   30  C   UNL     1       6.176  24.827  54.770  1.00  0.00     0.033 C 
ENDBRANCH  21  25
ENDBRANCH  16  18
BRANCH   1  31
HETATM   31  N   UNL     1       4.800  32.178  57.556  1.00  0.00    -0.292 NA
HETATM   32  H   UNL     1       3.974  31.569  57.690  1.00  0.00     0.127 HD
BRANCH  31  33
HETATM   33  C   UNL     1       4.974  32.599  56.171  1.00  0.00     0.094 C 
BRANCH  33  34
HETATM   34  C   UNL     1       3.639  32.518  55.424  1.00  0.00     0.042 C 
BRANCH  34  35
HETATM   35  C   UNL     1       3.017  31.125  55.499  1.00  0.00     0.235 C 
BRANCH  35  36
HETATM   36  N   UNL     1       4.015  30.067  55.053  1.00  0.00    -0.079 N 
HETATM   37  C   UNL     1       3.925  29.718  53.592  1.00  0.00     0.269 C 
HETATM   38  H   UNL     1       4.959  30.440  55.223  1.00  0.00     0.278 HD
HETATM   39  C   UNL     1       3.910  28.826  55.905  1.00  0.00     0.269 C 
ENDBRANCH  35  36
ENDBRANCH  34  35
ENDBRANCH  33  34
ENDBRANCH  31  33
ENDBRANCH   1  31
TORSDOF 7
ENDMDL
MODEL 2
REMARK VINA RESULT:      -9.6      4.150      9.074
REMARK  7 active torsions:
REMARK  status: ('A' for Active; 'I' for Inactive)
REMARK    1  A    between atoms: N_2  and  C_4 
REMARK    2  A    between atoms: C_4  and  C_5 
REMARK    3  A    between atoms: C_5  and  C_6 
REMARK    4  A    between atoms: C_6  and  N_7 
REMARK    5  A    between atoms: N_7  and  C_8 
REMARK    6  A    between atoms: C_23  and  N_24 
REMARK    7  A    between atoms: N_27  and  C_29 
ROOT
HETATM    1  C   UNL     1       5.074  27.281  55.447  1.00  0.00     0.025 A 
HETATM    2  C   UNL     1       5.729  26.125  54.978  1.00  0.00     0.052 A 
HETATM    3  C   UNL     1       5.738  26.077  53.607  1.00  0.00     0.050 A 
HETATM    4  C   UNL     1       6.320  25.041  52.962  1.00  0.00     0.126 A 
HETATM    5  C   UNL     1       6.994  23.917  53.562  1.00  0.00     0.015 A 
HETATM    6  C   UNL     1       7.011  23.901  54.982  1.00  0.00     0.028 A 
HETATM    7  C   UNL     1       6.333  25.011  55.751  1.00  0.00     0.196 A 
HETATM    8  O   UNL     1       6.244  25.015  56.974  1.00  0.00    -0.287 OA
HETATM    9  C   UNL     1       7.616  22.899  52.843  1.00  0.00     0.015 A 
HETATM   10  C   UNL     1       8.257  21.868  53.537  1.00  0.00     0.001 A 
HETATM   11  C   UNL     1       8.274  21.851  54.936  1.00  0.00     0.001 A 
HETATM   12  C   UNL     1       7.650  22.867  55.665  1.00  0.00     0.016 A 
HETATM   13  C   UNL     1       5.231  26.979  52.644  1.00  0.00     0.125 A 
HETATM   14  N   UNL     1       5.470  26.437  51.423  1.00  0.00    -0.125 NA
HETATM   15  O   UNL     1       6.169  25.234  51.631  1.00  0.00    -0.211 OA
HETATM   16  C   UNL     1       4.593  28.187  53.058  1.00  0.00     0.064 A 
HETATM   17  C   UNL     1       4.572  28.270  54.505  1.00  0.00     0.056 A 
ENDROOT
BRANCH  16  18
HETATM   18  N   UNL     1       4.115  29.226  52.252  1.00  0.00    -0.376 N 
HETATM   19  C   UNL     1       2.810  29.076  51.590  1.00  0.00     0.150 C 
HETATM   20  C   UNL     1       2.969  28.484  50.172  1.00  0.00     0.255 C 
HETATM   21  N   UNL     1       3.939  29.313  49.310  1.00  0.00    -0.064 N 
HETATM   22  H   UNL     1       3.553  30.263  49.245  1.00  0.00     0.280 HD
HETATM   23  C   UNL     1       5.292  29.449  50.059  1.00  0.00     0.255 C 
HETATM   24  C   UNL     1       5.074  30.034  51.473  1.00  0.00     0.150 C 
BRANCH  21  25
HETATM   25  C   UNL     1       4.090  28.754  47.882  1.00  0.00     0.188 C 
HETATM   26  C   UNL     1       2.714  28.504  47.235  1.00  0.00     0.033 C 
HETATM   27  C   UNL     1       1.926  29.793  47.002  1.00  0.00     0.002 C 
HETATM   28  C   UNL     1       2.724  30.793  46.169  1.00  0.00     0.000 C 
HETATM   29  C   UNL     1       4.124  31.035  46.729  1.00  0.00     0.002 C 
HETATM   30  C   UNL     1       4.869  29.722  46.974  1.00  0.00     0.033 C 
ENDBRANCH  21  25
ENDBRANCH  16  18
BRANCH   1  31
HETATM   31  N   UNL     1       5.013  27.509  56.849  1.00  0.00    -0.292 NA
HETATM   32  H   UNL     1       4.009  27.535  57.102  1.00  0.00     0.127 HD
BRANCH  31  33
HETATM   33  C   UNL     1       5.755  28.655  57.362  1.00  0.00     0.094 C 
BRANCH  33  34
HETATM   34  C   UNL     1       7.201  28.254  57.667  1.00  0.00     0.042 C 
BRANCH  34  35
HETATM   35  C   UNL     1       8.192  28.861  56.677  1.00  0.00     0.235 C 
BRANCH  35  36
HETATM   36  N   UNL     1       9.421  29.388  57.402  1.00  0.00    -0.079 N 
HETATM   37  C   UNL     1       9.129  30.503  58.370  1.00  0.00     0.269 C 
HETATM   38  H   UNL     1       9.820  28.609  57.942  1.00  0.00     0.278 HD
HETATM   39  C   UNL     1      10.496  29.798  56.426  1.00  0.00     0.269 C 
ENDBRANCH  35  36
ENDBRANCH  34  35
ENDBRANCH  33  34
ENDBRANCH  31  33
ENDBRANCH   1  31
TORSDOF 7
ENDMDL
MODEL 3
REMARK VINA RESULT:      -9.4      1.762      2.715
REMARK  7 active torsions:
REMARK  status: ('A' for Active; 'I' for Inactive)
REMARK    1  A    between atoms: N_2  and  C_4 
REMARK    2  A    between atoms: C_4  and  C_5 
REMARK    3  A    between atoms: C_5  and  C_6 
REMARK    4  A    between atoms: C_6  and  N_7 
REMARK    5  A    between atoms: N_7  and  C_8 
REMARK    6  A    between atoms: C_23  and  N_24 
REMARK    7  A    between atoms: N_27  and  C_29 
ROOT
HETATM    1  C   UNL     1       5.466  32.110  58.408  1.00  0.00     0.025 A 
HETATM    2  C   UNL     1       5.956  32.337  59.709  1.00  0.00     0.052 A 
HETATM    3  C   UNL     1       7.050  31.554  59.975  1.00  0.00     0.050 A 
HETATM    4  C   UNL     1       7.666  31.623  61.176  1.00  0.00     0.126 A 
HETATM    5  C   UNL     1       7.317  32.482  62.279  1.00  0.00     0.015 A 
HETATM    6  C   UNL     1       6.184  33.314  62.073  1.00  0.00     0.028 A 
HETATM    7  C   UNL     1       5.431  33.239  60.765  1.00  0.00     0.196 A 
HETATM    8  O   UNL     1       4.401  33.871  60.554  1.00  0.00    -0.287 OA
HETATM    9  C   UNL     1       8.019  32.543  63.480  1.00  0.00     0.015 A 
HETATM   10  C   UNL     1       7.597  33.432  64.474  1.00  0.00     0.001 A 
HETATM   11  C   UNL     1       6.480  34.251  64.271  1.00  0.00     0.001 A 
HETATM   12  C   UNL     1       5.768  34.195  63.070  1.00  0.00     0.016 A 
HETATM   13  C   UNL     1       7.736  30.614  59.171  1.00  0.00     0.125 A 
HETATM   14  N   UNL     1       8.730  30.089  59.930  1.00  0.00    -0.125 NA
HETATM   15  O   UNL     1       8.692  30.740  61.176  1.00  0.00    -0.211 OA
HETATM   16  C   UNL     1       7.310  30.371  57.830  1.00  0.00     0.064 A 
HETATM   17  C   UNL     1       6.156  31.190  57.516  1.00  0.00     0.056 A 
ENDROOT
BRANCH  16  18
HETATM   18  N   UNL     1       7.915  29.551  56.872  1.00  0.00    -0.376 N 
HETATM   19  C   UNL     1       7.226  29.311  55.596  1.00  0.00     0.150 C 
HETATM   20  C   UNL     1       6.353  28.038  55.664  1.00  0.00     0.255 C 
HETATM   21  N   UNL     1       7.171  26.805  56.095  1.00  0.00    -0.064 N 
HETATM   22  H   UNL     1       7.915  26.675  55.400  1.00  0.00     0.280 HD
HETATM   23  C   UNL     1       7.885  27.117  57.438  1.00  0.00     0.255 C 
HETATM   24  C   UNL     1       8.732  28.404  57.317  1.00  0.00     0.150 C 
BRANCH  21  25
HETATM   25  C   UNL     1       6.325  25.519  56.144  1.00  0.00     0.188 C 
HETATM   26  C   UNL     1       5.681  25.225  54.774  1.00  0.00     0.033 C 
HETATM   27  C   UNL     1       6.713  24.902  53.693  1.00  0.00     0.002 C 
HETATM   28  C   UNL     1       7.613  23.741  54.109  1.00  0.00     0.000 C 
HETATM   29  C   UNL     1       8.232  23.947  55.491  1.00  0.00     0.002 C 
HETATM   30  C   UNL     1       7.173  24.297  56.538  1.00  0.00     0.033 C 
ENDBRANCH  21  25
ENDBRANCH  16  18
BRANCH   1  31
HETATM   31  N   UNL     1       4.356  32.876  57.954  1.00  0.00    -0.292 NA
HETATM   32  H   UNL     1       3.540  32.238  57.947  1.00  0.00     0.127 HD
BRANCH  31  33
HETATM   33  C   UNL     1       4.524  33.593  56.696  1.00  0.00     0.094 C 
BRANCH  33  34
HETATM   34  C   UNL     1       4.185  35.075  56.885  1.00  0.00     0.042 C 
BRANCH  34  35
HETATM   35  C   UNL     1       2.752  35.284  57.369  1.00  0.00     0.235 C 
BRANCH  35  36
HETATM   36  N   UNL     1       2.731  35.631  58.850  1.00  0.00    -0.079 N 
HETATM   37  C   UNL     1       1.351  35.684  59.447  1.00  0.00     0.269 C 
HETATM   38  H   UNL     1       3.254  34.897  59.348  1.00  0.00     0.278 HD
HETATM   39  C   UNL     1       3.478  36.915  59.120  1.00  0.00     0.269 C 
ENDBRANCH  35  36
ENDBRANCH  34  35
ENDBRANCH  33  34
ENDBRANCH  31  33
ENDBRANCH   1  31
TORSDOF 7
ENDMDL
MODEL 4
REMARK VINA RESULT:      -9.1      4.192      9.299
REMARK  7 active torsions:
REMARK  status: ('A' for Active; 'I' for Inactive)
REMARK    1  A    between atoms: N_2  and  C_4 
REMARK    2  A    between atoms: C_4  and  C_5 
REMARK    3  A    between atoms: C_5  and  C_6 
REMARK    4  A    between atoms: C_6  and  N_7 
REMARK    5  A    between atoms: N_7  and  C_8 
REMARK    6  A    between atoms: C_23  and  N_24 
REMARK    7  A    between atoms: N_27  and  C_29 
ROOT
HETATM    1  C   UNL     1       6.328  26.531  53.261  1.00  0.00     0.025 A 
HETATM    2  C   UNL     1       6.755  25.255  53.681  1.00  0.00     0.052 A 
HETATM    3  C   UNL     1       6.619  25.105  55.038  1.00  0.00     0.050 A 
HETATM    4  C   UNL     1       6.977  23.948  55.638  1.00  0.00     0.126 A 
HETATM    5  C   UNL     1       7.497  22.767  54.998  1.00  0.00     0.015 A 
HETATM    6  C   UNL     1       7.673  22.860  53.591  1.00  0.00     0.028 A 
HETATM    7  C   UNL     1       7.332  24.148  52.879  1.00  0.00     0.196 A 
HETATM    8  O   UNL     1       7.535  24.319  51.681  1.00  0.00    -0.287 OA
HETATM    9  C   UNL     1       7.808  21.584  55.664  1.00  0.00     0.015 A 
HETATM   10  C   UNL     1       8.289  20.494  54.933  1.00  0.00     0.001 A 
HETATM   11  C   UNL     1       8.462  20.585  53.546  1.00  0.00     0.001 A 
HETATM   12  C   UNL     1       8.156  21.769  52.870  1.00  0.00     0.016 A 
HETATM   13  C   UNL     1       6.121  25.988  56.024  1.00  0.00     0.125 A 
HETATM   14  N   UNL     1       6.241  25.360  57.220  1.00  0.00    -0.125 NA
HETATM   15  O   UNL     1       6.760  24.077  56.968  1.00  0.00    -0.211 OA
HETATM   16  C   UNL     1       5.637  27.279  55.653  1.00  0.00     0.064 A 
HETATM   17  C   UNL     1       5.763  27.467  54.221  1.00  0.00     0.056 A 
ENDROOT
BRANCH  16  18
HETATM   18  N   UNL     1       5.035  28.239  56.473  1.00  0.00    -0.376 N 
HETATM   19  C   UNL     1       3.693  28.733  56.130  1.00  0.00     0.150 C 
HETATM   20  C   UNL     1       3.774  30.003  55.253  1.00  0.00     0.255 C 
HETATM   21  N   UNL     1       4.621  31.105  55.917  1.00  0.00    -0.064 N 
HETATM   22  H   UNL     1       4.175  31.334  56.813  1.00  0.00     0.280 HD
HETATM   23  C   UNL     1       6.018  30.527  56.268  1.00  0.00     0.255 C 
HETATM   24  C   UNL     1       5.879  29.254  57.134  1.00  0.00     0.150 C 
BRANCH  21  25
HETATM   25  C   UNL     1       4.692  32.390  55.071  1.00  0.00     0.188 C 
HETATM   26  C   UNL     1       3.366  32.639  54.325  1.00  0.00     0.033 C 
HETATM   27  C   UNL     1       2.201  32.931  55.272  1.00  0.00     0.002 C 
HETATM   28  C   UNL     1       2.512  34.106  56.195  1.00  0.00     0.000 C 
HETATM   29  C   UNL     1       3.849  33.946  56.916  1.00  0.00     0.002 C 
HETATM   30  C   UNL     1       4.983  33.627  55.940  1.00  0.00     0.033 C 
ENDBRANCH  21  25
ENDBRANCH  16  18
BRANCH   1  31
HETATM   31  N   UNL     1       6.362  26.838  51.872  1.00  0.00    -0.292 NA
HETATM   32  H   UNL     1       7.092  27.561  51.746  1.00  0.00     0.127 HD
BRANCH  31  33
HETATM   33  C   UNL     1       5.094  27.199  51.248  1.00  0.00     0.094 C 
BRANCH  33  34
HETATM   34  C   UNL     1       4.770  26.226  50.111  1.00  0.00     0.042 C 
BRANCH  34  35
HETATM   35  C   UNL     1       4.033  26.907  48.959  1.00  0.00     0.235 C 
BRANCH  35  36
HETATM   36  N   UNL     1       2.771  26.137  48.601  1.00  0.00    -0.079 N 
HETATM   37  C   UNL     1       3.011  24.948  47.711  1.00  0.00     0.269 C 
HETATM   38  H   UNL     1       2.361  25.788  49.477  1.00  0.00     0.278 HD
HETATM   39  C   UNL     1       1.729  27.049  48.001  1.00  0.00     0.269 C 
ENDBRANCH  35  36
ENDBRANCH  34  35
ENDBRANCH  33  34
ENDBRANCH  31  33
ENDBRANCH   1  31
TORSDOF 7
ENDMDL
MODEL 5
REMARK VINA RESULT:      -8.8      3.900      8.709
REMARK  7 active torsions:
REMARK  status: ('A' for Active; 'I' for Inactive)
REMARK    1  A    between atoms: N_2  and  C_4 
REMARK    2  A    between atoms: C_4  and  C_5 
REMARK    3  A    between atoms: C_5  and  C_6 
REMARK    4  A    between atoms: C_6  and  N_7 
REMARK    5  A    between atoms: N_7  and  C_8 
REMARK    6  A    between atoms: C_23  and  N_24 
REMARK    7  A    between atoms: N_27  and  C_29 
ROOT
HETATM    1  C   UNL     1       5.123  27.394  55.840  1.00  0.00     0.025 A 
HETATM    2  C   UNL     1       5.798  26.214  55.468  1.00  0.00     0.052 A 
HETATM    3  C   UNL     1       5.599  25.922  54.143  1.00  0.00     0.050 A 
HETATM    4  C   UNL     1       6.163  24.825  53.591  1.00  0.00     0.126 A 
HETATM    5  C   UNL     1       7.020  23.870  54.247  1.00  0.00     0.015 A 
HETATM    6  C   UNL     1       7.260  24.110  55.627  1.00  0.00     0.028 A 
HETATM    7  C   UNL     1       6.613  25.296  56.302  1.00  0.00     0.196 A 
HETATM    8  O   UNL     1       6.715  25.514  57.505  1.00  0.00    -0.287 OA
HETATM    9  C   UNL     1       7.612  22.780  53.614  1.00  0.00     0.015 A 
HETATM   10  C   UNL     1       8.443  21.931  54.352  1.00  0.00     0.001 A 
HETATM   11  C   UNL     1       8.679  22.166  55.711  1.00  0.00     0.001 A 
HETATM   12  C   UNL     1       8.087  23.256  56.355  1.00  0.00     0.016 A 
HETATM   13  C   UNL     1       4.869  26.603  53.141  1.00  0.00     0.125 A 
HETATM   14  N   UNL     1       4.963  25.867  52.006  1.00  0.00    -0.125 NA
HETATM   15  O   UNL     1       5.791  24.766  52.291  1.00  0.00    -0.211 OA
HETATM   16  C   UNL     1       4.197  27.825  53.450  1.00  0.00     0.064 A 
HETATM   17  C   UNL     1       4.393  28.165  54.845  1.00  0.00     0.056 A 
ENDROOT
BRANCH  16  18
HETATM   18  N   UNL     1       3.508  28.671  52.574  1.00  0.00    -0.376 N 
HETATM   19  C   UNL     1       3.720  28.529  51.126  1.00  0.00     0.150 C 
HETATM   20  C   UNL     1       4.844  29.468  50.633  1.00  0.00     0.255 C 
HETATM   21  N   UNL     1       4.574  30.935  51.015  1.00  0.00    -0.064 N 
HETATM   22  H   UNL     1       3.685  31.205  50.579  1.00  0.00     0.280 HD
HETATM   23  C   UNL     1       4.346  31.025  52.548  1.00  0.00     0.255 C 
HETATM   24  C   UNL     1       3.222  30.059  52.988  1.00  0.00     0.150 C 
BRANCH  21  25
HETATM   25  C   UNL     1       5.671  31.892  50.509  1.00  0.00     0.188 C 
HETATM   26  C   UNL     1       5.800  31.826  48.974  1.00  0.00     0.033 C 
HETATM   27  C   UNL     1       4.554  32.342  48.253  1.00  0.00     0.002 C 
HETATM   28  C   UNL     1       4.202  33.762  48.691  1.00  0.00     0.000 C 
HETATM   29  C   UNL     1       4.122  33.903  50.210  1.00  0.00     0.002 C 
HETATM   30  C   UNL     1       5.373  33.351  50.895  1.00  0.00     0.033 C 
ENDBRANCH  21  25
ENDBRANCH  16  18
BRANCH   1  31
HETATM   31  N   UNL     1       5.260  27.865  57.175  1.00  0.00    -0.292 NA
HETATM   32  H   UNL     1       4.558  27.357  57.743  1.00  0.00     0.127 HD
BRANCH  31  33
HETATM   33  C   UNL     1       5.207  29.309  57.371  1.00  0.00     0.094 C 
BRANCH  33  34
HETATM   34  C   UNL     1       6.604  29.915  57.205  1.00  0.00     0.042 C 
BRANCH  34  35
HETATM   35  C   UNL     1       7.676  29.107  57.934  1.00  0.00     0.235 C 
BRANCH  35  36
HETATM   36  N   UNL     1       8.798  28.722  56.981  1.00  0.00    -0.079 N 
HETATM   37  C   UNL     1      10.112  29.391  57.282  1.00  0.00     0.269 C 
HETATM   38  H   UNL     1       8.943  27.707  57.067  1.00  0.00     0.278 HD
HETATM   39  C   UNL     1       8.398  28.955  55.545  1.00  0.00     0.269 C 
ENDBRANCH  35  36
ENDBRANCH  34  35
ENDBRANCH  33  34
ENDBRANCH  31  33
ENDBRANCH   1  31
TORSDOF 7
ENDMDL
MODEL 6
REMARK VINA RESULT:      -8.8      2.193      4.010
REMARK  7 active torsions:
REMARK  status: ('A' for Active; 'I' for Inactive)
REMARK    1  A    between atoms: N_2  and  C_4 
REMARK    2  A    between atoms: C_4  and  C_5 
REMARK    3  A    between atoms: C_5  and  C_6 
REMARK    4  A    between atoms: C_6  and  N_7 
REMARK    5  A    between atoms: N_7  and  C_8 
REMARK    6  A    between atoms: C_23  and  N_24 
REMARK    7  A    between atoms: N_27  and  C_29 
ROOT
HETATM    1  C   UNL     1       4.475  29.591  56.556  1.00  0.00     0.025 A 
HETATM    2  C   UNL     1       5.560  29.943  57.385  1.00  0.00     0.052 A 
HETATM    3  C   UNL     1       6.510  28.954  57.411  1.00  0.00     0.050 A 
HETATM    4  C   UNL     1       7.630  29.101  58.153  1.00  0.00     0.126 A 
HETATM    5  C   UNL     1       7.993  30.241  58.955  1.00  0.00     0.015 A 
HETATM    6  C   UNL     1       7.046  31.299  58.980  1.00  0.00     0.028 A 
HETATM    7  C   UNL     1       5.755  31.164  58.206  1.00  0.00     0.196 A 
HETATM    8  O   UNL     1       4.863  32.005  58.249  1.00  0.00    -0.287 OA
HETATM    9  C   UNL     1       9.187  30.356  59.665  1.00  0.00     0.015 A 
HETATM   10  C   UNL     1       9.438  31.521  60.395  1.00  0.00     0.001 A 
HETATM   11  C   UNL     1       8.504  32.564  60.419  1.00  0.00     0.001 A 
HETATM   12  C   UNL     1       7.304  32.457  59.713  1.00  0.00     0.016 A 
HETATM   13  C   UNL     1       6.569  27.706  56.749  1.00  0.00     0.125 A 
HETATM   14  N   UNL     1       7.711  27.093  57.151  1.00  0.00    -0.125 NA
HETATM   15  O   UNL     1       8.378  27.981  58.015  1.00  0.00    -0.211 OA
HETATM   16  C   UNL     1       5.519  27.312  55.866  1.00  0.00     0.064 A 
HETATM   17  C   UNL     1       4.499  28.341  55.812  1.00  0.00     0.056 A 
ENDROOT
BRANCH  16  18
HETATM   18  N   UNL     1       5.453  26.165  55.068  1.00  0.00    -0.376 N 
HETATM   19  C   UNL     1       5.198  24.864  55.704  1.00  0.00     0.150 C 
HETATM   20  C   UNL     1       6.522  24.148  56.056  1.00  0.00     0.255 C 
HETATM   21  N   UNL     1       7.438  23.998  54.827  1.00  0.00    -0.064 N 
HETATM   22  H   UNL     1       6.924  23.447  54.130  1.00  0.00     0.280 HD
HETATM   23  C   UNL     1       7.662  25.396  54.190  1.00  0.00     0.255 C 
HETATM   24  C   UNL     1       6.309  26.071  53.869  1.00  0.00     0.150 C 
BRANCH  21  25
HETATM   25  C   UNL     1       8.751  23.263  55.152  1.00  0.00     0.188 C 
HETATM   26  C   UNL     1       8.534  22.190  56.238  1.00  0.00     0.033 C 
HETATM   27  C   UNL     1       7.625  21.052  55.772  1.00  0.00     0.002 C 
HETATM   28  C   UNL     1       8.151  20.405  54.492  1.00  0.00     0.000 C 
HETATM   29  C   UNL     1       8.446  21.429  53.398  1.00  0.00     0.002 C 
HETATM   30  C   UNL     1       9.333  22.565  53.910  1.00  0.00     0.033 C 
ENDBRANCH  21  25
ENDBRANCH  16  18
BRANCH   1  31
HETATM   31  N   UNL     1       3.418  30.527  56.383  1.00  0.00    -0.292 NA
HETATM   32  H   UNL     1       2.593  30.136  56.871  1.00  0.00     0.127 HD
BRANCH  31  33
HETATM   33  C   UNL     1       3.124  30.939  55.015  1.00  0.00     0.094 C 
BRANCH  33  34
HETATM   34  C   UNL     1       3.385  32.439  54.849  1.00  0.00     0.042 C 
BRANCH  34  35
HETATM   35  C   UNL     1       2.747  33.265  55.964  1.00  0.00     0.235 C 
BRANCH  35  36
HETATM   36  N   UNL     1       3.619  34.463  56.311  1.00  0.00    -0.079 N 
HETATM   37  C   UNL     1       2.973  35.792  56.026  1.00  0.00     0.269 C 
HETATM   38  H   UNL     1       3.812  34.424  57.321  1.00  0.00     0.278 HD
HETATM   39  C   UNL     1       4.965  34.370  55.636  1.00  0.00     0.269 C 
ENDBRANCH  35  36
ENDBRANCH  34  35
ENDBRANCH  33  34
ENDBRANCH  31  33
ENDBRANCH   1  31
TORSDOF 7
ENDMDL
MODEL 7
REMARK VINA RESULT:      -8.6      2.492      8.161
REMARK  7 active torsions:
REMARK  status: ('A' for Active; 'I' for Inactive)
REMARK    1  A    between atoms: N_2  and  C_4 
REMARK    2  A    between atoms: C_4  and  C_5 
REMARK    3  A    between atoms: C_5  and  C_6 
REMARK    4  A    between atoms: C_6  and  N_7 
REMARK    5  A    between atoms: N_7  and  C_8 
REMARK    6  A    between atoms: C_23  and  N_24 
REMARK    7  A    between atoms: N_27  and  C_29 
ROOT
HETATM    1  C   UNL     1       5.147  29.199  55.707  1.00  0.00     0.025 A 
HETATM    2  C   UNL     1       5.877  28.001  55.836  1.00  0.00     0.052 A 
HETATM    3  C   UNL     1       6.919  28.143  56.718  1.00  0.00     0.050 A 
HETATM    4  C   UNL     1       7.742  27.104  56.978  1.00  0.00     0.126 A 
HETATM    5  C   UNL     1       7.654  25.773  56.434  1.00  0.00     0.015 A 
HETATM    6  C   UNL     1       6.601  25.560  55.504  1.00  0.00     0.028 A 
HETATM    7  C   UNL     1       5.682  26.704  55.142  1.00  0.00     0.196 A 
HETATM    8  O   UNL     1       4.805  26.608  54.290  1.00  0.00    -0.287 OA
HETATM    9  C   UNL     1       8.507  24.726  56.774  1.00  0.00     0.015 A 
HETATM   10  C   UNL     1       8.312  23.469  56.193  1.00  0.00     0.001 A 
HETATM   11  C   UNL     1       7.274  23.260  55.277  1.00  0.00     0.001 A 
HETATM   12  C   UNL     1       6.416  24.305  54.927  1.00  0.00     0.016 A 
HETATM   13  C   UNL     1       7.335  29.252  57.491  1.00  0.00     0.125 A 
HETATM   14  N   UNL     1       8.447  28.872  58.169  1.00  0.00    -0.125 NA
HETATM   15  O   UNL     1       8.684  27.521  57.857  1.00  0.00    -0.211 OA
HETATM   16  C   UNL     1       6.610  30.480  57.432  1.00  0.00     0.064 A 
HETATM   17  C   UNL     1       5.497  30.360  56.511  1.00  0.00     0.056 A 
ENDROOT
BRANCH  16  18
HETATM   18  N   UNL     1       6.823  31.640  58.185  1.00  0.00    -0.376 N 
HETATM   19  C   UNL     1       8.019  31.733  59.035  1.00  0.00     0.150 C 
HETATM   20  C   UNL     1       7.723  31.245  60.471  1.00  0.00     0.255 C 
HETATM   21  N   UNL     1       6.534  31.998  61.098  1.00  0.00    -0.064 N 
HETATM   22  H   UNL     1       6.781  32.994  61.117  1.00  0.00     0.280 HD
HETATM   23  C   UNL     1       5.306  31.878  60.157  1.00  0.00     0.255 C 
HETATM   24  C   UNL     1       5.661  32.367  58.734  1.00  0.00     0.150 C 
BRANCH  21  25
HETATM   25  C   UNL     1       6.239  31.545  62.540  1.00  0.00     0.188 C 
HETATM   26  C   UNL     1       7.521  31.543  63.395  1.00  0.00     0.033 C 
HETATM   27  C   UNL     1       8.097  32.944  63.601  1.00  0.00     0.002 C 
HETATM   28  C   UNL     1       7.063  33.890  64.207  1.00  0.00     0.000 C 
HETATM   29  C   UNL     1       5.745  33.887  63.436  1.00  0.00     0.002 C 
HETATM   30  C   UNL     1       5.216  32.467  63.226  1.00  0.00     0.033 C 
ENDBRANCH  21  25
ENDBRANCH  16  18
BRANCH   1  31
HETATM   31  N   UNL     1       4.003  29.212  54.861  1.00  0.00    -0.292 NA
HETATM   32  H   UNL     1       3.702  28.227  54.755  1.00  0.00     0.127 HD
BRANCH  31  33
HETATM   33  C   UNL     1       4.138  29.903  53.585  1.00  0.00     0.094 C 
BRANCH  33  34
HETATM   34  C   UNL     1       3.452  29.101  52.476  1.00  0.00     0.042 C 
BRANCH  34  35
HETATM   35  C   UNL     1       4.359  28.892  51.265  1.00  0.00     0.235 C 
BRANCH  35  36
HETATM   36  N   UNL     1       4.037  27.576  50.573  1.00  0.00    -0.079 N 
HETATM   37  C   UNL     1       5.152  26.567  50.629  1.00  0.00     0.269 C 
HETATM   38  H   UNL     1       3.225  27.164  51.053  1.00  0.00     0.278 HD
HETATM   39  C   UNL     1       3.595  27.803  49.148  1.00  0.00     0.269 C 
ENDBRANCH  35  36
ENDBRANCH  34  35
ENDBRANCH  33  34
ENDBRANCH  31  33
ENDBRANCH   1  31
TORSDOF 7
ENDMDL
MODEL 8
REMARK VINA RESULT:      -8.6      3.756      8.893
REMARK  7 active torsions:
REMARK  status: ('A' for Active; 'I' for Inactive)
REMARK    1  A    between atoms: N_2  and  C_4 
REMARK    2  A    between atoms: C_4  and  C_5 
REMARK    3  A    between atoms: C_5  and  C_6 
REMARK    4  A    between atoms: C_6  and  N_7 
REMARK    5  A    between atoms: N_7  and  C_8 
REMARK    6  A    between atoms: C_23  and  N_24 
REMARK    7  A    between atoms: N_27  and  C_29 
ROOT
HETATM    1  C   UNL     1       4.718  27.401  53.643  1.00  0.00     0.025 A 
HETATM    2  C   UNL     1       5.665  26.404  53.951  1.00  0.00     0.052 A 
HETATM    3  C   UNL     1       6.192  26.585  55.205  1.00  0.00     0.050 A 
HETATM    4  C   UNL     1       7.122  25.731  55.686  1.00  0.00     0.126 A 
HETATM    5  C   UNL     1       7.655  24.568  55.023  1.00  0.00     0.015 A 
HETATM    6  C   UNL     1       7.158  24.329  53.714  1.00  0.00     0.028 A 
HETATM    7  C   UNL     1       6.151  25.281  53.111  1.00  0.00     0.196 A 
HETATM    8  O   UNL     1       5.743  25.176  51.959  1.00  0.00    -0.287 OA
HETATM    9  C   UNL     1       8.582  23.696  55.589  1.00  0.00     0.015 A 
HETATM   10  C   UNL     1       9.012  22.587  54.855  1.00  0.00     0.001 A 
HETATM   11  C   UNL     1       8.523  22.351  53.565  1.00  0.00     0.001 A 
HETATM   12  C   UNL     1       7.594  23.221  52.988  1.00  0.00     0.016 A 
HETATM   13  C   UNL     1       5.925  27.562  56.191  1.00  0.00     0.125 A 
HETATM   14  N   UNL     1       6.748  27.309  57.239  1.00  0.00    -0.125 NA
HETATM   15  O   UNL     1       7.480  26.150  56.923  1.00  0.00    -0.211 OA
HETATM   16  C   UNL     1       4.946  28.574  55.952  1.00  0.00     0.064 A 
HETATM   17  C   UNL     1       4.366  28.407  54.634  1.00  0.00     0.056 A 
ENDROOT
BRANCH  16  18
HETATM   18  N   UNL     1       4.494  29.558  56.838  1.00  0.00    -0.376 N 
HETATM   19  C   UNL     1       3.111  30.044  56.723  1.00  0.00     0.150 C 
HETATM   20  C   UNL     1       3.032  31.289  55.810  1.00  0.00     0.255 C 
HETATM   21  N   UNL     1       3.978  32.408  56.283  1.00  0.00    -0.064 N 
HETATM   22  H   UNL     1       3.696  32.662  57.237  1.00  0.00     0.280 HD
HETATM   23  C   UNL     1       5.418  31.838  56.399  1.00  0.00     0.255 C 
HETATM   24  C   UNL     1       5.437  30.590  57.312  1.00  0.00     0.150 C 
BRANCH  21  25
HETATM   25  C   UNL     1       3.895  33.668  55.402  1.00  0.00     0.188 C 
HETATM   26  C   UNL     1       2.486  34.292  55.456  1.00  0.00     0.033 C 
HETATM   27  C   UNL     1       2.132  34.834  56.841  1.00  0.00     0.002 C 
HETATM   28  C   UNL     1       3.171  35.841  57.329  1.00  0.00     0.000 C 
HETATM   29  C   UNL     1       4.597  35.300  57.240  1.00  0.00     0.002 C 
HETATM   30  C   UNL     1       4.903  34.741  55.849  1.00  0.00     0.033 C 
ENDBRANCH  21  25
ENDBRANCH  16  18
BRANCH   1  31
HETATM   31  N   UNL     1       4.042  27.337  52.394  1.00  0.00    -0.292 NA
HETATM   32  H   UNL     1       4.377  26.479  51.919  1.00  0.00     0.127 HD
BRANCH  31  33
HETATM   33  C   UNL     1       4.118  28.519  51.544  1.00  0.00     0.094 C 
BRANCH  33  34
HETATM   34  C   UNL     1       5.152  28.305  50.435  1.00  0.00     0.042 C 
BRANCH  34  35
HETATM   35  C   UNL     1       4.502  28.097  49.069  1.00  0.00     0.235 C 
BRANCH  35  36
HETATM   36  N   UNL     1       3.332  27.130  49.172  1.00  0.00    -0.079 N 
HETATM   37  C   UNL     1       3.611  25.769  48.594  1.00  0.00     0.269 C 
HETATM   38  H   UNL     1       3.123  27.003  50.172  1.00  0.00     0.278 HD
HETATM   39  C   UNL     1       2.082  27.720  48.567  1.00  0.00     0.269 C 
ENDBRANCH  35  36
ENDBRANCH  34  35
ENDBRANCH  33  34
ENDBRANCH  31  33
ENDBRANCH   1  31
TORSDOF 7
ENDMDL
MODEL 9
REMARK VINA RESULT:      -8.5      3.553      9.005
REMARK  7 active torsions:
REMARK  status: ('A' for Active; 'I' for Inactive)
REMARK    1  A    between atoms: N_2  and  C_4 
REMARK    2  A    between atoms: C_4  and  C_5 
REMARK    3  A    between atoms: C_5  and  C_6 
REMARK    4  A    between atoms: C_6  and  N_7 
REMARK    5  A    between atoms: N_7  and  C_8 
REMARK    6  A    between atoms: C_23  and  N_24 
REMARK    7  A    between atoms: N_27  and  C_29 
ROOT
HETATM    1  C   UNL     1       7.348  25.956  53.612  1.00  0.00     0.025 A 
HETATM    2  C   UNL     1       7.632  24.721  54.229  1.00  0.00     0.052 A 
HETATM    3  C   UNL     1       7.955  24.887  55.552  1.00  0.00     0.050 A 
HETATM    4  C   UNL     1       8.263  23.818  56.321  1.00  0.00     0.126 A 
HETATM    5  C   UNL     1       8.280  22.436  55.914  1.00  0.00     0.015 A 
HETATM    6  C   UNL     1       7.964  22.196  54.550  1.00  0.00     0.028 A 
HETATM    7  C   UNL     1       7.659  23.361  53.637  1.00  0.00     0.196 A 
HETATM    8  O   UNL     1       7.457  23.228  52.435  1.00  0.00    -0.287 OA
HETATM    9  C   UNL     1       8.562  21.370  56.764  1.00  0.00     0.015 A 
HETATM   10  C   UNL     1       8.529  20.066  56.260  1.00  0.00     0.001 A 
HETATM   11  C   UNL     1       8.218  19.829  54.915  1.00  0.00     0.001 A 
HETATM   12  C   UNL     1       7.936  20.893  54.055  1.00  0.00     0.016 A 
HETATM   13  C   UNL     1       8.021  26.051  56.353  1.00  0.00     0.125 A 
HETATM   14  N   UNL     1       8.427  25.664  57.588  1.00  0.00    -0.125 NA
HETATM   15  O   UNL     1       8.557  24.264  57.565  1.00  0.00    -0.211 OA
HETATM   16  C   UNL     1       7.705  27.325  55.793  1.00  0.00     0.064 A 
HETATM   17  C   UNL     1       7.354  27.183  54.393  1.00  0.00     0.056 A 
ENDROOT
BRANCH  16  18
HETATM   18  N   UNL     1       7.633  28.558  56.450  1.00  0.00    -0.376 N 
HETATM   19  C   UNL     1       7.113  28.608  57.825  1.00  0.00     0.150 C 
HETATM   20  C   UNL     1       5.592  28.879  57.837  1.00  0.00     0.255 C 
HETATM   21  N   UNL     1       5.232  30.159  57.058  1.00  0.00    -0.064 N 
HETATM   22  H   UNL     1       5.724  30.939  57.510  1.00  0.00     0.280 HD
HETATM   23  C   UNL     1       5.814  30.058  55.623  1.00  0.00     0.255 C 
HETATM   24  C   UNL     1       7.333  29.775  55.670  1.00  0.00     0.150 C 
BRANCH  21  25
HETATM   25  C   UNL     1       3.722  30.462  57.081  1.00  0.00     0.188 C 
HETATM   26  C   UNL     1       3.241  30.786  58.509  1.00  0.00     0.033 C 
HETATM   27  C   UNL     1       3.846  32.080  59.058  1.00  0.00     0.002 C 
HETATM   28  C   UNL     1       3.572  33.261  58.130  1.00  0.00     0.000 C 
HETATM   29  C   UNL     1       3.971  32.975  56.684  1.00  0.00     0.002 C 
HETATM   30  C   UNL     1       3.371  31.661  56.182  1.00  0.00     0.033 C 
ENDBRANCH  21  25
ENDBRANCH  16  18
BRANCH   1  31
HETATM   31  N   UNL     1       6.952  25.959  52.246  1.00  0.00    -0.292 NA
HETATM   32  H   UNL     1       7.685  26.475  51.726  1.00  0.00     0.127 HD
BRANCH  31  33
HETATM   33  C   UNL     1       5.607  26.441  51.953  1.00  0.00     0.094 C 
BRANCH  33  34
HETATM   34  C   UNL     1       5.239  26.125  50.501  1.00  0.00     0.042 C 
BRANCH  34  35
HETATM   35  C   UNL     1       4.570  27.308  49.803  1.00  0.00     0.235 C 
BRANCH  35  36
HETATM   36  N   UNL     1       5.578  28.072  48.958  1.00  0.00    -0.079 N 
HETATM   37  C   UNL     1       5.727  29.520  49.342  1.00  0.00     0.269 C 
HETATM   38  H   UNL     1       6.496  27.624  49.087  1.00  0.00     0.278 HD
HETATM   39  C   UNL     1       5.267  27.941  47.487  1.00  0.00     0.269 C 
ENDBRANCH  35  36
ENDBRANCH  34  35
ENDBRANCH  33  34
ENDBRANCH  31  33
ENDBRANCH   1  31
TORSDOF 7
ENDMDL
MODEL 10
REMARK VINA RESULT:      -8.5      2.860      5.979
REMARK  7 active torsions:
REMARK  status: ('A' for Active; 'I' for Inactive)
REMARK    1  A    between atoms: N_2  and  C_4 
REMARK    2  A    between atoms: C_4  and  C_5 
REMARK    3  A    between atoms: C_5  and  C_6 
REMARK    4  A    between atoms: C_6  and  N_7 
REMARK    5  A    between atoms: N_7  and  C_8 
REMARK    6  A    between atoms: C_23  and  N_24 
REMARK    7  A    between atoms: N_27  and  C_29 
ROOT
HETATM    1  C   UNL     1       6.867  28.123  55.628  1.00  0.00     0.025 A 
HETATM    2  C   UNL     1       6.980  29.073  56.663  1.00  0.00     0.052 A 
HETATM    3  C   UNL     1       6.111  30.118  56.479  1.00  0.00     0.050 A 
HETATM    4  C   UNL     1       6.067  31.137  57.365  1.00  0.00     0.126 A 
HETATM    5  C   UNL     1       6.849  31.271  58.568  1.00  0.00     0.015 A 
HETATM    6  C   UNL     1       7.779  30.225  58.814  1.00  0.00     0.028 A 
HETATM    7  C   UNL     1       7.900  29.086  57.827  1.00  0.00     0.196 A 
HETATM    8  O   UNL     1       8.736  28.196  57.940  1.00  0.00    -0.287 OA
HETATM    9  C   UNL     1       6.729  32.325  59.471  1.00  0.00     0.015 A 
HETATM   10  C   UNL     1       7.530  32.337  60.617  1.00  0.00     0.001 A 
HETATM   11  C   UNL     1       8.446  31.307  60.859  1.00  0.00     0.001 A 
HETATM   12  C   UNL     1       8.575  30.247  59.958  1.00  0.00     0.016 A 
HETATM   13  C   UNL     1       5.153  30.361  55.467  1.00  0.00     0.125 A 
HETATM   14  N   UNL     1       4.583  31.562  55.736  1.00  0.00    -0.125 NA
HETATM   15  O   UNL     1       5.147  32.032  56.936  1.00  0.00    -0.211 OA
HETATM   16  C   UNL     1       4.965  29.415  54.414  1.00  0.00     0.064 A 
HETATM   17  C   UNL     1       5.868  28.293  54.583  1.00  0.00     0.056 A 
ENDROOT
BRANCH  16  18
HETATM   18  N   UNL     1       4.014  29.448  53.389  1.00  0.00    -0.376 N 
HETATM   19  C   UNL     1       3.439  28.184  52.905  1.00  0.00     0.150 C 
HETATM   20  C   UNL     1       4.239  27.631  51.704  1.00  0.00     0.255 C 
HETATM   21  N   UNL     1       4.352  28.663  50.567  1.00  0.00    -0.064 N 
HETATM   22  H   UNL     1       3.397  28.893  50.268  1.00  0.00     0.280 HD
HETATM   23  C   UNL     1       4.952  29.978  51.134  1.00  0.00     0.255 C 
HETATM   24  C   UNL     1       4.122  30.479  52.338  1.00  0.00     0.150 C 
BRANCH  21  25
HETATM   25  C   UNL     1       5.124  28.122  49.349  1.00  0.00     0.188 C 
HETATM   26  C   UNL     1       4.609  26.727  48.940  1.00  0.00     0.033 C 
HETATM   27  C   UNL     1       3.167  26.754  48.432  1.00  0.00     0.002 C 
HETATM   28  C   UNL     1       3.001  27.735  47.274  1.00  0.00     0.000 C 
HETATM   29  C   UNL     1       3.552  29.122  47.599  1.00  0.00     0.002 C 
HETATM   30  C   UNL     1       4.984  29.051  48.130  1.00  0.00     0.033 C 
ENDBRANCH  21  25
ENDBRANCH  16  18
BRANCH   1  31
HETATM   31  N   UNL     1       7.670  26.950  55.689  1.00  0.00    -0.292 NA
HETATM   32  H   UNL     1       8.061  26.810  54.740  1.00  0.00     0.127 HD
BRANCH  31  33
HETATM   33  C   UNL     1       7.040  25.750  56.224  1.00  0.00     0.094 C 
BRANCH  33  34
HETATM   34  C   UNL     1       7.875  24.515  55.873  1.00  0.00     0.042 C 
BRANCH  34  35
HETATM   35  C   UNL     1       7.345  23.789  54.638  1.00  0.00     0.235 C 
BRANCH  35  36
HETATM   36  N   UNL     1       6.946  24.785  53.559  1.00  0.00    -0.079 N 
HETATM   37  C   UNL     1       5.580  24.541  52.976  1.00  0.00     0.269 C 
HETATM   38  H   UNL     1       6.934  25.720  53.990  1.00  0.00     0.278 HD
HETATM   39  C   UNL     1       7.986  24.853  52.469  1.00  0.00     0.269 C 
ENDBRANCH  35  36
ENDBRANCH  34  35
ENDBRANCH  33  34
ENDBRANCH  31  33
ENDBRANCH   1  31
TORSDOF 7
ENDMDL
