MODEL 1
REMARK VINA RESULT:      -9.9      0.000      0.000
REMARK  8 active torsions:
REMARK  status: ('A' for Active; 'I' for Inactive)
REMARK    1  A    between atoms: O_2  and  C_3 
REMARK    2  A    between atoms: C_4  and  O_5 
REMARK    3  A    between atoms: C_7  and  C_8 
REMARK    4  A    between atoms: N_9  and  N_10 
REMARK       I    between atoms: N_10  and  C_11 
REMARK    5  A    between atoms: C_11  and  C_12 
REMARK    6  A    between atoms: C_12  and  N_13 
REMARK       I    between atoms: N_13  and  C_14 
REMARK       I    between atoms: C_14  and  N_15 
REMARK    7  A    between atoms: N_15  and  C_16 
REMARK    8  A    between atoms: C_18  and  C_19 
ROOT
HETATM    1  C   UNL     1       8.550  30.640  58.121  1.00  0.00     0.228 C 
ENDROOT
BRANCH   1   2
HETATM    2  C   UNL     1       8.462  31.437  59.431  1.00  0.00     0.255 C 
HETATM    3  N   UNL     1       7.896  30.728  60.478  1.00  0.00    -0.246 N 
HETATM    4  H   UNL     1       7.638  29.750  60.332  1.00  0.00     0.192 HD
HETATM    5  O   UNL     1       8.965  32.557  59.522  1.00  0.00    -0.270 OA
BRANCH   3   6
HETATM    6  N   UNL     1       7.809  31.271  61.723  1.00  0.00    -0.184 NA
HETATM    7  C   UNL     1       6.786  32.044  61.908  1.00  0.00     0.150 C 
BRANCH   7   8
HETATM    8  C   UNL     1       6.539  32.696  63.208  1.00  0.00    -0.014 A 
HETATM    9  C   UNL     1       5.224  32.919  63.613  1.00  0.00     0.052 A 
HETATM   10  C   UNL     1       4.999  33.533  64.840  1.00  0.00     0.099 A 
HETATM   11  C   UNL     1       6.053  33.931  65.675  1.00  0.00     0.101 A 
HETATM   12  C   UNL     1       7.364  33.698  65.261  1.00  0.00     0.040 A 
HETATM   13  C   UNL     1       7.606  33.083  64.027  1.00  0.00     0.016 A 
BRANCH  10  14
HETATM   14  O   UNL     1       3.703  33.750  65.222  1.00  0.00    -0.358 OA
HETATM   15  H   UNL     1       3.763  34.354  65.989  1.00  0.00     0.218 HD
ENDBRANCH  10  14
BRANCH  11  16
HETATM   16  O   UNL     1       5.669  34.525  66.849  1.00  0.00    -0.353 OA
HETATM   17  C   UNL     1       6.529  34.332  67.967  1.00  0.00     0.210 C 
ENDBRANCH  11  16
ENDBRANCH   7   8
ENDBRANCH   3   6
ENDBRANCH   1   2
BRANCH   1  18
HETATM   18  N   UNL     1       7.873  29.344  58.122  1.00  0.00    -0.334 N 
HETATM   19  C   UNL     1       8.399  28.277  57.432  1.00  0.00     0.321 C 
HETATM   20  N   UNL     1       7.570  27.184  57.482  1.00  0.00    -0.309 N 
HETATM   21  O   UNL     1       9.512  28.331  56.923  1.00  0.00    -0.247 OA
HETATM   22  H   UNL     1       6.852  27.216  58.191  1.00  0.00     0.170 HD
HETATM   23  H   UNL     1       6.866  29.385  58.146  1.00  0.00     0.164 HD
BRANCH  20  24
HETATM   24  C   UNL     1       7.774  25.941  56.848  1.00  0.00     0.037 A 
HETATM   25  C   UNL     1       7.326  25.652  55.556  1.00  0.00     0.045 A 
HETATM   26  C   UNL     1       7.562  24.394  54.974  1.00  0.00     0.050 A 
HETATM   27  C   UNL     1       8.265  23.426  55.706  1.00  0.00     0.016 A 
HETATM   28  C   UNL     1       8.701  23.702  57.000  1.00  0.00     0.003 A 
HETATM   29  C   UNL     1       8.449  24.952  57.571  1.00  0.00     0.029 A 
BRANCH  26  30
HETATM   30  C   UNL     1       7.098  24.096  53.569  1.00  0.00     0.417 C 
HETATM   31  F   UNL     1       5.810  24.466  53.329  1.00  0.00    -0.166 F 
HETATM   32  F   UNL     1       7.852  24.729  52.630  1.00  0.00    -0.166 F 
HETATM   33  F   UNL     1       7.162  22.768  53.266  1.00  0.00    -0.166 F 
ENDBRANCH  26  30
ENDBRANCH  20  24
ENDBRANCH   1  18
TORSDOF 8
ENDMDL
MODEL 2
REMARK VINA RESULT:      -9.7      1.310      1.880
REMARK  8 active torsions:
REMARK  status: ('A' for Active; 'I' for Inactive)
REMARK    1  A    between atoms: O_2  and  C_3 
REMARK    2  A    between atoms: C_4  and  O_5 
REMARK    3  A    between atoms: C_7  and  C_8 
REMARK    4  A    between atoms: N_9  and  N_10 
REMARK       I    between atoms: N_10  and  C_11 
REMARK    5  A    between atoms: C_11  and  C_12 
REMARK    6  A    between atoms: C_12  and  N_13 
REMARK       I    between atoms: N_13  and  C_14 
REMARK       I    between atoms: C_14  and  N_15 
REMARK    7  A    between atoms: N_15  and  C_16 
REMARK    8  A    between atoms: C_18  and  C_19 
ROOT
HETATM    1  C   UNL     1       8.872  30.510  58.380  1.00  0.00     0.228 C 
ENDROOT
BRANCH   1   2
HETATM    2  C   UNL     1       8.372  31.585  59.356  1.00  0.00     0.255 C 
HETATM    3  N   UNL     1       7.282  31.187  60.113  1.00  0.00    -0.246 N 
HETATM    4  H   UNL     1       6.933  30.231  60.017  1.00  0.00     0.192 HD
HETATM    5  O   UNL     1       8.986  32.642  59.498  1.00  0.00    -0.270 OA
BRANCH   3   6
HETATM    6  N   UNL     1       6.763  32.001  61.073  1.00  0.00    -0.184 NA
HETATM    7  C   UNL     1       7.160  31.740  62.278  1.00  0.00     0.150 C 
BRANCH   7   8
HETATM    8  C   UNL     1       6.703  32.542  63.429  1.00  0.00    -0.014 A 
HETATM    9  C   UNL     1       5.336  32.756  63.603  1.00  0.00     0.052 A 
HETATM   10  C   UNL     1       4.913  33.511  64.691  1.00  0.00     0.099 A 
HETATM   11  C   UNL     1       5.818  34.060  65.611  1.00  0.00     0.101 A 
HETATM   12  C   UNL     1       7.182  33.833  65.429  1.00  0.00     0.040 A 
HETATM   13  C   UNL     1       7.624  33.077  64.337  1.00  0.00     0.016 A 
BRANCH  10  14
HETATM   14  O   UNL     1       3.569  33.717  64.846  1.00  0.00    -0.358 OA
HETATM   15  H   UNL     1       3.219  33.802  63.937  1.00  0.00     0.218 HD
ENDBRANCH  10  14
BRANCH  11  16
HETATM   16  O   UNL     1       5.246  34.781  66.626  1.00  0.00    -0.353 OA
HETATM   17  C   UNL     1       5.895  34.717  67.892  1.00  0.00     0.210 C 
ENDBRANCH  11  16
ENDBRANCH   7   8
ENDBRANCH   3   6
ENDBRANCH   1   2
BRANCH   1  18
HETATM   18  N   UNL     1       8.183  29.222  58.450  1.00  0.00    -0.334 N 
HETATM   19  C   UNL     1       8.192  28.361  57.378  1.00  0.00     0.321 C 
HETATM   20  N   UNL     1       7.415  27.254  57.611  1.00  0.00    -0.309 N 
HETATM   21  O   UNL     1       8.891  28.574  56.394  1.00  0.00    -0.247 OA
HETATM   22  H   UNL     1       7.163  27.096  58.576  1.00  0.00     0.170 HD
HETATM   23  H   UNL     1       7.335  29.218  58.997  1.00  0.00     0.164 HD
BRANCH  20  24
HETATM   24  C   UNL     1       7.162  26.197  56.712  1.00  0.00     0.037 A 
HETATM   25  C   UNL     1       7.835  24.973  56.754  1.00  0.00     0.045 A 
HETATM   26  C   UNL     1       7.538  23.953  55.833  1.00  0.00     0.050 A 
HETATM   27  C   UNL     1       6.544  24.174  54.870  1.00  0.00     0.016 A 
HETATM   28  C   UNL     1       5.879  25.397  54.812  1.00  0.00     0.003 A 
HETATM   29  C   UNL     1       6.193  26.406  55.725  1.00  0.00     0.029 A 
BRANCH  26  30
HETATM   30  C   UNL     1       8.251  22.624  55.899  1.00  0.00     0.417 C 
HETATM   31  F   UNL     1       9.484  22.637  55.321  1.00  0.00    -0.166 F 
HETATM   32  F   UNL     1       8.440  22.201  57.179  1.00  0.00    -0.166 F 
HETATM   33  F   UNL     1       7.561  21.628  55.275  1.00  0.00    -0.166 F 
ENDBRANCH  26  30
ENDBRANCH  20  24
ENDBRANCH   1  18
TORSDOF 8
ENDMDL
MODEL 3
REMARK VINA RESULT:      -9.5      5.287     11.913
REMARK  8 active torsions:
REMARK  status: ('A' for Active; 'I' for Inactive)
REMARK    1  A    between atoms: O_2  and  C_3 
REMARK    2  A    between atoms: C_4  and  O_5 
REMARK    3  A    between atoms: C_7  and  C_8 
REMARK    4  A    between atoms: N_9  and  N_10 
REMARK       I    between atoms: N_10  and  C_11 
REMARK    5  A    between atoms: C_11  and  C_12 
REMARK    6  A    between atoms: C_12  and  N_13 
REMARK       I    between atoms: N_13  and  C_14 
REMARK       I    between atoms: C_14  and  N_15 
REMARK    7  A    between atoms: N_15  and  C_16 
REMARK    8  A    between atoms: C_18  and  C_19 
ROOT
HETATM    1  C   UNL     1       8.205  30.148  58.048  1.00  0.00     0.228 C 
ENDROOT
BRANCH   1   2
HETATM    2  C   UNL     1       8.805  28.823  57.558  1.00  0.00     0.255 C 
HETATM    3  N   UNL     1       7.981  27.728  57.764  1.00  0.00    -0.246 N 
HETATM    4  H   UNL     1       7.049  27.876  58.160  1.00  0.00     0.192 HD
HETATM    5  O   UNL     1       9.870  28.802  56.942  1.00  0.00    -0.270 OA
BRANCH   3   6
HETATM    6  N   UNL     1       8.339  26.491  57.324  1.00  0.00    -0.184 NA
HETATM    7  C   UNL     1       7.582  26.007  56.390  1.00  0.00     0.150 C 
BRANCH   7   8
HETATM    8  C   UNL     1       7.847  24.684  55.793  1.00  0.00    -0.014 A 
HETATM    9  C   UNL     1       8.054  23.593  56.635  1.00  0.00     0.052 A 
HETATM   10  C   UNL     1       8.302  22.349  56.066  1.00  0.00     0.099 A 
HETATM   11  C   UNL     1       8.348  22.164  54.677  1.00  0.00     0.101 A 
HETATM   12  C   UNL     1       8.133  23.263  53.845  1.00  0.00     0.040 A 
HETATM   13  C   UNL     1       7.885  24.523  54.404  1.00  0.00     0.016 A 
BRANCH  10  14
HETATM   14  O   UNL     1       8.509  21.288  56.906  1.00  0.00    -0.358 OA
HETATM   15  H   UNL     1       9.131  21.619  57.584  1.00  0.00     0.218 HD
ENDBRANCH  10  14
BRANCH  11  16
HETATM   16  O   UNL     1       8.605  20.881  54.271  1.00  0.00    -0.353 OA
HETATM   17  C   UNL     1       8.104  20.509  52.992  1.00  0.00     0.210 C 
ENDBRANCH  11  16
ENDBRANCH   7   8
ENDBRANCH   3   6
ENDBRANCH   1   2
BRANCH   1  18
HETATM   18  N   UNL     1       7.733  30.157  59.433  1.00  0.00    -0.334 N 
HETATM   19  C   UNL     1       7.527  31.343  60.097  1.00  0.00     0.321 C 
HETATM   20  N   UNL     1       7.177  31.134  61.407  1.00  0.00    -0.309 N 
HETATM   21  O   UNL     1       7.585  32.419  59.515  1.00  0.00    -0.247 OA
HETATM   22  H   UNL     1       6.879  30.196  61.633  1.00  0.00     0.170 HD
HETATM   23  H   UNL     1       8.070  29.397  60.005  1.00  0.00     0.164 HD
BRANCH  20  24
HETATM   24  C   UNL     1       6.937  32.123  62.384  1.00  0.00     0.037 A 
HETATM   25  C   UNL     1       5.750  32.855  62.465  1.00  0.00     0.045 A 
HETATM   26  C   UNL     1       5.566  33.827  63.464  1.00  0.00     0.050 A 
HETATM   27  C   UNL     1       6.592  34.050  64.393  1.00  0.00     0.016 A 
HETATM   28  C   UNL     1       7.785  33.335  64.310  1.00  0.00     0.003 A 
HETATM   29  C   UNL     1       7.959  32.381  63.305  1.00  0.00     0.029 A 
BRANCH  26  30
HETATM   30  C   UNL     1       4.272  34.597  63.561  1.00  0.00     0.417 C 
HETATM   31  F   UNL     1       3.573  34.640  62.394  1.00  0.00    -0.166 F 
HETATM   32  F   UNL     1       3.425  34.071  64.488  1.00  0.00    -0.166 F 
HETATM   33  F   UNL     1       4.462  35.897  63.925  1.00  0.00    -0.166 F 
ENDBRANCH  26  30
ENDBRANCH  20  24
ENDBRANCH   1  18
TORSDOF 8
ENDMDL
MODEL 4
REMARK VINA RESULT:      -8.9      3.324      5.151
REMARK  8 active torsions:
REMARK  status: ('A' for Active; 'I' for Inactive)
REMARK    1  A    between atoms: O_2  and  C_3 
REMARK    2  A    between atoms: C_4  and  O_5 
REMARK    3  A    between atoms: C_7  and  C_8 
REMARK    4  A    between atoms: N_9  and  N_10 
REMARK       I    between atoms: N_10  and  C_11 
REMARK    5  A    between atoms: C_11  and  C_12 
REMARK    6  A    between atoms: C_12  and  N_13 
REMARK       I    between atoms: N_13  and  C_14 
REMARK       I    between atoms: C_14  and  N_15 
REMARK    7  A    between atoms: N_15  and  C_16 
REMARK    8  A    between atoms: C_18  and  C_19 
ROOT
HETATM    1  C   UNL     1       5.326  28.092  53.878  1.00  0.00     0.228 C 
ENDROOT
BRANCH   1   2
HETATM    2  C   UNL     1       5.136  28.996  55.105  1.00  0.00     0.255 C 
HETATM    3  N   UNL     1       6.097  28.813  56.086  1.00  0.00    -0.246 N 
HETATM    4  H   UNL     1       6.865  28.161  55.914  1.00  0.00     0.192 HD
HETATM    5  O   UNL     1       4.264  29.864  55.119  1.00  0.00    -0.270 OA
BRANCH   3   6
HETATM    6  N   UNL     1       6.107  29.587  57.207  1.00  0.00    -0.184 NA
HETATM    7  C   UNL     1       7.278  29.774  57.727  1.00  0.00     0.150 C 
BRANCH   7   8
HETATM    8  C   UNL     1       7.461  30.602  58.933  1.00  0.00    -0.014 A 
HETATM    9  C   UNL     1       8.488  30.284  59.822  1.00  0.00     0.052 A 
HETATM   10  C   UNL     1       8.655  31.070  60.956  1.00  0.00     0.099 A 
HETATM   11  C   UNL     1       7.824  32.166  61.229  1.00  0.00     0.101 A 
HETATM   12  C   UNL     1       6.804  32.478  60.329  1.00  0.00     0.040 A 
HETATM   13  C   UNL     1       6.622  31.694  59.184  1.00  0.00     0.016 A 
BRANCH  10  14
HETATM   14  O   UNL     1       9.664  30.743  61.822  1.00  0.00    -0.358 OA
HETATM   15  H   UNL     1       9.264  30.806  62.712  1.00  0.00     0.218 HD
ENDBRANCH  10  14
BRANCH  11  16
HETATM   16  O   UNL     1       8.114  32.839  62.387  1.00  0.00    -0.353 OA
HETATM   17  C   UNL     1       7.224  32.635  63.478  1.00  0.00     0.210 C 
ENDBRANCH  11  16
ENDBRANCH   7   8
ENDBRANCH   3   6
ENDBRANCH   1   2
BRANCH   1  18
HETATM   18  N   UNL     1       6.502  27.223  53.909  1.00  0.00    -0.334 N 
HETATM   19  C   UNL     1       6.366  25.856  53.856  1.00  0.00     0.321 C 
HETATM   20  N   UNL     1       7.575  25.221  53.991  1.00  0.00    -0.309 N 
HETATM   21  O   UNL     1       5.282  25.330  53.633  1.00  0.00    -0.247 OA
HETATM   22  H   UNL     1       8.388  25.804  53.857  1.00  0.00     0.170 HD
HETATM   23  H   UNL     1       7.267  27.556  54.475  1.00  0.00     0.164 HD
BRANCH  20  24
HETATM   24  C   UNL     1       7.798  23.829  54.028  1.00  0.00     0.037 A 
HETATM   25  C   UNL     1       7.985  23.110  55.212  1.00  0.00     0.045 A 
HETATM   26  C   UNL     1       8.200  21.721  55.187  1.00  0.00     0.050 A 
HETATM   27  C   UNL     1       8.216  21.056  53.953  1.00  0.00     0.016 A 
HETATM   28  C   UNL     1       8.045  21.768  52.768  1.00  0.00     0.003 A 
HETATM   29  C   UNL     1       7.844  23.150  52.806  1.00  0.00     0.029 A 
BRANCH  26  30
HETATM   30  C   UNL     1       8.378  20.946  56.470  1.00  0.00     0.417 C 
HETATM   31  F   UNL     1       8.343  21.724  57.588  1.00  0.00    -0.166 F 
HETATM   32  F   UNL     1       7.415  19.999  56.640  1.00  0.00    -0.166 F 
HETATM   33  F   UNL     1       9.567  20.282  56.521  1.00  0.00    -0.166 F 
ENDBRANCH  26  30
ENDBRANCH  20  24
ENDBRANCH   1  18
TORSDOF 8
ENDMDL
MODEL 5
REMARK VINA RESULT:      -8.9      9.529     14.022
REMARK  8 active torsions:
REMARK  status: ('A' for Active; 'I' for Inactive)
REMARK    1  A    between atoms: O_2  and  C_3 
REMARK    2  A    between atoms: C_4  and  O_5 
REMARK    3  A    between atoms: C_7  and  C_8 
REMARK    4  A    between atoms: N_9  and  N_10 
REMARK       I    between atoms: N_10  and  C_11 
REMARK    5  A    between atoms: C_11  and  C_12 
REMARK    6  A    between atoms: C_12  and  N_13 
REMARK       I    between atoms: N_13  and  C_14 
REMARK       I    between atoms: C_14  and  N_15 
REMARK    7  A    between atoms: N_15  and  C_16 
REMARK    8  A    between atoms: C_18  and  C_19 
ROOT
HETATM    1  C   UNL     1       4.908  27.783  50.574  1.00  0.00     0.228 C 
ENDROOT
BRANCH   1   2
HETATM    2  C   UNL     1       4.145  27.693  49.245  1.00  0.00     0.255 C 
HETATM    3  N   UNL     1       2.786  27.469  49.397  1.00  0.00    -0.246 N 
HETATM    4  H   UNL     1       2.391  27.435  50.339  1.00  0.00     0.192 HD
HETATM    5  O   UNL     1       4.711  27.919  48.176  1.00  0.00    -0.270 OA
BRANCH   3   6
HETATM    6  N   UNL     1       1.959  27.431  48.316  1.00  0.00    -0.184 NA
HETATM    7  C   UNL     1       1.339  28.541  48.069  1.00  0.00     0.150 C 
BRANCH   7   8
HETATM    8  C   UNL     1       0.419  28.670  46.922  1.00  0.00    -0.014 A 
HETATM    9  C   UNL     1       0.270  27.592  46.051  1.00  0.00     0.052 A 
HETATM   10  C   UNL     1      -0.598  27.720  44.973  1.00  0.00     0.099 A 
HETATM   11  C   UNL     1      -1.324  28.898  44.741  1.00  0.00     0.101 A 
HETATM   12  C   UNL     1      -1.171  29.968  45.623  1.00  0.00     0.040 A 
HETATM   13  C   UNL     1      -0.297  29.854  46.711  1.00  0.00     0.016 A 
BRANCH  10  14
HETATM   14  O   UNL     1      -0.731  26.655  44.124  1.00  0.00    -0.358 OA
HETATM   15  H   UNL     1       0.020  26.067  44.338  1.00  0.00     0.218 HD
ENDBRANCH  10  14
BRANCH  11  16
HETATM   16  O   UNL     1      -2.136  28.870  43.638  1.00  0.00    -0.353 OA
HETATM   17  C   UNL     1      -2.073  30.002  42.777  1.00  0.00     0.210 C 
ENDBRANCH  11  16
ENDBRANCH   7   8
ENDBRANCH   3   6
ENDBRANCH   1   2
BRANCH   1  18
HETATM   18  N   UNL     1       5.990  26.814  50.750  1.00  0.00    -0.334 N 
HETATM   19  C   UNL     1       6.037  26.008  51.863  1.00  0.00     0.321 C 
HETATM   20  N   UNL     1       7.175  25.241  51.883  1.00  0.00    -0.309 N 
HETATM   21  O   UNL     1       5.109  25.967  52.661  1.00  0.00    -0.247 OA
HETATM   22  H   UNL     1       7.672  25.177  51.007  1.00  0.00     0.170 HD
HETATM   23  H   UNL     1       6.888  27.104  50.392  1.00  0.00     0.164 HD
BRANCH  20  24
HETATM   24  C   UNL     1       7.566  24.340  52.896  1.00  0.00     0.037 A 
HETATM   25  C   UNL     1       7.672  22.960  52.701  1.00  0.00     0.045 A 
HETATM   26  C   UNL     1       8.072  22.111  53.748  1.00  0.00     0.050 A 
HETATM   27  C   UNL     1       8.374  22.668  54.998  1.00  0.00     0.016 A 
HETATM   28  C   UNL     1       8.256  24.041  55.204  1.00  0.00     0.003 A 
HETATM   29  C   UNL     1       7.846  24.871  54.159  1.00  0.00     0.029 A 
BRANCH  26  30
HETATM   30  C   UNL     1       8.207  20.625  53.525  1.00  0.00     0.417 C 
HETATM   31  F   UNL     1       9.329  20.275  52.837  1.00  0.00    -0.166 F 
HETATM   32  F   UNL     1       8.250  19.928  54.694  1.00  0.00    -0.166 F 
HETATM   33  F   UNL     1       7.165  20.103  52.818  1.00  0.00    -0.166 F 
ENDBRANCH  26  30
ENDBRANCH  20  24
ENDBRANCH   1  18
TORSDOF 8
ENDMDL
MODEL 6
REMARK VINA RESULT:      -8.7      3.216      3.947
REMARK  8 active torsions:
REMARK  status: ('A' for Active; 'I' for Inactive)
REMARK    1  A    between atoms: O_2  and  C_3 
REMARK    2  A    between atoms: C_4  and  O_5 
REMARK    3  A    between atoms: C_7  and  C_8 
REMARK    4  A    between atoms: N_9  and  N_10 
REMARK       I    between atoms: N_10  and  C_11 
REMARK    5  A    between atoms: C_11  and  C_12 
REMARK    6  A    between atoms: C_12  and  N_13 
REMARK       I    between atoms: N_13  and  C_14 
REMARK       I    between atoms: C_14  and  N_15 
REMARK    7  A    between atoms: N_15  and  C_16 
REMARK    8  A    between atoms: C_18  and  C_19 
ROOT
HETATM    1  C   UNL     1       4.148  29.334  55.521  1.00  0.00     0.228 C 
ENDROOT
BRANCH   1   2
HETATM    2  C   UNL     1       4.477  29.779  56.953  1.00  0.00     0.255 C 
HETATM    3  N   UNL     1       3.453  30.481  57.568  1.00  0.00    -0.246 N 
HETATM    4  H   UNL     1       2.567  30.602  57.072  1.00  0.00     0.192 HD
HETATM    5  O   UNL     1       5.520  29.423  57.500  1.00  0.00    -0.270 OA
BRANCH   3   6
HETATM    6  N   UNL     1       3.563  30.886  58.862  1.00  0.00    -0.184 NA
HETATM    7  C   UNL     1       4.022  32.088  59.018  1.00  0.00     0.150 C 
BRANCH   7   8
HETATM    8  C   UNL     1       4.185  32.681  60.359  1.00  0.00    -0.014 A 
HETATM    9  C   UNL     1       3.076  32.765  61.200  1.00  0.00     0.052 A 
HETATM   10  C   UNL     1       3.237  33.325  62.462  1.00  0.00     0.099 A 
HETATM   11  C   UNL     1       4.477  33.804  62.909  1.00  0.00     0.101 A 
HETATM   12  C   UNL     1       5.580  33.709  62.061  1.00  0.00     0.040 A 
HETATM   13  C   UNL     1       5.433  33.150  60.785  1.00  0.00     0.016 A 
BRANCH  10  14
HETATM   14  O   UNL     1       2.138  33.406  63.274  1.00  0.00    -0.358 OA
HETATM   15  H   UNL     1       2.084  32.534  63.713  1.00  0.00     0.218 HD
ENDBRANCH  10  14
BRANCH  11  16
HETATM   16  O   UNL     1       4.473  34.329  64.175  1.00  0.00    -0.353 OA
HETATM   17  C   UNL     1       5.216  33.617  65.158  1.00  0.00     0.210 C 
ENDBRANCH  11  16
ENDBRANCH   7   8
ENDBRANCH   3   6
ENDBRANCH   1   2
BRANCH   1  18
HETATM   18  N   UNL     1       4.214  27.894  55.275  1.00  0.00    -0.334 N 
HETATM   19  C   UNL     1       5.363  27.316  54.789  1.00  0.00     0.321 C 
HETATM   20  N   UNL     1       5.191  25.978  54.539  1.00  0.00    -0.309 N 
HETATM   21  O   UNL     1       6.405  27.953  54.689  1.00  0.00    -0.247 OA
HETATM   22  H   UNL     1       4.375  25.559  54.963  1.00  0.00     0.170 HD
HETATM   23  H   UNL     1       3.354  27.473  54.955  1.00  0.00     0.164 HD
BRANCH  20  24
HETATM   24  C   UNL     1       6.143  25.091  53.996  1.00  0.00     0.037 A 
HETATM   25  C   UNL     1       6.581  23.936  54.648  1.00  0.00     0.045 A 
HETATM   26  C   UNL     1       7.532  23.086  54.055  1.00  0.00     0.050 A 
HETATM   27  C   UNL     1       8.034  23.409  52.786  1.00  0.00     0.016 A 
HETATM   28  C   UNL     1       7.614  24.567  52.136  1.00  0.00     0.003 A 
HETATM   29  C   UNL     1       6.678  25.408  52.743  1.00  0.00     0.029 A 
BRANCH  26  30
HETATM   30  C   UNL     1       7.983  21.827  54.754  1.00  0.00     0.417 C 
HETATM   31  F   UNL     1       9.336  21.684  54.805  1.00  0.00    -0.166 F 
HETATM   32  F   UNL     1       7.549  21.767  56.043  1.00  0.00    -0.166 F 
HETATM   33  F   UNL     1       7.515  20.697  54.151  1.00  0.00    -0.166 F 
ENDBRANCH  26  30
ENDBRANCH  20  24
ENDBRANCH   1  18
TORSDOF 8
ENDMDL
MODEL 7
REMARK VINA RESULT:      -8.7      9.237     13.955
REMARK  8 active torsions:
REMARK  status: ('A' for Active; 'I' for Inactive)
REMARK    1  A    between atoms: O_2  and  C_3 
REMARK    2  A    between atoms: C_4  and  O_5 
REMARK    3  A    between atoms: C_7  and  C_8 
REMARK    4  A    between atoms: N_9  and  N_10 
REMARK       I    between atoms: N_10  and  C_11 
REMARK    5  A    between atoms: C_11  and  C_12 
REMARK    6  A    between atoms: C_12  and  N_13 
REMARK       I    between atoms: N_13  and  C_14 
REMARK       I    between atoms: C_14  and  N_15 
REMARK    7  A    between atoms: N_15  and  C_16 
REMARK    8  A    between atoms: C_18  and  C_19 
ROOT
HETATM    1  C   UNL     1       5.007  27.272  50.747  1.00  0.00     0.228 C 
ENDROOT
BRANCH   1   2
HETATM    2  C   UNL     1       4.335  27.238  49.367  1.00  0.00     0.255 C 
HETATM    3  N   UNL     1       2.953  27.324  49.418  1.00  0.00    -0.246 N 
HETATM    4  H   UNL     1       2.497  27.454  50.323  1.00  0.00     0.192 HD
HETATM    5  O   UNL     1       5.009  27.249  48.338  1.00  0.00    -0.270 OA
BRANCH   3   6
HETATM    6  N   UNL     1       2.214  27.376  48.276  1.00  0.00    -0.184 NA
HETATM    7  C   UNL     1       1.436  28.407  48.179  1.00  0.00     0.150 C 
BRANCH   7   8
HETATM    8  C   UNL     1       0.583  28.619  46.995  1.00  0.00    -0.014 A 
HETATM    9  C   UNL     1       0.240  27.523  46.204  1.00  0.00     0.052 A 
HETATM   10  C   UNL     1      -0.565  27.730  45.089  1.00  0.00     0.099 A 
HETATM   11  C   UNL     1      -1.039  29.003  44.743  1.00  0.00     0.101 A 
HETATM   12  C   UNL     1      -0.694  30.091  45.545  1.00  0.00     0.040 A 
HETATM   13  C   UNL     1       0.119  29.898  46.669  1.00  0.00     0.016 A 
BRANCH  10  14
HETATM   14  O   UNL     1      -0.889  26.645  44.320  1.00  0.00    -0.358 OA
HETATM   15  H   UNL     1      -0.294  25.932  44.626  1.00  0.00     0.218 HD
ENDBRANCH  10  14
BRANCH  11  16
HETATM   16  O   UNL     1      -1.818  29.045  43.616  1.00  0.00    -0.353 OA
HETATM   17  C   UNL     1      -2.867  30.007  43.607  1.00  0.00     0.210 C 
ENDBRANCH  11  16
ENDBRANCH   7   8
ENDBRANCH   3   6
ENDBRANCH   1   2
BRANCH   1  18
HETATM   18  N   UNL     1       6.086  26.305  50.950  1.00  0.00    -0.334 N 
HETATM   19  C   UNL     1       6.106  25.499  52.064  1.00  0.00     0.321 C 
HETATM   20  N   UNL     1       7.244  24.734  52.114  1.00  0.00    -0.309 N 
HETATM   21  O   UNL     1       5.158  25.456  52.839  1.00  0.00    -0.247 OA
HETATM   22  H   UNL     1       7.763  24.671  51.250  1.00  0.00     0.170 HD
HETATM   23  H   UNL     1       6.991  26.597  50.615  1.00  0.00     0.164 HD
BRANCH  20  24
HETATM   24  C   UNL     1       7.612  23.834  53.135  1.00  0.00     0.037 A 
HETATM   25  C   UNL     1       7.817  24.217  54.463  1.00  0.00     0.045 A 
HETATM   26  C   UNL     1       8.180  23.274  55.441  1.00  0.00     0.050 A 
HETATM   27  C   UNL     1       8.326  21.930  55.068  1.00  0.00     0.016 A 
HETATM   28  C   UNL     1       8.137  21.542  53.744  1.00  0.00     0.003 A 
HETATM   29  C   UNL     1       7.789  22.492  52.780  1.00  0.00     0.029 A 
BRANCH  26  30
HETATM   30  C   UNL     1       8.377  23.690  56.878  1.00  0.00     0.417 C 
HETATM   31  F   UNL     1       9.521  24.396  57.090  1.00  0.00    -0.166 F 
HETATM   32  F   UNL     1       7.361  24.474  57.333  1.00  0.00    -0.166 F 
HETATM   33  F   UNL     1       8.436  22.627  57.728  1.00  0.00    -0.166 F 
ENDBRANCH  26  30
ENDBRANCH  20  24
ENDBRANCH   1  18
TORSDOF 8
ENDMDL
MODEL 8
REMARK VINA RESULT:      -8.7      4.057      5.626
REMARK  8 active torsions:
REMARK  status: ('A' for Active; 'I' for Inactive)
REMARK    1  A    between atoms: O_2  and  C_3 
REMARK    2  A    between atoms: C_4  and  O_5 
REMARK    3  A    between atoms: C_7  and  C_8 
REMARK    4  A    between atoms: N_9  and  N_10 
REMARK       I    between atoms: N_10  and  C_11 
REMARK    5  A    between atoms: C_11  and  C_12 
REMARK    6  A    between atoms: C_12  and  N_13 
REMARK       I    between atoms: N_13  and  C_14 
REMARK       I    between atoms: C_14  and  N_15 
REMARK    7  A    between atoms: N_15  and  C_16 
REMARK    8  A    between atoms: C_18  and  C_19 
ROOT
HETATM    1  C   UNL     1       4.375  27.577  53.275  1.00  0.00     0.228 C 
ENDROOT
BRANCH   1   2
HETATM    2  C   UNL     1       3.979  28.692  54.255  1.00  0.00     0.255 C 
HETATM    3  N   UNL     1       4.219  28.378  55.583  1.00  0.00    -0.246 N 
HETATM    4  H   UNL     1       4.673  27.490  55.809  1.00  0.00     0.192 HD
HETATM    5  O   UNL     1       3.597  29.786  53.843  1.00  0.00    -0.270 OA
BRANCH   3   6
HETATM    6  N   UNL     1       3.986  29.287  56.568  1.00  0.00    -0.184 NA
HETATM    7  C   UNL     1       5.046  29.873  57.028  1.00  0.00     0.150 C 
BRANCH   7   8
HETATM    8  C   UNL     1       4.962  30.896  58.087  1.00  0.00    -0.014 A 
HETATM    9  C   UNL     1       3.721  31.180  58.655  1.00  0.00     0.052 A 
HETATM   10  C   UNL     1       3.648  32.145  59.653  1.00  0.00     0.099 A 
HETATM   11  C   UNL     1       4.784  32.836  60.101  1.00  0.00     0.101 A 
HETATM   12  C   UNL     1       6.021  32.539  59.528  1.00  0.00     0.040 A 
HETATM   13  C   UNL     1       6.108  31.572  58.520  1.00  0.00     0.016 A 
BRANCH  10  14
HETATM   14  O   UNL     1       2.423  32.416  60.199  1.00  0.00    -0.358 OA
HETATM   15  H   UNL     1       2.419  31.949  61.058  1.00  0.00     0.218 HD
ENDBRANCH  10  14
BRANCH  11  16
HETATM   16  O   UNL     1       4.550  33.758  61.087  1.00  0.00    -0.353 OA
HETATM   17  C   UNL     1       5.643  34.054  61.950  1.00  0.00     0.210 C 
ENDBRANCH  11  16
ENDBRANCH   7   8
ENDBRANCH   3   6
ENDBRANCH   1   2
BRANCH   1  18
HETATM   18  N   UNL     1       5.633  26.893  53.570  1.00  0.00    -0.334 N 
HETATM   19  C   UNL     1       5.725  25.523  53.485  1.00  0.00     0.321 C 
HETATM   20  N   UNL     1       6.956  25.072  53.889  1.00  0.00    -0.309 N 
HETATM   21  O   UNL     1       4.812  24.850  53.021  1.00  0.00    -0.247 OA
HETATM   22  H   UNL     1       7.679  25.775  53.944  1.00  0.00     0.170 HD
HETATM   23  H   UNL     1       6.192  27.316  54.295  1.00  0.00     0.164 HD
BRANCH  20  24
HETATM   24  C   UNL     1       7.377  23.729  53.973  1.00  0.00     0.037 A 
HETATM   25  C   UNL     1       7.623  23.073  55.182  1.00  0.00     0.045 A 
HETATM   26  C   UNL     1       8.038  21.730  55.204  1.00  0.00     0.050 A 
HETATM   27  C   UNL     1       8.195  21.046  53.991  1.00  0.00     0.016 A 
HETATM   28  C   UNL     1       7.966  21.697  52.781  1.00  0.00     0.003 A 
HETATM   29  C   UNL     1       7.566  23.036  52.773  1.00  0.00     0.029 A 
BRANCH  26  30
HETATM   30  C   UNL     1       8.279  21.020  56.514  1.00  0.00     0.417 C 
HETATM   31  F   UNL     1       8.202  21.836  57.601  1.00  0.00    -0.166 F 
HETATM   32  F   UNL     1       7.384  20.017  56.732  1.00  0.00    -0.166 F 
HETATM   33  F   UNL     1       9.511  20.439  56.577  1.00  0.00    -0.166 F 
ENDBRANCH  26  30
ENDBRANCH  20  24
ENDBRANCH   1  18
TORSDOF 8
ENDMDL
MODEL 9
REMARK VINA RESULT:      -8.7      1.886      2.644
REMARK  8 active torsions:
REMARK  status: ('A' for Active; 'I' for Inactive)
REMARK    1  A    between atoms: O_2  and  C_3 
REMARK    2  A    between atoms: C_4  and  O_5 
REMARK    3  A    between atoms: C_7  and  C_8 
REMARK    4  A    between atoms: N_9  and  N_10 
REMARK       I    between atoms: N_10  and  C_11 
REMARK    5  A    between atoms: C_11  and  C_12 
REMARK    6  A    between atoms: C_12  and  N_13 
REMARK       I    between atoms: N_13  and  C_14 
REMARK       I    between atoms: C_14  and  N_15 
REMARK    7  A    between atoms: N_15  and  C_16 
REMARK    8  A    between atoms: C_18  and  C_19 
ROOT
HETATM    1  C   UNL     1       7.792  29.844  57.512  1.00  0.00     0.228 C 
ENDROOT
BRANCH   1   2
HETATM    2  C   UNL     1       6.857  30.616  58.455  1.00  0.00     0.255 C 
HETATM    3  N   UNL     1       7.467  31.033  59.626  1.00  0.00    -0.246 N 
HETATM    4  H   UNL     1       8.466  30.857  59.755  1.00  0.00     0.192 HD
HETATM    5  O   UNL     1       5.714  30.910  58.107  1.00  0.00    -0.270 OA
BRANCH   3   6
HETATM    6  N   UNL     1       6.792  31.788  60.535  1.00  0.00    -0.184 NA
HETATM    7  C   UNL     1       7.259  31.732  61.742  1.00  0.00     0.150 C 
BRANCH   7   8
HETATM    8  C   UNL     1       6.650  32.506  62.840  1.00  0.00    -0.014 A 
HETATM    9  C   UNL     1       7.481  33.103  63.787  1.00  0.00     0.052 A 
HETATM   10  C   UNL     1       6.900  33.832  64.819  1.00  0.00     0.099 A 
HETATM   11  C   UNL     1       5.510  33.981  64.931  1.00  0.00     0.101 A 
HETATM   12  C   UNL     1       4.690  33.383  63.974  1.00  0.00     0.040 A 
HETATM   13  C   UNL     1       5.261  32.644  62.931  1.00  0.00     0.016 A 
BRANCH  10  14
HETATM   14  O   UNL     1       7.727  34.409  65.744  1.00  0.00    -0.358 OA
HETATM   15  H   UNL     1       8.558  33.895  65.696  1.00  0.00     0.218 HD
ENDBRANCH  10  14
BRANCH  11  16
HETATM   16  O   UNL     1       5.091  34.725  66.003  1.00  0.00    -0.353 OA
HETATM   17  C   UNL     1       4.503  34.007  67.082  1.00  0.00     0.210 C 
ENDBRANCH  11  16
ENDBRANCH   7   8
ENDBRANCH   3   6
ENDBRANCH   1   2
BRANCH   1  18
HETATM   18  N   UNL     1       7.132  28.970  56.542  1.00  0.00    -0.334 N 
HETATM   19  C   UNL     1       7.743  27.818  56.106  1.00  0.00     0.321 C 
HETATM   20  N   UNL     1       7.006  27.191  55.133  1.00  0.00    -0.309 N 
HETATM   21  O   UNL     1       8.779  27.410  56.618  1.00  0.00    -0.247 OA
HETATM   22  H   UNL     1       6.046  27.495  55.052  1.00  0.00     0.170 HD
HETATM   23  H   UNL     1       6.567  29.443  55.853  1.00  0.00     0.164 HD
BRANCH  20  24
HETATM   24  C   UNL     1       7.354  26.017  54.435  1.00  0.00     0.037 A 
HETATM   25  C   UNL     1       7.686  24.815  55.066  1.00  0.00     0.045 A 
HETATM   26  C   UNL     1       8.023  23.674  54.316  1.00  0.00     0.050 A 
HETATM   27  C   UNL     1       8.014  23.752  52.917  1.00  0.00     0.016 A 
HETATM   28  C   UNL     1       7.699  24.950  52.281  1.00  0.00     0.003 A 
HETATM   29  C   UNL     1       7.379  26.080  53.037  1.00  0.00     0.029 A 
BRANCH  26  30
HETATM   30  C   UNL     1       8.356  22.372  55.003  1.00  0.00     0.417 C 
HETATM   31  F   UNL     1       9.006  22.530  56.189  1.00  0.00    -0.166 F 
HETATM   32  F   UNL     1       7.246  21.633  55.278  1.00  0.00    -0.166 F 
HETATM   33  F   UNL     1       9.159  21.571  54.247  1.00  0.00    -0.166 F 
ENDBRANCH  26  30
ENDBRANCH  20  24
ENDBRANCH   1  18
TORSDOF 8
ENDMDL
MODEL 10
REMARK VINA RESULT:      -8.6      6.684      8.058
REMARK  8 active torsions:
REMARK  status: ('A' for Active; 'I' for Inactive)
REMARK    1  A    between atoms: O_2  and  C_3 
REMARK    2  A    between atoms: C_4  and  O_5 
REMARK    3  A    between atoms: C_7  and  C_8 
REMARK    4  A    between atoms: N_9  and  N_10 
REMARK       I    between atoms: N_10  and  C_11 
REMARK    5  A    between atoms: C_11  and  C_12 
REMARK    6  A    between atoms: C_12  and  N_13 
REMARK       I    between atoms: N_13  and  C_14 
REMARK       I    between atoms: C_14  and  N_15 
REMARK    7  A    between atoms: N_15  and  C_16 
REMARK    8  A    between atoms: C_18  and  C_19 
ROOT
HETATM    1  C   UNL     1       4.581  27.047  49.791  1.00  0.00     0.228 C 
ENDROOT
BRANCH   1   2
HETATM    2  C   UNL     1       3.977  28.274  50.490  1.00  0.00     0.255 C 
HETATM    3  N   UNL     1       3.614  28.043  51.807  1.00  0.00    -0.246 N 
HETATM    4  H   UNL     1       3.814  27.131  52.224  1.00  0.00     0.192 HD
HETATM    5  O   UNL     1       3.945  29.368  49.927  1.00  0.00    -0.270 OA
BRANCH   3   6
HETATM    6  N   UNL     1       3.126  29.049  52.583  1.00  0.00    -0.184 NA
HETATM    7  C   UNL     1       3.976  29.544  53.427  1.00  0.00     0.150 C 
BRANCH   7   8
HETATM    8  C   UNL     1       3.608  30.652  54.329  1.00  0.00    -0.014 A 
HETATM    9  C   UNL     1       3.555  30.416  55.702  1.00  0.00     0.052 A 
HETATM   10  C   UNL     1       3.209  31.464  56.546  1.00  0.00     0.099 A 
HETATM   11  C   UNL     1       2.914  32.745  56.057  1.00  0.00     0.101 A 
HETATM   12  C   UNL     1       2.976  32.970  54.681  1.00  0.00     0.040 A 
HETATM   13  C   UNL     1       3.320  31.923  53.818  1.00  0.00     0.016 A 
BRANCH  10  14
HETATM   14  O   UNL     1       3.156  31.217  57.891  1.00  0.00    -0.358 OA
HETATM   15  H   UNL     1       2.365  30.655  58.014  1.00  0.00     0.218 HD
ENDBRANCH  10  14
BRANCH  11  16
HETATM   16  O   UNL     1       2.588  33.670  57.013  1.00  0.00    -0.353 OA
HETATM   17  C   UNL     1       3.177  34.959  56.875  1.00  0.00     0.210 C 
ENDBRANCH  11  16
ENDBRANCH   7   8
ENDBRANCH   3   6
ENDBRANCH   1   2
BRANCH   1  18
HETATM   18  N   UNL     1       5.840  26.557  50.351  1.00  0.00    -0.334 N 
HETATM   19  C   UNL     1       5.844  25.611  51.349  1.00  0.00     0.321 C 
HETATM   20  N   UNL     1       7.115  25.355  51.799  1.00  0.00    -0.309 N 
HETATM   21  O   UNL     1       4.814  25.044  51.696  1.00  0.00    -0.247 OA
HETATM   22  H   UNL     1       7.860  25.678  51.199  1.00  0.00     0.170 HD
HETATM   23  H   UNL     1       6.581  27.239  50.404  1.00  0.00     0.164 HD
BRANCH  20  24
HETATM   24  C   UNL     1       7.480  24.479  52.841  1.00  0.00     0.037 A 
HETATM   25  C   UNL     1       7.623  23.099  52.674  1.00  0.00     0.045 A 
HETATM   26  C   UNL     1       7.994  22.274  53.751  1.00  0.00     0.050 A 
HETATM   27  C   UNL     1       8.229  22.857  55.005  1.00  0.00     0.016 A 
HETATM   28  C   UNL     1       8.073  24.230  55.183  1.00  0.00     0.003 A 
HETATM   29  C   UNL     1       7.692  25.035  54.107  1.00  0.00     0.029 A 
BRANCH  26  30
HETATM   30  C   UNL     1       8.171  20.788  53.559  1.00  0.00     0.417 C 
HETATM   31  F   UNL     1       9.382  20.444  53.039  1.00  0.00    -0.166 F 
HETATM   32  F   UNL     1       8.052  20.097  54.726  1.00  0.00    -0.166 F 
HETATM   33  F   UNL     1       7.243  20.255  52.714  1.00  0.00    -0.166 F 
ENDBRANCH  26  30
ENDBRANCH  20  24
ENDBRANCH   1  18
TORSDOF 8
ENDMDL
