MODEL 1
REMARK VINA RESULT:     -10.6      0.000      0.000
REMARK  4 active torsions:
REMARK  status: ('A' for Active; 'I' for Inactive)
REMARK    1  A    between atoms: C_7  and  C_8 
REMARK    2  A    between atoms: N_9  and  N_10 
REMARK       I    between atoms: N_10  and  C_11 
REMARK    3  A    between atoms: C_11  and  C_12 
REMARK    4  A    between atoms: C_16  and  C_17 
ROOT
HETATM    1  N   UNL     1       8.008  29.045  56.665  1.00  0.00    -0.242 N 
HETATM    2  C   UNL     1       9.155  29.662  57.140  1.00  0.00     0.289 C 
HETATM    3  O   UNL     1      10.273  29.510  56.656  1.00  0.00    -0.264 OA
HETATM    4  H   UNL     1       7.114  29.210  57.107  1.00  0.00     0.192 HD
ENDROOT
BRANCH   2   5
HETATM    5  C   UNL     1       8.951  30.525  58.277  1.00  0.00     0.121 A 
HETATM    6  N   UNL     1       9.734  31.628  58.473  1.00  0.00    -0.272 N 
HETATM    7  H   UNL     1      10.496  31.942  57.879  1.00  0.00     0.189 HD
HETATM    8  N   UNL     1       9.427  32.334  59.570  1.00  0.00    -0.174 NA
HETATM    9  C   UNL     1       8.399  31.675  60.127  1.00  0.00     0.089 A 
HETATM   10  C   UNL     1       8.071  30.531  59.341  1.00  0.00     0.071 A 
BRANCH   9  11
HETATM   11  C   UNL     1       7.770  32.145  61.369  1.00  0.00    -0.003 A 
HETATM   12  C   UNL     1       6.409  32.488  61.408  1.00  0.00     0.053 A 
HETATM   13  C   UNL     1       5.876  32.923  62.606  1.00  0.00     0.106 A 
HETATM   14  C   UNL     1       6.635  33.028  63.747  1.00  0.00     0.105 A 
HETATM   15  O   UNL     1       4.582  33.292  62.808  1.00  0.00    -0.323 OA
HETATM   16  O   UNL     1       5.916  33.475  64.811  1.00  0.00    -0.323 OA
HETATM   17  C   UNL     1       7.971  32.703  63.756  1.00  0.00     0.040 A 
HETATM   18  C   UNL     1       4.615  33.640  64.209  1.00  0.00     0.352 A 
HETATM   19  C   UNL     1       8.538  32.259  62.555  1.00  0.00     0.017 A 
ENDBRANCH   9  11
ENDBRANCH   2   5
BRANCH   1  20
HETATM   20  N   UNL     1       8.080  28.205  55.590  1.00  0.00    -0.183 NA
HETATM   21  C   UNL     1       7.170  27.289  55.519  1.00  0.00     0.153 C 
BRANCH  21  22
HETATM   22  C   UNL     1       7.160  26.347  54.414  1.00  0.00     0.018 A 
HETATM   23  C   UNL     1       6.691  26.573  53.126  1.00  0.00     0.018 A 
HETATM   24  C   UNL     1       6.085  27.781  52.500  1.00  0.00     0.069 C 
HETATM   25  N   UNL     1       6.871  25.419  52.406  1.00  0.00    -0.358 N 
HETATM   26  H   UNL     1       6.619  25.296  51.435  1.00  0.00     0.166 HD
HETATM   27  C   UNL     1       7.444  24.444  53.187  1.00  0.00     0.043 A 
HETATM   28  C   UNL     1       7.639  24.995  54.454  1.00  0.00     0.004 A 
HETATM   29  C   UNL     1       7.799  23.129  52.865  1.00  0.00     0.030 A 
HETATM   30  C   UNL     1       8.221  24.182  55.450  1.00  0.00     0.014 A 
HETATM   31  C   UNL     1       8.583  22.864  55.146  1.00  0.00     0.001 A 
HETATM   32  C   UNL     1       8.374  22.348  53.870  1.00  0.00     0.002 A 
ENDBRANCH  21  22
ENDBRANCH   1  20
TORSDOF 4
ENDMDL
MODEL 2
REMARK VINA RESULT:     -10.4      1.769      2.349
REMARK  4 active torsions:
REMARK  status: ('A' for Active; 'I' for Inactive)
REMARK    1  A    between atoms: C_7  and  C_8 
REMARK    2  A    between atoms: N_9  and  N_10 
REMARK       I    between atoms: N_10  and  C_11 
REMARK    3  A    between atoms: C_11  and  C_12 
REMARK    4  A    between atoms: C_16  and  C_17 
ROOT
HETATM    1  N   UNL     1       6.897  27.222  56.305  1.00  0.00    -0.242 N 
HETATM    2  C   UNL     1       7.513  28.441  56.069  1.00  0.00     0.289 C 
HETATM    3  O   UNL     1       8.152  28.709  55.055  1.00  0.00    -0.264 OA
HETATM    4  H   UNL     1       6.384  27.061  57.161  1.00  0.00     0.192 HD
ENDROOT
BRANCH   2   5
HETATM    5  C   UNL     1       7.353  29.414  57.122  1.00  0.00     0.121 A 
HETATM    6  N   UNL     1       6.563  30.515  56.949  1.00  0.00    -0.272 N 
HETATM    7  H   UNL     1       6.034  30.755  56.115  1.00  0.00     0.189 HD
HETATM    8  N   UNL     1       6.509  31.328  58.013  1.00  0.00    -0.174 NA
HETATM    9  C   UNL     1       7.296  30.746  58.931  1.00  0.00     0.089 A 
HETATM   10  C   UNL     1       7.845  29.538  58.407  1.00  0.00     0.071 A 
BRANCH   9  11
HETATM   11  C   UNL     1       7.500  31.344  60.258  1.00  0.00    -0.003 A 
HETATM   12  C   UNL     1       6.558  32.230  60.806  1.00  0.00     0.053 A 
HETATM   13  C   UNL     1       6.806  32.759  62.058  1.00  0.00     0.106 A 
HETATM   14  C   UNL     1       7.939  32.446  62.771  1.00  0.00     0.105 A 
HETATM   15  O   UNL     1       5.998  33.627  62.724  1.00  0.00    -0.323 OA
HETATM   16  O   UNL     1       7.986  33.075  63.975  1.00  0.00    -0.323 OA
HETATM   17  C   UNL     1       8.887  31.583  62.274  1.00  0.00     0.040 A 
HETATM   18  C   UNL     1       6.752  33.822  63.940  1.00  0.00     0.352 A 
HETATM   19  C   UNL     1       8.661  31.032  61.007  1.00  0.00     0.017 A 
ENDBRANCH   9  11
ENDBRANCH   2   5
BRANCH   1  20
HETATM   20  N   UNL     1       6.981  26.224  55.376  1.00  0.00    -0.183 NA
HETATM   21  C   UNL     1       7.760  25.234  55.669  1.00  0.00     0.153 C 
BRANCH  21  22
HETATM   22  C   UNL     1       7.917  24.124  54.747  1.00  0.00     0.018 A 
HETATM   23  C   UNL     1       7.961  24.189  53.359  1.00  0.00     0.018 A 
HETATM   24  C   UNL     1       7.868  25.346  52.427  1.00  0.00     0.069 C 
HETATM   25  N   UNL     1       8.119  22.911  52.886  1.00  0.00    -0.358 N 
HETATM   26  H   UNL     1       8.183  22.658  51.909  1.00  0.00     0.166 HD
HETATM   27  C   UNL     1       8.180  22.012  53.923  1.00  0.00     0.043 A 
HETATM   28  C   UNL     1       8.056  22.742  55.106  1.00  0.00     0.004 A 
HETATM   29  C   UNL     1       8.334  20.621  53.899  1.00  0.00     0.030 A 
HETATM   30  C   UNL     1       8.088  22.037  56.329  1.00  0.00     0.014 A 
HETATM   31  C   UNL     1       8.242  20.646  56.324  1.00  0.00     0.001 A 
HETATM   32  C   UNL     1       8.363  19.950  55.124  1.00  0.00     0.002 A 
ENDBRANCH  21  22
ENDBRANCH   1  20
TORSDOF 4
ENDMDL
MODEL 3
REMARK VINA RESULT:     -10.3      1.204      1.657
REMARK  4 active torsions:
REMARK  status: ('A' for Active; 'I' for Inactive)
REMARK    1  A    between atoms: C_7  and  C_8 
REMARK    2  A    between atoms: N_9  and  N_10 
REMARK       I    between atoms: N_10  and  C_11 
REMARK    3  A    between atoms: C_11  and  C_12 
REMARK    4  A    between atoms: C_16  and  C_17 
ROOT
HETATM    1  N   UNL     1       7.749  28.001  56.753  1.00  0.00    -0.242 N 
HETATM    2  C   UNL     1       8.555  29.128  56.703  1.00  0.00     0.289 C 
HETATM    3  O   UNL     1       9.258  29.434  55.744  1.00  0.00    -0.264 OA
HETATM    4  H   UNL     1       7.192  27.802  57.572  1.00  0.00     0.192 HD
ENDROOT
BRANCH   2   5
HETATM    5  C   UNL     1       8.517  29.951  57.886  1.00  0.00     0.121 A 
HETATM    6  N   UNL     1       9.669  30.382  58.481  1.00  0.00    -0.272 N 
HETATM    7  H   UNL     1      10.618  30.184  58.176  1.00  0.00     0.189 HD
HETATM    8  N   UNL     1       9.477  31.139  59.570  1.00  0.00    -0.174 NA
HETATM    9  C   UNL     1       8.145  31.215  59.707  1.00  0.00     0.089 A 
HETATM   10  C   UNL     1       7.506  30.480  58.665  1.00  0.00     0.071 A 
BRANCH   9  11
HETATM   11  C   UNL     1       7.528  31.972  60.805  1.00  0.00    -0.003 A 
HETATM   12  C   UNL     1       8.160  32.082  62.054  1.00  0.00     0.053 A 
HETATM   13  C   UNL     1       7.528  32.808  63.047  1.00  0.00     0.106 A 
HETATM   14  C   UNL     1       6.313  33.416  62.845  1.00  0.00     0.105 A 
HETATM   15  O   UNL     1       8.006  33.007  64.305  1.00  0.00    -0.323 OA
HETATM   16  O   UNL     1       5.872  34.076  63.948  1.00  0.00    -0.323 OA
HETATM   17  C   UNL     1       5.658  33.336  61.638  1.00  0.00     0.040 A 
HETATM   18  C   UNL     1       6.950  33.813  64.871  1.00  0.00     0.352 A 
HETATM   19  C   UNL     1       6.275  32.607  60.614  1.00  0.00     0.017 A 
ENDBRANCH   9  11
ENDBRANCH   2   5
BRANCH   1  20
HETATM   20  N   UNL     1       7.704  27.147  55.687  1.00  0.00    -0.183 NA
HETATM   21  C   UNL     1       7.045  26.048  55.864  1.00  0.00     0.153 C 
BRANCH  21  22
HETATM   22  C   UNL     1       6.938  25.075  54.792  1.00  0.00     0.018 A 
HETATM   23  C   UNL     1       6.054  25.103  53.721  1.00  0.00     0.018 A 
HETATM   24  C   UNL     1       4.995  26.081  53.349  1.00  0.00     0.069 C 
HETATM   25  N   UNL     1       6.294  23.994  52.950  1.00  0.00    -0.358 N 
HETATM   26  H   UNL     1       5.796  23.758  52.103  1.00  0.00     0.166 HD
HETATM   27  C   UNL     1       7.310  23.241  53.485  1.00  0.00     0.043 A 
HETATM   28  C   UNL     1       7.737  23.892  54.643  1.00  0.00     0.004 A 
HETATM   29  C   UNL     1       7.875  22.043  53.033  1.00  0.00     0.030 A 
HETATM   30  C   UNL     1       8.787  23.309  55.386  1.00  0.00     0.014 A 
HETATM   31  C   UNL     1       9.364  22.111  54.948  1.00  0.00     0.001 A 
HETATM   32  C   UNL     1       8.913  21.489  53.787  1.00  0.00     0.002 A 
ENDBRANCH  21  22
ENDBRANCH   1  20
TORSDOF 4
ENDMDL
MODEL 4
REMARK VINA RESULT:     -10.1      2.942     10.690
REMARK  4 active torsions:
REMARK  status: ('A' for Active; 'I' for Inactive)
REMARK    1  A    between atoms: C_7  and  C_8 
REMARK    2  A    between atoms: N_9  and  N_10 
REMARK       I    between atoms: N_10  and  C_11 
REMARK    3  A    between atoms: C_11  and  C_12 
REMARK    4  A    between atoms: C_16  and  C_17 
ROOT
HETATM    1  N   UNL     1       6.896  30.485  57.343  1.00  0.00    -0.242 N 
HETATM    2  C   UNL     1       7.594  29.317  57.607  1.00  0.00     0.289 C 
HETATM    3  O   UNL     1       8.199  29.094  58.653  1.00  0.00    -0.264 OA
HETATM    4  H   UNL     1       6.417  30.610  56.461  1.00  0.00     0.192 HD
ENDROOT
BRANCH   2   5
HETATM    5  C   UNL     1       7.567  28.341  56.545  1.00  0.00     0.121 A 
HETATM    6  N   UNL     1       7.376  28.720  55.246  1.00  0.00    -0.272 N 
HETATM    7  H   UNL     1       7.242  29.669  54.906  1.00  0.00     0.189 HD
HETATM    8  N   UNL     1       7.376  27.706  54.371  1.00  0.00    -0.174 NA
HETATM    9  C   UNL     1       7.573  26.607  55.116  1.00  0.00     0.089 A 
HETATM   10  C   UNL     1       7.698  26.968  56.490  1.00  0.00     0.071 A 
BRANCH   9  11
HETATM   11  C   UNL     1       7.636  25.271  54.509  1.00  0.00    -0.003 A 
HETATM   12  C   UNL     1       7.587  24.112  55.301  1.00  0.00     0.053 A 
HETATM   13  C   UNL     1       7.651  22.884  54.672  1.00  0.00     0.106 A 
HETATM   14  C   UNL     1       7.761  22.769  53.306  1.00  0.00     0.105 A 
HETATM   15  O   UNL     1       7.617  21.674  55.293  1.00  0.00    -0.323 OA
HETATM   16  O   UNL     1       7.809  21.474  52.896  1.00  0.00    -0.323 OA
HETATM   17  C   UNL     1       7.811  23.875  52.492  1.00  0.00     0.040 A 
HETATM   18  C   UNL     1       7.717  20.784  54.160  1.00  0.00     0.352 A 
HETATM   19  C   UNL     1       7.749  25.133  53.103  1.00  0.00     0.017 A 
ENDBRANCH   9  11
ENDBRANCH   2   5
BRANCH   1  20
HETATM   20  N   UNL     1       6.852  31.480  58.278  1.00  0.00    -0.183 NA
HETATM   21  C   UNL     1       5.817  31.490  59.053  1.00  0.00     0.153 C 
BRANCH  21  22
HETATM   22  C   UNL     1       5.677  32.507  60.079  1.00  0.00     0.018 A 
HETATM   23  C   UNL     1       4.812  33.595  60.067  1.00  0.00     0.018 A 
HETATM   24  C   UNL     1       3.810  34.040  59.060  1.00  0.00     0.069 C 
HETATM   25  N   UNL     1       5.008  34.298  61.229  1.00  0.00    -0.358 N 
HETATM   26  H   UNL     1       4.512  35.140  61.487  1.00  0.00     0.166 HD
HETATM   27  C   UNL     1       5.976  33.702  62.000  1.00  0.00     0.043 A 
HETATM   28  C   UNL     1       6.417  32.575  61.307  1.00  0.00     0.004 A 
HETATM   29  C   UNL     1       6.487  34.077  63.248  1.00  0.00     0.030 A 
HETATM   30  C   UNL     1       7.424  31.782  61.898  1.00  0.00     0.014 A 
HETATM   31  C   UNL     1       7.947  32.142  63.146  1.00  0.00     0.001 A 
HETATM   32  C   UNL     1       7.483  33.274  63.810  1.00  0.00     0.002 A 
ENDBRANCH  21  22
ENDBRANCH   1  20
TORSDOF 4
ENDMDL
MODEL 5
REMARK VINA RESULT:      -9.9      7.144     11.926
REMARK  4 active torsions:
REMARK  status: ('A' for Active; 'I' for Inactive)
REMARK    1  A    between atoms: C_7  and  C_8 
REMARK    2  A    between atoms: N_9  and  N_10 
REMARK       I    between atoms: N_10  and  C_11 
REMARK    3  A    between atoms: C_11  and  C_12 
REMARK    4  A    between atoms: C_16  and  C_17 
ROOT
HETATM    1  N   UNL     1       6.153  25.783  50.817  1.00  0.00    -0.242 N 
HETATM    2  C   UNL     1       5.464  26.984  50.880  1.00  0.00     0.289 C 
HETATM    3  O   UNL     1       5.475  27.739  51.849  1.00  0.00    -0.264 OA
HETATM    4  H   UNL     1       6.104  25.204  49.990  1.00  0.00     0.192 HD
ENDROOT
BRANCH   2   5
HETATM    5  C   UNL     1       4.704  27.309  49.698  1.00  0.00     0.121 A 
HETATM    6  N   UNL     1       5.096  26.866  48.466  1.00  0.00    -0.272 N 
HETATM    7  H   UNL     1       5.911  26.296  48.259  1.00  0.00     0.189 HD
HETATM    8  N   UNL     1       4.293  27.246  47.463  1.00  0.00    -0.174 NA
HETATM    9  C   UNL     1       3.328  27.971  48.049  1.00  0.00     0.089 A 
HETATM   10  C   UNL     1       3.553  28.033  49.457  1.00  0.00     0.071 A 
BRANCH   9  11
HETATM   11  C   UNL     1       2.239  28.573  47.268  1.00  0.00    -0.003 A 
HETATM   12  C   UNL     1       1.121  27.818  46.880  1.00  0.00     0.053 A 
HETATM   13  C   UNL     1       0.130  28.442  46.147  1.00  0.00     0.106 A 
HETATM   14  C   UNL     1       0.210  29.767  45.791  1.00  0.00     0.105 A 
HETATM   15  O   UNL     1      -1.010  27.852  45.697  1.00  0.00    -0.323 OA
HETATM   16  O   UNL     1      -0.868  30.179  45.073  1.00  0.00    -0.323 OA
HETATM   17  C   UNL     1       1.286  30.545  46.149  1.00  0.00     0.040 A 
HETATM   18  C   UNL     1      -1.639  28.960  45.017  1.00  0.00     0.352 A 
HETATM   19  C   UNL     1       2.305  29.939  46.893  1.00  0.00     0.017 A 
ENDBRANCH   9  11
ENDBRANCH   2   5
BRANCH   1  20
HETATM   20  N   UNL     1       6.907  25.372  51.880  1.00  0.00    -0.183 NA
HETATM   21  C   UNL     1       6.362  24.501  52.665  1.00  0.00     0.153 C 
BRANCH  21  22
HETATM   22  C   UNL     1       7.083  24.002  53.822  1.00  0.00     0.018 A 
HETATM   23  C   UNL     1       7.352  24.688  55.000  1.00  0.00     0.018 A 
HETATM   24  C   UNL     1       7.010  26.072  55.430  1.00  0.00     0.069 C 
HETATM   25  N   UNL     1       8.056  23.845  55.823  1.00  0.00    -0.358 N 
HETATM   26  H   UNL     1       8.385  24.081  56.749  1.00  0.00     0.166 HD
HETATM   27  C   UNL     1       8.253  22.628  55.218  1.00  0.00     0.043 A 
HETATM   28  C   UNL     1       7.654  22.693  53.960  1.00  0.00     0.004 A 
HETATM   29  C   UNL     1       8.913  21.487  55.689  1.00  0.00     0.030 A 
HETATM   30  C   UNL     1       7.721  21.552  53.131  1.00  0.00     0.014 A 
HETATM   31  C   UNL     1       8.376  20.402  53.586  1.00  0.00     0.001 A 
HETATM   32  C   UNL     1       8.963  20.372  54.848  1.00  0.00     0.002 A 
ENDBRANCH  21  22
ENDBRANCH   1  20
TORSDOF 4
ENDMDL
MODEL 6
REMARK VINA RESULT:      -9.7      2.287      4.045
REMARK  4 active torsions:
REMARK  status: ('A' for Active; 'I' for Inactive)
REMARK    1  A    between atoms: C_7  and  C_8 
REMARK    2  A    between atoms: N_9  and  N_10 
REMARK       I    between atoms: N_10  and  C_11 
REMARK    3  A    between atoms: C_11  and  C_12 
REMARK    4  A    between atoms: C_16  and  C_17 
ROOT
HETATM    1  N   UNL     1       7.545  28.581  54.610  1.00  0.00    -0.242 N 
HETATM    2  C   UNL     1       7.777  27.927  55.810  1.00  0.00     0.289 C 
HETATM    3  O   UNL     1       7.673  26.714  55.969  1.00  0.00    -0.264 OA
HETATM    4  H   UNL     1       7.647  29.584  54.542  1.00  0.00     0.192 HD
ENDROOT
BRANCH   2   5
HETATM    5  C   UNL     1       8.164  28.786  56.902  1.00  0.00     0.121 A 
HETATM    6  N   UNL     1       9.420  29.319  56.968  1.00  0.00    -0.272 N 
HETATM    7  H   UNL     1      10.172  29.180  56.299  1.00  0.00     0.189 HD
HETATM    8  N   UNL     1       9.633  30.097  58.038  1.00  0.00    -0.174 NA
HETATM    9  C   UNL     1       8.473  30.082  58.712  1.00  0.00     0.089 A 
HETATM   10  C   UNL     1       7.523  29.267  58.027  1.00  0.00     0.071 A 
BRANCH   9  11
HETATM   11  C   UNL     1       8.304  30.830  59.966  1.00  0.00    -0.003 A 
HETATM   12  C   UNL     1       7.287  31.788  60.107  1.00  0.00     0.053 A 
HETATM   13  C   UNL     1       7.179  32.457  61.311  1.00  0.00     0.106 A 
HETATM   14  C   UNL     1       8.033  32.213  62.360  1.00  0.00     0.105 A 
HETATM   15  O   UNL     1       6.254  33.410  61.606  1.00  0.00    -0.323 OA
HETATM   16  O   UNL     1       7.752  32.980  63.448  1.00  0.00    -0.323 OA
HETATM   17  C   UNL     1       9.042  31.284  62.267  1.00  0.00     0.040 A 
HETATM   18  C   UNL     1       6.623  33.736  62.963  1.00  0.00     0.352 A 
HETATM   19  C   UNL     1       9.174  30.590  61.058  1.00  0.00     0.017 A 
ENDBRANCH   9  11
ENDBRANCH   2   5
BRANCH   1  20
HETATM   20  N   UNL     1       7.174  27.868  53.505  1.00  0.00    -0.183 NA
HETATM   21  C   UNL     1       5.942  27.992  53.132  1.00  0.00     0.153 C 
BRANCH  21  22
HETATM   22  C   UNL     1       5.450  27.275  51.969  1.00  0.00     0.018 A 
HETATM   23  C   UNL     1       5.037  25.950  51.916  1.00  0.00     0.018 A 
HETATM   24  C   UNL     1       4.970  24.900  52.970  1.00  0.00     0.069 C 
HETATM   25  N   UNL     1       4.653  25.683  50.626  1.00  0.00    -0.358 N 
HETATM   26  H   UNL     1       4.306  24.792  50.298  1.00  0.00     0.166 HD
HETATM   27  C   UNL     1       4.801  26.795  49.835  1.00  0.00     0.043 A 
HETATM   28  C   UNL     1       5.300  27.813  50.647  1.00  0.00     0.004 A 
HETATM   29  C   UNL     1       4.533  26.971  48.472  1.00  0.00     0.030 A 
HETATM   30  C   UNL     1       5.543  29.074  50.061  1.00  0.00     0.014 A 
HETATM   31  C   UNL     1       5.280  29.268  48.699  1.00  0.00     0.001 A 
HETATM   32  C   UNL     1       4.781  28.229  47.918  1.00  0.00     0.002 A 
ENDBRANCH  21  22
ENDBRANCH   1  20
TORSDOF 4
ENDMDL
MODEL 7
REMARK VINA RESULT:      -9.6      8.256     11.143
REMARK  4 active torsions:
REMARK  status: ('A' for Active; 'I' for Inactive)
REMARK    1  A    between atoms: C_7  and  C_8 
REMARK    2  A    between atoms: N_9  and  N_10 
REMARK       I    between atoms: N_10  and  C_11 
REMARK    3  A    between atoms: C_11  and  C_12 
REMARK    4  A    between atoms: C_16  and  C_17 
ROOT
HETATM    1  N   UNL     1       4.088  27.186  50.582  1.00  0.00    -0.242 N 
HETATM    2  C   UNL     1       5.074  27.506  51.502  1.00  0.00     0.289 C 
HETATM    3  O   UNL     1       5.588  28.616  51.607  1.00  0.00    -0.264 OA
HETATM    4  H   UNL     1       3.703  26.252  50.543  1.00  0.00     0.192 HD
ENDROOT
BRANCH   2   5
HETATM    5  C   UNL     1       5.476  26.419  52.360  1.00  0.00     0.121 A 
HETATM    6  N   UNL     1       4.884  26.227  53.577  1.00  0.00    -0.272 N 
HETATM    7  H   UNL     1       4.144  26.791  53.985  1.00  0.00     0.189 HD
HETATM    8  N   UNL     1       5.360  25.178  54.262  1.00  0.00    -0.174 NA
HETATM    9  C   UNL     1       6.307  24.651  53.471  1.00  0.00     0.089 A 
HETATM   10  C   UNL     1       6.409  25.405  52.264  1.00  0.00     0.071 A 
BRANCH   9  11
HETATM   11  C   UNL     1       7.074  23.465  53.878  1.00  0.00    -0.003 A 
HETATM   12  C   UNL     1       7.261  23.153  55.234  1.00  0.00     0.053 A 
HETATM   13  C   UNL     1       7.992  22.025  55.553  1.00  0.00     0.106 A 
HETATM   14  C   UNL     1       8.535  21.210  54.588  1.00  0.00     0.105 A 
HETATM   15  O   UNL     1       8.262  21.588  56.812  1.00  0.00    -0.323 OA
HETATM   16  O   UNL     1       9.214  20.158  55.117  1.00  0.00    -0.323 OA
HETATM   17  C   UNL     1       8.376  21.477  53.248  1.00  0.00     0.040 A 
HETATM   18  C   UNL     1       9.037  20.403  56.528  1.00  0.00     0.352 A 
HETATM   19  C   UNL     1       7.640  22.614  52.896  1.00  0.00     0.017 A 
ENDBRANCH   9  11
ENDBRANCH   2   5
BRANCH   1  20
HETATM   20  N   UNL     1       3.628  28.138  49.716  1.00  0.00    -0.183 NA
HETATM   21  C   UNL     1       3.177  27.709  48.582  1.00  0.00     0.153 C 
BRANCH  21  22
HETATM   22  C   UNL     1       2.665  28.641  47.594  1.00  0.00     0.018 A 
HETATM   23  C   UNL     1       1.461  28.554  46.906  1.00  0.00     0.018 A 
HETATM   24  C   UNL     1       0.373  27.539  46.956  1.00  0.00     0.069 C 
HETATM   25  N   UNL     1       1.376  29.641  46.073  1.00  0.00    -0.358 N 
HETATM   26  H   UNL     1       0.603  29.836  45.451  1.00  0.00     0.166 HD
HETATM   27  C   UNL     1       2.489  30.437  46.196  1.00  0.00     0.043 A 
HETATM   28  C   UNL     1       3.319  29.837  47.144  1.00  0.00     0.004 A 
HETATM   29  C   UNL     1       2.818  31.630  45.544  1.00  0.00     0.030 A 
HETATM   30  C   UNL     1       4.542  30.469  47.453  1.00  0.00     0.014 A 
HETATM   31  C   UNL     1       4.887  31.664  46.810  1.00  0.00     0.001 A 
HETATM   32  C   UNL     1       4.034  32.235  45.869  1.00  0.00     0.002 A 
ENDBRANCH  21  22
ENDBRANCH   1  20
TORSDOF 4
ENDMDL
MODEL 8
REMARK VINA RESULT:      -9.5      1.984      2.633
REMARK  4 active torsions:
REMARK  status: ('A' for Active; 'I' for Inactive)
REMARK    1  A    between atoms: C_7  and  C_8 
REMARK    2  A    between atoms: N_9  and  N_10 
REMARK       I    between atoms: N_10  and  C_11 
REMARK    3  A    between atoms: C_11  and  C_12 
REMARK    4  A    between atoms: C_16  and  C_17 
ROOT
HETATM    1  N   UNL     1       7.041  27.049  56.520  1.00  0.00    -0.242 N 
HETATM    2  C   UNL     1       6.889  28.341  56.041  1.00  0.00     0.289 C 
HETATM    3  O   UNL     1       6.655  28.621  54.868  1.00  0.00    -0.264 OA
HETATM    4  H   UNL     1       7.233  26.882  57.498  1.00  0.00     0.192 HD
ENDROOT
BRANCH   2   5
HETATM    5  C   UNL     1       7.025  29.375  57.036  1.00  0.00     0.121 A 
HETATM    6  N   UNL     1       8.257  29.822  57.423  1.00  0.00    -0.272 N 
HETATM    7  H   UNL     1       9.155  29.497  57.075  1.00  0.00     0.189 HD
HETATM    8  N   UNL     1       8.227  30.785  58.354  1.00  0.00    -0.174 NA
HETATM    9  C   UNL     1       6.923  30.988  58.598  1.00  0.00     0.089 A 
HETATM   10  C   UNL     1       6.135  30.118  57.787  1.00  0.00     0.071 A 
BRANCH   9  11
HETATM   11  C   UNL     1       6.472  31.985  59.578  1.00  0.00    -0.003 A 
HETATM   12  C   UNL     1       5.259  32.673  59.407  1.00  0.00     0.053 A 
HETATM   13  C   UNL     1       4.891  33.599  60.364  1.00  0.00     0.106 A 
HETATM   14  C   UNL     1       5.671  33.862  61.465  1.00  0.00     0.105 A 
HETATM   15  O   UNL     1       3.753  34.345  60.345  1.00  0.00    -0.323 OA
HETATM   16  O   UNL     1       5.124  34.805  62.277  1.00  0.00    -0.323 OA
HETATM   17  C   UNL     1       6.865  33.213  61.673  1.00  0.00     0.040 A 
HETATM   18  C   UNL     1       3.907  35.107  61.562  1.00  0.00     0.352 A 
HETATM   19  C   UNL     1       7.264  32.269  60.719  1.00  0.00     0.017 A 
ENDBRANCH   9  11
ENDBRANCH   2   5
BRANCH   1  20
HETATM   20  N   UNL     1       6.931  25.987  55.667  1.00  0.00    -0.183 NA
HETATM   21  C   UNL     1       7.988  25.255  55.527  1.00  0.00     0.153 C 
BRANCH  21  22
HETATM   22  C   UNL     1       7.973  24.104  54.643  1.00  0.00     0.018 A 
HETATM   23  C   UNL     1       7.830  24.112  53.261  1.00  0.00     0.018 A 
HETATM   24  C   UNL     1       7.657  25.235  52.299  1.00  0.00     0.069 C 
HETATM   25  N   UNL     1       7.870  22.810  52.829  1.00  0.00    -0.358 N 
HETATM   26  H   UNL     1       7.791  22.517  51.865  1.00  0.00     0.166 HD
HETATM   27  C   UNL     1       8.036  21.951  53.888  1.00  0.00     0.043 A 
HETATM   28  C   UNL     1       8.105  22.732  55.042  1.00  0.00     0.004 A 
HETATM   29  C   UNL     1       8.130  20.555  53.906  1.00  0.00     0.030 A 
HETATM   30  C   UNL     1       8.275  22.075  56.280  1.00  0.00     0.014 A 
HETATM   31  C   UNL     1       8.370  20.679  56.318  1.00  0.00     0.001 A 
HETATM   32  C   UNL     1       8.299  19.932  55.145  1.00  0.00     0.002 A 
ENDBRANCH  21  22
ENDBRANCH   1  20
TORSDOF 4
ENDMDL
MODEL 9
REMARK VINA RESULT:      -9.4      1.813      2.865
REMARK  4 active torsions:
REMARK  status: ('A' for Active; 'I' for Inactive)
REMARK    1  A    between atoms: C_7  and  C_8 
REMARK    2  A    between atoms: N_9  and  N_10 
REMARK       I    between atoms: N_10  and  C_11 
REMARK    3  A    between atoms: C_11  and  C_12 
REMARK    4  A    between atoms: C_16  and  C_17 
ROOT
HETATM    1  N   UNL     1       7.845  29.150  58.366  1.00  0.00    -0.242 N 
HETATM    2  C   UNL     1       7.298  30.421  58.285  1.00  0.00     0.289 C 
HETATM    3  O   UNL     1       6.758  30.879  57.282  1.00  0.00    -0.264 OA
HETATM    4  H   UNL     1       8.278  28.829  59.222  1.00  0.00     0.192 HD
ENDROOT
BRANCH   2   5
HETATM    5  C   UNL     1       7.403  31.203  59.493  1.00  0.00     0.121 A 
HETATM    6  N   UNL     1       8.463  32.041  59.699  1.00  0.00    -0.272 N 
HETATM    7  H   UNL     1       9.243  32.197  59.066  1.00  0.00     0.189 HD
HETATM    8  N   UNL     1       8.424  32.702  60.863  1.00  0.00    -0.174 NA
HETATM    9  C   UNL     1       7.295  32.288  61.458  1.00  0.00     0.089 A 
HETATM   10  C   UNL     1       6.624  31.343  60.624  1.00  0.00     0.071 A 
BRANCH   9  11
HETATM   11  C   UNL     1       6.892  32.793  62.777  1.00  0.00    -0.003 A 
HETATM   12  C   UNL     1       5.537  32.937  63.116  1.00  0.00     0.053 A 
HETATM   13  C   UNL     1       5.222  33.418  64.373  1.00  0.00     0.106 A 
HETATM   14  C   UNL     1       6.190  33.756  65.288  1.00  0.00     0.105 A 
HETATM   15  O   UNL     1       3.964  33.614  64.852  1.00  0.00    -0.323 OA
HETATM   16  O   UNL     1       5.665  34.206  66.458  1.00  0.00    -0.323 OA
HETATM   17  C   UNL     1       7.529  33.631  65.000  1.00  0.00     0.040 A 
HETATM   18  C   UNL     1       4.253  34.114  66.176  1.00  0.00     0.352 A 
HETATM   19  C   UNL     1       7.877  33.147  63.733  1.00  0.00     0.017 A 
ENDBRANCH   9  11
ENDBRANCH   2   5
BRANCH   1  20
HETATM   20  N   UNL     1       7.803  28.318  57.283  1.00  0.00    -0.183 NA
HETATM   21  C   UNL     1       7.315  27.138  57.487  1.00  0.00     0.153 C 
BRANCH  21  22
HETATM   22  C   UNL     1       7.227  26.181  56.400  1.00  0.00     0.018 A 
HETATM   23  C   UNL     1       7.941  24.996  56.267  1.00  0.00     0.018 A 
HETATM   24  C   UNL     1       8.965  24.365  57.145  1.00  0.00     0.069 C 
HETATM   25  N   UNL     1       7.551  24.401  55.094  1.00  0.00    -0.358 N 
HETATM   26  H   UNL     1       7.908  23.524  54.743  1.00  0.00     0.166 HD
HETATM   27  C   UNL     1       6.601  25.162  54.456  1.00  0.00     0.043 A 
HETATM   28  C   UNL     1       6.375  26.286  55.249  1.00  0.00     0.004 A 
HETATM   29  C   UNL     1       5.935  24.937  53.246  1.00  0.00     0.030 A 
HETATM   30  C   UNL     1       5.430  27.236  54.804  1.00  0.00     0.014 A 
HETATM   31  C   UNL     1       4.753  27.027  53.597  1.00  0.00     0.001 A 
HETATM   32  C   UNL     1       5.004  25.892  52.830  1.00  0.00     0.002 A 
ENDBRANCH  21  22
ENDBRANCH   1  20
TORSDOF 4
ENDMDL
MODEL 10
REMARK VINA RESULT:      -9.2      3.138     11.023
REMARK  4 active torsions:
REMARK  status: ('A' for Active; 'I' for Inactive)
REMARK    1  A    between atoms: C_7  and  C_8 
REMARK    2  A    between atoms: N_9  and  N_10 
REMARK       I    between atoms: N_10  and  C_11 
REMARK    3  A    between atoms: C_11  and  C_12 
REMARK    4  A    between atoms: C_16  and  C_17 
ROOT
HETATM    1  N   UNL     1       7.143  31.434  60.043  1.00  0.00    -0.242 N 
HETATM    2  C   UNL     1       6.854  31.240  58.702  1.00  0.00     0.289 C 
HETATM    3  O   UNL     1       6.296  32.069  57.987  1.00  0.00    -0.264 OA
HETATM    4  H   UNL     1       7.604  30.713  60.580  1.00  0.00     0.192 HD
ENDROOT
BRANCH   2   5
HETATM    5  C   UNL     1       7.262  29.962  58.173  1.00  0.00     0.121 A 
HETATM    6  N   UNL     1       8.575  29.585  58.179  1.00  0.00    -0.272 N 
HETATM    7  H   UNL     1       9.359  30.127  58.533  1.00  0.00     0.189 HD
HETATM    8  N   UNL     1       8.803  28.372  57.657  1.00  0.00    -0.174 NA
HETATM    9  C   UNL     1       7.593  27.923  57.288  1.00  0.00     0.089 A 
HETATM   10  C   UNL     1       6.597  28.897  57.597  1.00  0.00     0.071 A 
BRANCH   9  11
HETATM   11  C   UNL     1       7.422  26.605  56.663  1.00  0.00    -0.003 A 
HETATM   12  C   UNL     1       8.244  25.522  57.016  1.00  0.00     0.053 A 
HETATM   13  C   UNL     1       8.033  24.308  56.393  1.00  0.00     0.106 A 
HETATM   14  C   UNL     1       7.051  24.134  55.446  1.00  0.00     0.105 A 
HETATM   15  O   UNL     1       8.740  23.168  56.621  1.00  0.00    -0.323 OA
HETATM   16  O   UNL     1       7.016  22.864  54.961  1.00  0.00    -0.323 OA
HETATM   17  C   UNL     1       6.223  25.164  55.070  1.00  0.00     0.040 A 
HETATM   18  C   UNL     1       8.089  22.257  55.710  1.00  0.00     0.352 A 
HETATM   19  C   UNL     1       6.414  26.407  55.686  1.00  0.00     0.017 A 
ENDBRANCH   9  11
ENDBRANCH   2   5
BRANCH   1  20
HETATM   20  N   UNL     1       6.803  32.609  60.652  1.00  0.00    -0.183 NA
HETATM   21  C   UNL     1       6.299  32.513  61.839  1.00  0.00     0.153 C 
BRANCH  21  22
HETATM   22  C   UNL     1       5.906  33.704  62.570  1.00  0.00     0.018 A 
HETATM   23  C   UNL     1       6.380  34.122  63.807  1.00  0.00     0.018 A 
HETATM   24  C   UNL     1       7.383  33.520  64.728  1.00  0.00     0.069 C 
HETATM   25  N   UNL     1       5.742  35.294  64.126  1.00  0.00    -0.358 N 
HETATM   26  H   UNL     1       5.893  35.824  64.973  1.00  0.00     0.166 HD
HETATM   27  C   UNL     1       4.865  35.656  63.132  1.00  0.00     0.043 A 
HETATM   28  C   UNL     1       4.943  34.679  62.140  1.00  0.00     0.004 A 
HETATM   29  C   UNL     1       4.017  36.766  63.042  1.00  0.00     0.030 A 
HETATM   30  C   UNL     1       4.127  34.823  60.997  1.00  0.00     0.014 A 
HETATM   31  C   UNL     1       3.273  35.928  60.890  1.00  0.00     0.001 A 
HETATM   32  C   UNL     1       3.221  36.884  61.900  1.00  0.00     0.002 A 
ENDBRANCH  21  22
ENDBRANCH   1  20
TORSDOF 4
ENDMDL
