MODEL 1
REMARK VINA RESULT:      -9.0      0.000      0.000
REMARK  8 active torsions:
REMARK  status: ('A' for Active; 'I' for Inactive)
REMARK    1  A    between atoms: N_4  and  C_5 
REMARK    2  A    between atoms: C_5  and  C_6 
REMARK    3  A    between atoms: C_6  and  C_7 
REMARK    4  A    between atoms: C_7  and  N_8 
REMARK       I    between atoms: N_8  and  C_9 
REMARK       I    between atoms: C_9  and  N_10 
REMARK    5  A    between atoms: N_10  and  N_11 
REMARK       I    between atoms: N_11  and  C_12 
REMARK    6  A    between atoms: C_12  and  C_13 
REMARK    7  A    between atoms: C_13  and  O_14 
REMARK    8  A    between atoms: O_14  and  C_15 
ROOT
HETATM    1  N   UNL     1       7.094  28.803  56.815  1.00  0.00    -0.341 N 
HETATM    2  C   UNL     1       7.702  28.377  57.957  1.00  0.00     0.334 C 
HETATM    3  N   UNL     1       8.252  29.372  58.730  1.00  0.00    -0.249 N 
HETATM    4  O   UNL     1       7.753  27.208  58.327  1.00  0.00    -0.246 OA
HETATM    5  H   UNL     1       6.911  29.797  56.750  1.00  0.00     0.164 HD
HETATM    6  H   UNL     1       8.781  29.023  59.524  1.00  0.00     0.192 HD
ENDROOT
BRANCH   1   7
HETATM    7  C   UNL     1       6.279  27.934  55.986  1.00  0.00     0.130 C 
BRANCH   7   8
HETATM    8  C   UNL     1       7.120  27.077  55.019  1.00  0.00     0.019 C 
HETATM    9  C   UNL     1       7.733  27.919  53.892  1.00  0.00     0.013 C 
BRANCH   8  10
HETATM   10  C   UNL     1       6.260  25.962  54.391  1.00  0.00     0.156 C 
BRANCH  10  11
HETATM   11  N   UNL     1       6.878  24.649  54.282  1.00  0.00    -0.274 N 
HETATM   12  N   UNL     1       6.874  23.803  55.329  1.00  0.00    -0.177 NA
HETATM   13  C   UNL     1       7.564  22.740  54.906  1.00  0.00     0.053 A 
HETATM   14  C   UNL     1       7.780  21.578  55.800  1.00  0.00     0.072 C 
HETATM   15  C   UNL     1       8.021  22.914  53.583  1.00  0.00     0.055 A 
HETATM   16  C   UNL     1       7.574  24.162  53.201  1.00  0.00     0.028 A 
HETATM   17  C   UNL     1       7.757  24.902  51.930  1.00  0.00     0.070 C 
ENDBRANCH  10  11
ENDBRANCH   8  10
ENDBRANCH   7   8
ENDBRANCH   1   7
BRANCH   3  18
HETATM   18  N   UNL     1       8.663  30.599  58.183  1.00  0.00    -0.264 N 
HETATM   19  C   UNL     1       9.392  31.499  58.928  1.00  0.00     0.260 C 
HETATM   20  O   UNL     1      10.209  32.230  58.368  1.00  0.00    -0.269 OA
HETATM   21  H   UNL     1       8.914  30.575  57.198  1.00  0.00     0.190 HD
BRANCH  19  22
HETATM   22  C   UNL     1       9.088  31.604  60.421  1.00  0.00     0.280 C 
BRANCH  22  23
HETATM   23  O   UNL     1       7.714  31.315  60.699  1.00  0.00    -0.342 OA
BRANCH  23  24
HETATM   24  C   UNL     1       7.298  31.940  61.843  1.00  0.00     0.069 A 
HETATM   25  C   UNL     1       5.939  32.162  62.063  1.00  0.00     0.038 A 
HETATM   26  C   UNL     1       5.523  32.790  63.238  1.00  0.00     0.022 A 
HETATM   27  C   UNL     1       6.469  33.165  64.193  1.00  0.00     0.011 A 
HETATM   28 BR   UNL     1       5.907  34.019  65.783  1.00  0.00    -0.051 Br
HETATM   29  C   UNL     1       7.825  32.909  63.987  1.00  0.00     0.022 A 
HETATM   30  C   UNL     1       8.241  32.285  62.809  1.00  0.00     0.038 A 
ENDBRANCH  23  24
ENDBRANCH  22  23
ENDBRANCH  19  22
ENDBRANCH   3  18
TORSDOF 8
ENDMDL
MODEL 2
REMARK VINA RESULT:      -8.9      1.780      2.593
REMARK  8 active torsions:
REMARK  status: ('A' for Active; 'I' for Inactive)
REMARK    1  A    between atoms: N_4  and  C_5 
REMARK    2  A    between atoms: C_5  and  C_6 
REMARK    3  A    between atoms: C_6  and  C_7 
REMARK    4  A    between atoms: C_7  and  N_8 
REMARK       I    between atoms: N_8  and  C_9 
REMARK       I    between atoms: C_9  and  N_10 
REMARK    5  A    between atoms: N_10  and  N_11 
REMARK       I    between atoms: N_11  and  C_12 
REMARK    6  A    between atoms: C_12  and  C_13 
REMARK    7  A    between atoms: C_13  and  O_14 
REMARK    8  A    between atoms: O_14  and  C_15 
ROOT
HETATM    1  N   UNL     1       7.934  28.294  54.479  1.00  0.00    -0.341 N 
HETATM    2  C   UNL     1       7.476  28.640  55.714  1.00  0.00     0.334 C 
HETATM    3  N   UNL     1       8.219  29.596  56.364  1.00  0.00    -0.249 N 
HETATM    4  O   UNL     1       6.463  28.183  56.236  1.00  0.00    -0.246 OA
HETATM    5  H   UNL     1       8.626  28.911  54.071  1.00  0.00     0.164 HD
HETATM    6  H   UNL     1       7.913  29.768  57.319  1.00  0.00     0.192 HD
ENDROOT
BRANCH   1   7
HETATM    7  C   UNL     1       7.174  27.468  53.560  1.00  0.00     0.130 C 
BRANCH   7   8
HETATM    8  C   UNL     1       7.595  25.985  53.609  1.00  0.00     0.019 C 
HETATM    9  C   UNL     1       7.526  25.324  52.226  1.00  0.00     0.013 C 
BRANCH   8  10
HETATM   10  C   UNL     1       6.695  25.195  54.581  1.00  0.00     0.156 C 
BRANCH  10  11
HETATM   11  N   UNL     1       7.321  24.092  55.294  1.00  0.00    -0.274 N 
HETATM   12  N   UNL     1       7.253  22.839  54.809  1.00  0.00    -0.177 NA
HETATM   13  C   UNL     1       7.869  22.088  55.727  1.00  0.00     0.053 A 
HETATM   14  C   UNL     1       7.994  20.623  55.542  1.00  0.00     0.072 C 
HETATM   15  C   UNL     1       8.325  22.868  56.810  1.00  0.00     0.055 A 
HETATM   16  C   UNL     1       7.950  24.162  56.515  1.00  0.00     0.028 A 
HETATM   17  C   UNL     1       8.136  25.417  57.282  1.00  0.00     0.070 C 
ENDBRANCH  10  11
ENDBRANCH   8  10
ENDBRANCH   7   8
ENDBRANCH   1   7
BRANCH   3  18
HETATM   18  N   UNL     1       9.581  29.797  56.087  1.00  0.00    -0.264 N 
HETATM   19  C   UNL     1      10.483  30.030  57.101  1.00  0.00     0.260 C 
HETATM   20  O   UNL     1      11.645  29.643  56.980  1.00  0.00    -0.269 OA
HETATM   21  H   UNL     1       9.954  29.250  55.316  1.00  0.00     0.190 HD
BRANCH  19  22
HETATM   22  C   UNL     1      10.012  30.841  58.306  1.00  0.00     0.280 C 
BRANCH  22  23
HETATM   23  O   UNL     1       9.130  30.082  59.138  1.00  0.00    -0.342 OA
BRANCH  23  24
HETATM   24  C   UNL     1       8.741  30.802  60.235  1.00  0.00     0.069 A 
HETATM   25  C   UNL     1       7.886  31.893  60.088  1.00  0.00     0.038 A 
HETATM   26  C   UNL     1       7.486  32.614  61.215  1.00  0.00     0.022 A 
HETATM   27  C   UNL     1       7.924  32.219  62.479  1.00  0.00     0.011 A 
HETATM   28 BR   UNL     1       7.385  33.198  64.004  1.00  0.00    -0.051 Br
HETATM   29  C   UNL     1       8.750  31.105  62.628  1.00  0.00     0.022 A 
HETATM   30  C   UNL     1       9.154  30.387  61.500  1.00  0.00     0.038 A 
ENDBRANCH  23  24
ENDBRANCH  22  23
ENDBRANCH  19  22
ENDBRANCH   3  18
TORSDOF 8
ENDMDL
MODEL 3
REMARK VINA RESULT:      -8.9      1.789      2.755
REMARK  8 active torsions:
REMARK  status: ('A' for Active; 'I' for Inactive)
REMARK    1  A    between atoms: N_4  and  C_5 
REMARK    2  A    between atoms: C_5  and  C_6 
REMARK    3  A    between atoms: C_6  and  C_7 
REMARK    4  A    between atoms: C_7  and  N_8 
REMARK       I    between atoms: N_8  and  C_9 
REMARK       I    between atoms: C_9  and  N_10 
REMARK    5  A    between atoms: N_10  and  N_11 
REMARK       I    between atoms: N_11  and  C_12 
REMARK    6  A    between atoms: C_12  and  C_13 
REMARK    7  A    between atoms: C_13  and  O_14 
REMARK    8  A    between atoms: O_14  and  C_15 
ROOT
HETATM    1  N   UNL     1       7.426  26.775  55.290  1.00  0.00    -0.341 N 
HETATM    2  C   UNL     1       7.664  26.762  56.631  1.00  0.00     0.334 C 
HETATM    3  N   UNL     1       8.120  27.948  57.153  1.00  0.00    -0.249 N 
HETATM    4  O   UNL     1       7.470  25.797  57.365  1.00  0.00    -0.246 OA
HETATM    5  H   UNL     1       7.392  27.687  54.852  1.00  0.00     0.164 HD
HETATM    6  H   UNL     1       8.381  27.886  58.134  1.00  0.00     0.192 HD
ENDROOT
BRANCH   1   7
HETATM    7  C   UNL     1       6.745  25.695  54.601  1.00  0.00     0.130 C 
BRANCH   7   8
HETATM    8  C   UNL     1       7.722  24.730  53.899  1.00  0.00     0.019 C 
HETATM    9  C   UNL     1       8.138  25.242  52.514  1.00  0.00     0.013 C 
BRANCH   8  10
HETATM   10  C   UNL     1       7.088  23.333  53.740  1.00  0.00     0.156 C 
BRANCH  10  11
HETATM   11  N   UNL     1       7.600  22.285  54.611  1.00  0.00    -0.274 N 
HETATM   12  N   UNL     1       7.665  22.475  55.941  1.00  0.00    -0.177 NA
HETATM   13  C   UNL     1       8.227  21.359  56.414  1.00  0.00     0.053 A 
HETATM   14  C   UNL     1       8.471  21.195  57.866  1.00  0.00     0.072 C 
HETATM   15  C   UNL     1       8.530  20.454  55.375  1.00  0.00     0.055 A 
HETATM   16  C   UNL     1       8.125  21.078  54.214  1.00  0.00     0.028 A 
HETATM   17  C   UNL     1       8.202  20.631  52.803  1.00  0.00     0.070 C 
ENDBRANCH  10  11
ENDBRANCH   8  10
ENDBRANCH   7   8
ENDBRANCH   1   7
BRANCH   3  18
HETATM   18  N   UNL     1       8.809  28.890  56.371  1.00  0.00    -0.264 N 
HETATM   19  C   UNL     1       9.784  29.691  56.922  1.00  0.00     0.260 C 
HETATM   20  O   UNL     1      10.734  30.055  56.229  1.00  0.00    -0.269 OA
HETATM   21  H   UNL     1       8.995  28.608  55.412  1.00  0.00     0.190 HD
BRANCH  19  22
HETATM   22  C   UNL     1       9.594  30.162  58.362  1.00  0.00     0.280 C 
BRANCH  22  23
HETATM   23  O   UNL     1       8.235  30.528  58.620  1.00  0.00    -0.342 OA
BRANCH  23  24
HETATM   24  C   UNL     1       8.100  31.090  59.860  1.00  0.00     0.069 A 
HETATM   25  C   UNL     1       8.975  30.737  60.887  1.00  0.00     0.038 A 
HETATM   26  C   UNL     1       8.837  31.325  62.146  1.00  0.00     0.022 A 
HETATM   27  C   UNL     1       7.841  32.280  62.356  1.00  0.00     0.011 A 
HETATM   28 BR   UNL     1       7.651  33.072  64.062  1.00  0.00    -0.051 Br
HETATM   29  C   UNL     1       6.990  32.658  61.318  1.00  0.00     0.022 A 
HETATM   30  C   UNL     1       7.126  32.067  60.061  1.00  0.00     0.038 A 
ENDBRANCH  23  24
ENDBRANCH  22  23
ENDBRANCH  19  22
ENDBRANCH   3  18
TORSDOF 8
ENDMDL
MODEL 4
REMARK VINA RESULT:      -8.8      4.226      9.656
REMARK  8 active torsions:
REMARK  status: ('A' for Active; 'I' for Inactive)
REMARK    1  A    between atoms: N_4  and  C_5 
REMARK    2  A    between atoms: C_5  and  C_6 
REMARK    3  A    between atoms: C_6  and  C_7 
REMARK    4  A    between atoms: C_7  and  N_8 
REMARK       I    between atoms: N_8  and  C_9 
REMARK       I    between atoms: C_9  and  N_10 
REMARK    5  A    between atoms: N_10  and  N_11 
REMARK       I    between atoms: N_11  and  C_12 
REMARK    6  A    between atoms: C_12  and  C_13 
REMARK    7  A    between atoms: C_13  and  O_14 
REMARK    8  A    between atoms: O_14  and  C_15 
ROOT
HETATM    1  N   UNL     1       5.477  27.987  55.264  1.00  0.00    -0.341 N 
HETATM    2  C   UNL     1       5.160  26.745  55.726  1.00  0.00     0.334 C 
HETATM    3  N   UNL     1       5.000  25.786  54.755  1.00  0.00    -0.249 N 
HETATM    4  O   UNL     1       5.047  26.450  56.911  1.00  0.00    -0.246 OA
HETATM    5  H   UNL     1       5.776  28.040  54.297  1.00  0.00     0.164 HD
HETATM    6  H   UNL     1       4.671  24.894  55.116  1.00  0.00     0.192 HD
ENDROOT
BRANCH   1   7
HETATM    7  C   UNL     1       5.891  29.069  56.136  1.00  0.00     0.130 C 
BRANCH   7   8
HETATM    8  C   UNL     1       7.415  29.304  56.106  1.00  0.00     0.019 C 
HETATM    9  C   UNL     1       8.098  28.497  54.994  1.00  0.00     0.013 C 
BRANCH   8  10
HETATM   10  C   UNL     1       8.052  28.922  57.457  1.00  0.00     0.156 C 
BRANCH  10  11
HETATM   11  N   UNL     1       8.656  30.005  58.219  1.00  0.00    -0.274 N 
HETATM   12  N   UNL     1       7.940  30.671  59.144  1.00  0.00    -0.177 NA
HETATM   13  C   UNL     1       8.770  31.616  59.595  1.00  0.00     0.053 A 
HETATM   14  C   UNL     1       8.329  32.569  60.642  1.00  0.00     0.072 C 
HETATM   15  C   UNL     1      10.021  31.558  58.947  1.00  0.00     0.055 A 
HETATM   16  C   UNL     1       9.923  30.513  58.051  1.00  0.00     0.028 A 
HETATM   17  C   UNL     1      10.907  29.983  57.078  1.00  0.00     0.070 C 
ENDBRANCH  10  11
ENDBRANCH   8  10
ENDBRANCH   7   8
ENDBRANCH   1   7
BRANCH   3  18
HETATM   18  N   UNL     1       4.633  26.112  53.439  1.00  0.00    -0.264 N 
HETATM   19  C   UNL     1       5.450  25.796  52.376  1.00  0.00     0.260 C 
HETATM   20  O   UNL     1       4.950  25.536  51.282  1.00  0.00    -0.269 OA
HETATM   21  H   UNL     1       3.639  26.045  53.234  1.00  0.00     0.190 HD
BRANCH  19  22
HETATM   22  C   UNL     1       6.961  25.864  52.590  1.00  0.00     0.280 C 
BRANCH  22  23
HETATM   23  O   UNL     1       7.615  24.691  52.098  1.00  0.00    -0.342 OA
BRANCH  23  24
HETATM   24  C   UNL     1       7.819  23.780  53.098  1.00  0.00     0.069 A 
HETATM   25  C   UNL     1       7.800  22.415  52.815  1.00  0.00     0.038 A 
HETATM   26  C   UNL     1       8.021  21.494  53.840  1.00  0.00     0.022 A 
HETATM   27  C   UNL     1       8.284  21.948  55.133  1.00  0.00     0.011 A 
HETATM   28 BR   UNL     1       8.578  20.701  56.522  1.00  0.00    -0.051 Br
HETATM   29  C   UNL     1       8.338  23.315  55.407  1.00  0.00     0.022 A 
HETATM   30  C   UNL     1       8.113  24.237  54.382  1.00  0.00     0.038 A 
ENDBRANCH  23  24
ENDBRANCH  22  23
ENDBRANCH  19  22
ENDBRANCH   3  18
TORSDOF 8
ENDMDL
MODEL 5
REMARK VINA RESULT:      -8.6      4.429     10.595
REMARK  8 active torsions:
REMARK  status: ('A' for Active; 'I' for Inactive)
REMARK    1  A    between atoms: N_4  and  C_5 
REMARK    2  A    between atoms: C_5  and  C_6 
REMARK    3  A    between atoms: C_6  and  C_7 
REMARK    4  A    between atoms: C_7  and  N_8 
REMARK       I    between atoms: N_8  and  C_9 
REMARK       I    between atoms: C_9  and  N_10 
REMARK    5  A    between atoms: N_10  and  N_11 
REMARK       I    between atoms: N_11  and  C_12 
REMARK    6  A    between atoms: C_12  and  C_13 
REMARK    7  A    between atoms: C_13  and  O_14 
REMARK    8  A    between atoms: O_14  and  C_15 
ROOT
HETATM    1  N   UNL     1       4.746  31.633  60.049  1.00  0.00    -0.341 N 
HETATM    2  C   UNL     1       4.839  31.606  58.690  1.00  0.00     0.334 C 
HETATM    3  N   UNL     1       5.834  30.801  58.190  1.00  0.00    -0.249 N 
HETATM    4  O   UNL     1       4.093  32.213  57.928  1.00  0.00    -0.246 OA
HETATM    5  H   UNL     1       5.253  30.911  60.545  1.00  0.00     0.164 HD
HETATM    6  H   UNL     1       5.944  30.871  57.182  1.00  0.00     0.192 HD
ENDROOT
BRANCH   1   7
HETATM    7  C   UNL     1       3.635  32.250  60.750  1.00  0.00     0.130 C 
BRANCH   7   8
HETATM    8  C   UNL     1       4.091  33.082  61.966  1.00  0.00     0.019 C 
HETATM    9  C   UNL     1       4.786  34.382  61.543  1.00  0.00     0.013 C 
BRANCH   8  10
HETATM   10  C   UNL     1       5.057  32.269  62.851  1.00  0.00     0.156 C 
BRANCH  10  11
HETATM   11  N   UNL     1       5.448  32.878  64.114  1.00  0.00    -0.274 N 
HETATM   12  N   UNL     1       4.515  33.276  64.998  1.00  0.00    -0.177 NA
HETATM   13  C   UNL     1       5.210  33.832  65.994  1.00  0.00     0.053 A 
HETATM   14  C   UNL     1       4.514  34.400  67.173  1.00  0.00     0.072 C 
HETATM   15  C   UNL     1       6.597  33.797  65.739  1.00  0.00     0.055 A 
HETATM   16  C   UNL     1       6.729  33.183  64.510  1.00  0.00     0.028 A 
HETATM   17  C   UNL     1       7.940  32.880  63.711  1.00  0.00     0.070 C 
ENDBRANCH  10  11
ENDBRANCH   8  10
ENDBRANCH   7   8
ENDBRANCH   1   7
BRANCH   3  18
HETATM   18  N   UNL     1       6.982  30.487  58.935  1.00  0.00    -0.264 N 
HETATM   19  C   UNL     1       7.871  29.529  58.498  1.00  0.00     0.260 C 
HETATM   20  O   UNL     1       9.066  29.642  58.767  1.00  0.00    -0.269 OA
HETATM   21  H   UNL     1       7.418  31.270  59.416  1.00  0.00     0.190 HD
BRANCH  19  22
HETATM   22  C   UNL     1       7.308  28.315  57.761  1.00  0.00     0.280 C 
BRANCH  22  23
HETATM   23  O   UNL     1       7.947  27.105  58.178  1.00  0.00    -0.342 OA
BRANCH  23  24
HETATM   24  C   UNL     1       7.981  26.187  57.164  1.00  0.00     0.069 A 
HETATM   25  C   UNL     1       8.535  24.926  57.380  1.00  0.00     0.038 A 
HETATM   26  C   UNL     1       8.554  23.992  56.343  1.00  0.00     0.022 A 
HETATM   27  C   UNL     1       7.995  24.321  55.108  1.00  0.00     0.011 A 
HETATM   28 BR   UNL     1       8.025  23.058  53.702  1.00  0.00    -0.051 Br
HETATM   29  C   UNL     1       7.408  25.570  54.904  1.00  0.00     0.022 A 
HETATM   30  C   UNL     1       7.393  26.505  55.941  1.00  0.00     0.038 A 
ENDBRANCH  23  24
ENDBRANCH  22  23
ENDBRANCH  19  22
ENDBRANCH   3  18
TORSDOF 8
ENDMDL
MODEL 6
REMARK VINA RESULT:      -8.6      4.198     10.320
REMARK  8 active torsions:
REMARK  status: ('A' for Active; 'I' for Inactive)
REMARK    1  A    between atoms: N_4  and  C_5 
REMARK    2  A    between atoms: C_5  and  C_6 
REMARK    3  A    between atoms: C_6  and  C_7 
REMARK    4  A    between atoms: C_7  and  N_8 
REMARK       I    between atoms: N_8  and  C_9 
REMARK       I    between atoms: C_9  and  N_10 
REMARK    5  A    between atoms: N_10  and  N_11 
REMARK       I    between atoms: N_11  and  C_12 
REMARK    6  A    between atoms: C_12  and  C_13 
REMARK    7  A    between atoms: C_13  and  O_14 
REMARK    8  A    between atoms: O_14  and  C_15 
ROOT
HETATM    1  N   UNL     1       7.644  29.737  57.603  1.00  0.00    -0.341 N 
HETATM    2  C   UNL     1       8.421  29.157  56.646  1.00  0.00     0.334 C 
HETATM    3  N   UNL     1       7.911  29.209  55.371  1.00  0.00    -0.249 N 
HETATM    4  O   UNL     1       9.516  28.643  56.854  1.00  0.00    -0.246 OA
HETATM    5  H   UNL     1       6.894  30.331  57.269  1.00  0.00     0.164 HD
HETATM    6  H   UNL     1       8.461  28.687  54.693  1.00  0.00     0.192 HD
ENDROOT
BRANCH   1   7
HETATM    7  C   UNL     1       8.105  29.970  58.958  1.00  0.00     0.130 C 
BRANCH   7   8
HETATM    8  C   UNL     1       8.534  31.432  59.195  1.00  0.00     0.019 C 
HETATM    9  C   UNL     1       9.953  31.705  58.678  1.00  0.00     0.013 C 
BRANCH   8  10
HETATM   10  C   UNL     1       8.480  31.779  60.697  1.00  0.00     0.156 C 
BRANCH  10  11
HETATM   11  N   UNL     1       7.283  32.465  61.162  1.00  0.00    -0.274 N 
HETATM   12  N   UNL     1       6.314  32.810  60.294  1.00  0.00    -0.177 NA
HETATM   13  C   UNL     1       5.414  33.460  61.037  1.00  0.00     0.053 A 
HETATM   14  C   UNL     1       4.182  34.007  60.420  1.00  0.00     0.072 C 
HETATM   15  C   UNL     1       5.816  33.538  62.387  1.00  0.00     0.055 A 
HETATM   16  C   UNL     1       7.036  32.896  62.444  1.00  0.00     0.028 A 
HETATM   17  C   UNL     1       7.954  32.672  63.586  1.00  0.00     0.070 C 
ENDBRANCH  10  11
ENDBRANCH   8  10
ENDBRANCH   7   8
ENDBRANCH   1   7
BRANCH   3  18
HETATM   18  N   UNL     1       6.533  29.315  55.124  1.00  0.00    -0.264 N 
HETATM   19  C   UNL     1       5.760  28.194  54.919  1.00  0.00     0.260 C 
HETATM   20  O   UNL     1       4.581  28.197  55.271  1.00  0.00    -0.269 OA
HETATM   21  H   UNL     1       6.057  30.063  55.622  1.00  0.00     0.190 HD
BRANCH  19  22
HETATM   22  C   UNL     1       6.391  27.016  54.181  1.00  0.00     0.280 C 
BRANCH  22  23
HETATM   23  O   UNL     1       7.280  26.280  55.027  1.00  0.00    -0.342 OA
BRANCH  23  24
HETATM   24  C   UNL     1       7.461  25.004  54.567  1.00  0.00     0.069 A 
HETATM   25  C   UNL     1       7.787  24.783  53.229  1.00  0.00     0.038 A 
HETATM   26  C   UNL     1       7.981  23.478  52.772  1.00  0.00     0.022 A 
HETATM   27  C   UNL     1       7.872  22.411  53.664  1.00  0.00     0.011 A 
HETATM   28 BR   UNL     1       8.129  20.644  53.043  1.00  0.00    -0.051 Br
HETATM   29  C   UNL     1       7.581  22.636  55.009  1.00  0.00     0.022 A 
HETATM   30  C   UNL     1       7.383  23.941  55.465  1.00  0.00     0.038 A 
ENDBRANCH  23  24
ENDBRANCH  22  23
ENDBRANCH  19  22
ENDBRANCH   3  18
TORSDOF 8
ENDMDL
MODEL 7
REMARK VINA RESULT:      -8.5      4.171      9.792
REMARK  8 active torsions:
REMARK  status: ('A' for Active; 'I' for Inactive)
REMARK    1  A    between atoms: N_4  and  C_5 
REMARK    2  A    between atoms: C_5  and  C_6 
REMARK    3  A    between atoms: C_6  and  C_7 
REMARK    4  A    between atoms: C_7  and  N_8 
REMARK       I    between atoms: N_8  and  C_9 
REMARK       I    between atoms: C_9  and  N_10 
REMARK    5  A    between atoms: N_10  and  N_11 
REMARK       I    between atoms: N_11  and  C_12 
REMARK    6  A    between atoms: C_12  and  C_13 
REMARK    7  A    between atoms: C_13  and  O_14 
REMARK    8  A    between atoms: O_14  and  C_15 
ROOT
HETATM    1  N   UNL     1       4.390  31.718  59.919  1.00  0.00    -0.341 N 
HETATM    2  C   UNL     1       4.235  31.364  58.613  1.00  0.00     0.334 C 
HETATM    3  N   UNL     1       5.202  30.523  58.119  1.00  0.00    -0.249 N 
HETATM    4  O   UNL     1       3.301  31.719  57.900  1.00  0.00    -0.246 OA
HETATM    5  H   UNL     1       5.054  31.171  60.454  1.00  0.00     0.164 HD
HETATM    6  H   UNL     1       5.118  30.351  57.120  1.00  0.00     0.192 HD
ENDROOT
BRANCH   1   7
HETATM    7  C   UNL     1       3.366  32.419  60.672  1.00  0.00     0.130 C 
BRANCH   7   8
HETATM    8  C   UNL     1       3.882  32.943  62.027  1.00  0.00     0.019 C 
HETATM    9  C   UNL     1       2.842  33.822  62.735  1.00  0.00     0.013 C 
BRANCH   8  10
HETATM   10  C   UNL     1       5.176  33.761  61.838  1.00  0.00     0.156 C 
BRANCH  10  11
HETATM   11  N   UNL     1       6.414  33.122  62.256  1.00  0.00    -0.274 N 
HETATM   12  N   UNL     1       7.011  32.209  61.467  1.00  0.00    -0.177 NA
HETATM   13  C   UNL     1       8.068  31.794  62.172  1.00  0.00     0.053 A 
HETATM   14  C   UNL     1       8.984  30.767  61.623  1.00  0.00     0.072 C 
HETATM   15  C   UNL     1       8.139  32.440  63.424  1.00  0.00     0.055 A 
HETATM   16  C   UNL     1       7.052  33.289  63.463  1.00  0.00     0.028 A 
HETATM   17  C   UNL     1       6.589  34.212  64.525  1.00  0.00     0.070 C 
ENDBRANCH  10  11
ENDBRANCH   8  10
ENDBRANCH   7   8
ENDBRANCH   1   7
BRANCH   3  18
HETATM   18  N   UNL     1       6.495  30.471  58.666  1.00  0.00    -0.264 N 
HETATM   19  C   UNL     1       7.470  29.674  58.108  1.00  0.00     0.260 C 
HETATM   20  O   UNL     1       8.648  30.023  58.169  1.00  0.00    -0.269 OA
HETATM   21  H   UNL     1       6.842  31.347  59.047  1.00  0.00     0.190 HD
BRANCH  19  22
HETATM   22  C   UNL     1       7.042  28.337  57.506  1.00  0.00     0.280 C 
BRANCH  22  23
HETATM   23  O   UNL     1       7.784  27.248  58.063  1.00  0.00    -0.342 OA
BRANCH  23  24
HETATM   24  C   UNL     1       7.879  26.209  57.179  1.00  0.00     0.069 A 
HETATM   25  C   UNL     1       7.348  26.332  55.895  1.00  0.00     0.038 A 
HETATM   26  C   UNL     1       7.460  25.270  54.996  1.00  0.00     0.022 A 
HETATM   27  C   UNL     1       8.127  24.107  55.381  1.00  0.00     0.011 A 
HETATM   28 BR   UNL     1       8.275  22.667  54.165  1.00  0.00    -0.051 Br
HETATM   29  C   UNL     1       8.689  23.999  56.653  1.00  0.00     0.022 A 
HETATM   30  C   UNL     1       8.572  25.059  57.554  1.00  0.00     0.038 A 
ENDBRANCH  23  24
ENDBRANCH  22  23
ENDBRANCH  19  22
ENDBRANCH   3  18
TORSDOF 8
ENDMDL
MODEL 8
REMARK VINA RESULT:      -8.4      6.762     10.054
REMARK  8 active torsions:
REMARK  status: ('A' for Active; 'I' for Inactive)
REMARK    1  A    between atoms: N_4  and  C_5 
REMARK    2  A    between atoms: C_5  and  C_6 
REMARK    3  A    between atoms: C_6  and  C_7 
REMARK    4  A    between atoms: C_7  and  N_8 
REMARK       I    between atoms: N_8  and  C_9 
REMARK       I    between atoms: C_9  and  N_10 
REMARK    5  A    between atoms: N_10  and  N_11 
REMARK       I    between atoms: N_11  and  C_12 
REMARK    6  A    between atoms: C_12  and  C_13 
REMARK    7  A    between atoms: C_13  and  O_14 
REMARK    8  A    between atoms: O_14  and  C_15 
ROOT
HETATM    1  N   UNL     1       5.169  26.084  55.631  1.00  0.00    -0.341 N 
HETATM    2  C   UNL     1       5.095  27.308  55.036  1.00  0.00     0.334 C 
HETATM    3  N   UNL     1       4.235  27.384  53.966  1.00  0.00    -0.249 N 
HETATM    4  O   UNL     1       5.706  28.304  55.410  1.00  0.00    -0.246 OA
HETATM    5  H   UNL     1       4.443  25.423  55.383  1.00  0.00     0.164 HD
HETATM    6  H   UNL     1       4.269  28.277  53.482  1.00  0.00     0.192 HD
ENDROOT
BRANCH   1   7
HETATM    7  C   UNL     1       5.851  25.862  56.892  1.00  0.00     0.130 C 
BRANCH   7   8
HETATM    8  C   UNL     1       7.112  24.989  56.738  1.00  0.00     0.019 C 
HETATM    9  C   UNL     1       8.246  25.451  57.663  1.00  0.00     0.013 C 
BRANCH   8  10
HETATM   10  C   UNL     1       7.620  25.017  55.282  1.00  0.00     0.156 C 
BRANCH  10  11
HETATM   11  N   UNL     1       7.786  23.727  54.629  1.00  0.00    -0.274 N 
HETATM   12  N   UNL     1       7.841  22.596  55.356  1.00  0.00    -0.177 NA
HETATM   13  C   UNL     1       8.055  21.629  54.458  1.00  0.00     0.053 A 
HETATM   14  C   UNL     1       8.179  20.216  54.888  1.00  0.00     0.072 C 
HETATM   15  C   UNL     1       8.147  22.149  53.150  1.00  0.00     0.055 A 
HETATM   16  C   UNL     1       7.981  23.512  53.285  1.00  0.00     0.028 A 
HETATM   17  C   UNL     1       7.997  24.589  52.266  1.00  0.00     0.070 C 
ENDBRANCH  10  11
ENDBRANCH   8  10
ENDBRANCH   7   8
ENDBRANCH   1   7
BRANCH   3  18
HETATM   18  N   UNL     1       3.899  26.257  53.198  1.00  0.00    -0.264 N 
HETATM   19  C   UNL     1       4.569  25.969  52.030  1.00  0.00     0.260 C 
HETATM   20  O   UNL     1       4.713  24.797  51.685  1.00  0.00    -0.269 OA
HETATM   21  H   UNL     1       3.617  25.436  53.729  1.00  0.00     0.190 HD
BRANCH  19  22
HETATM   22  C   UNL     1       5.036  27.140  51.167  1.00  0.00     0.280 C 
BRANCH  22  23
HETATM   23  O   UNL     1       5.240  26.742  49.808  1.00  0.00    -0.342 OA
BRANCH  23  24
HETATM   24  C   UNL     1       4.114  26.946  49.057  1.00  0.00     0.069 A 
HETATM   25  C   UNL     1       3.763  26.036  48.061  1.00  0.00     0.038 A 
HETATM   26  C   UNL     1       2.607  26.246  47.309  1.00  0.00     0.022 A 
HETATM   27  C   UNL     1       1.799  27.351  47.579  1.00  0.00     0.011 A 
HETATM   28 BR   UNL     1       0.235  27.639  46.556  1.00  0.00    -0.051 Br
HETATM   29  C   UNL     1       2.132  28.241  48.600  1.00  0.00     0.022 A 
HETATM   30  C   UNL     1       3.292  28.033  49.349  1.00  0.00     0.038 A 
ENDBRANCH  23  24
ENDBRANCH  22  23
ENDBRANCH  19  22
ENDBRANCH   3  18
TORSDOF 8
ENDMDL
MODEL 9
REMARK VINA RESULT:      -8.4      4.281      9.776
REMARK  8 active torsions:
REMARK  status: ('A' for Active; 'I' for Inactive)
REMARK    1  A    between atoms: N_4  and  C_5 
REMARK    2  A    between atoms: C_5  and  C_6 
REMARK    3  A    between atoms: C_6  and  C_7 
REMARK    4  A    between atoms: C_7  and  N_8 
REMARK       I    between atoms: N_8  and  C_9 
REMARK       I    between atoms: C_9  and  N_10 
REMARK    5  A    between atoms: N_10  and  N_11 
REMARK       I    between atoms: N_11  and  C_12 
REMARK    6  A    between atoms: C_12  and  C_13 
REMARK    7  A    between atoms: C_13  and  O_14 
REMARK    8  A    between atoms: O_14  and  C_15 
ROOT
HETATM    1  N   UNL     1       7.668  28.717  56.069  1.00  0.00    -0.341 N 
HETATM    2  C   UNL     1       6.316  28.653  56.223  1.00  0.00     0.334 C 
HETATM    3  N   UNL     1       5.599  28.584  55.053  1.00  0.00    -0.249 N 
HETATM    4  O   UNL     1       5.738  28.625  57.305  1.00  0.00    -0.246 OA
HETATM    5  H   UNL     1       8.023  28.488  55.148  1.00  0.00     0.164 HD
HETATM    6  H   UNL     1       4.593  28.634  55.190  1.00  0.00     0.192 HD
ENDROOT
BRANCH   1   7
HETATM    7  C   UNL     1       8.594  28.581  57.177  1.00  0.00     0.130 C 
BRANCH   7   8
HETATM    8  C   UNL     1       9.141  29.938  57.663  1.00  0.00     0.019 C 
HETATM    9  C   UNL     1      10.648  30.072  57.411  1.00  0.00     0.013 C 
BRANCH   8  10
HETATM   10  C   UNL     1       8.873  30.126  59.170  1.00  0.00     0.156 C 
BRANCH  10  11
HETATM   11  N   UNL     1       7.820  31.065  59.530  1.00  0.00    -0.274 N 
HETATM   12  N   UNL     1       6.941  31.492  58.604  1.00  0.00    -0.177 NA
HETATM   13  C   UNL     1       6.170  32.370  59.252  1.00  0.00     0.053 A 
HETATM   14  C   UNL     1       5.068  33.067  58.548  1.00  0.00     0.072 C 
HETATM   15  C   UNL     1       6.566  32.511  60.598  1.00  0.00     0.055 A 
HETATM   16  C   UNL     1       7.644  31.663  60.755  1.00  0.00     0.028 A 
HETATM   17  C   UNL     1       8.492  31.394  61.940  1.00  0.00     0.070 C 
ENDBRANCH  10  11
ENDBRANCH   8  10
ENDBRANCH   7   8
ENDBRANCH   1   7
BRANCH   3  18
HETATM   18  N   UNL     1       6.100  29.086  53.841  1.00  0.00    -0.264 N 
HETATM   19  C   UNL     1       6.073  28.326  52.693  1.00  0.00     0.260 C 
HETATM   20  O   UNL     1       5.947  28.880  51.601  1.00  0.00    -0.269 OA
HETATM   21  H   UNL     1       5.951  30.080  53.686  1.00  0.00     0.190 HD
BRANCH  19  22
HETATM   22  C   UNL     1       6.286  26.820  52.827  1.00  0.00     0.280 C 
BRANCH  22  23
HETATM   23  O   UNL     1       7.353  26.518  53.730  1.00  0.00    -0.342 OA
BRANCH  23  24
HETATM   24  C   UNL     1       7.577  25.170  53.800  1.00  0.00     0.069 A 
HETATM   25  C   UNL     1       7.654  24.537  55.040  1.00  0.00     0.038 A 
HETATM   26  C   UNL     1       7.871  23.160  55.101  1.00  0.00     0.022 A 
HETATM   27  C   UNL     1       7.982  22.425  53.920  1.00  0.00     0.011 A 
HETATM   28 BR   UNL     1       8.281  20.560  54.002  1.00  0.00    -0.051 Br
HETATM   29  C   UNL     1       7.869  23.054  52.680  1.00  0.00     0.022 A 
HETATM   30  C   UNL     1       7.657  24.433  52.620  1.00  0.00     0.038 A 
ENDBRANCH  23  24
ENDBRANCH  22  23
ENDBRANCH  19  22
ENDBRANCH   3  18
TORSDOF 8
ENDMDL
MODEL 10
REMARK VINA RESULT:      -8.3      1.502      1.975
REMARK  8 active torsions:
REMARK  status: ('A' for Active; 'I' for Inactive)
REMARK    1  A    between atoms: N_4  and  C_5 
REMARK    2  A    between atoms: C_5  and  C_6 
REMARK    3  A    between atoms: C_6  and  C_7 
REMARK    4  A    between atoms: C_7  and  N_8 
REMARK       I    between atoms: N_8  and  C_9 
REMARK       I    between atoms: C_9  and  N_10 
REMARK    5  A    between atoms: N_10  and  N_11 
REMARK       I    between atoms: N_11  and  C_12 
REMARK    6  A    between atoms: C_12  and  C_13 
REMARK    7  A    between atoms: C_13  and  O_14 
REMARK    8  A    between atoms: O_14  and  C_15 
ROOT
HETATM    1  N   UNL     1       7.170  28.755  55.974  1.00  0.00    -0.341 N 
HETATM    2  C   UNL     1       8.060  28.791  57.005  1.00  0.00     0.334 C 
HETATM    3  N   UNL     1       7.569  29.307  58.180  1.00  0.00    -0.249 N 
HETATM    4  O   UNL     1       9.214  28.377  56.945  1.00  0.00    -0.246 OA
HETATM    5  H   UNL     1       6.197  28.897  56.220  1.00  0.00     0.164 HD
HETATM    6  H   UNL     1       8.276  29.412  58.904  1.00  0.00     0.192 HD
ENDROOT
BRANCH   1   7
HETATM    7  C   UNL     1       7.433  28.057  54.730  1.00  0.00     0.130 C 
BRANCH   7   8
HETATM    8  C   UNL     1       6.382  26.970  54.426  1.00  0.00     0.019 C 
HETATM    9  C   UNL     1       4.961  27.546  54.375  1.00  0.00     0.013 C 
BRANCH   8  10
HETATM   10  C   UNL     1       6.426  25.856  55.492  1.00  0.00     0.156 C 
BRANCH  10  11
HETATM   11  N   UNL     1       7.250  24.696  55.183  1.00  0.00    -0.274 N 
HETATM   12  N   UNL     1       6.981  23.936  54.106  1.00  0.00    -0.177 NA
HETATM   13  C   UNL     1       7.878  22.946  54.161  1.00  0.00     0.053 A 
HETATM   14  C   UNL     1       7.896  21.888  53.125  1.00  0.00     0.072 C 
HETATM   15  C   UNL     1       8.718  23.072  55.287  1.00  0.00     0.055 A 
HETATM   16  C   UNL     1       8.287  24.208  55.942  1.00  0.00     0.028 A 
HETATM   17  C   UNL     1       8.768  24.838  57.194  1.00  0.00     0.070 C 
ENDBRANCH  10  11
ENDBRANCH   8  10
ENDBRANCH   7   8
ENDBRANCH   1   7
BRANCH   3  18
HETATM   18  N   UNL     1       6.495  30.211  58.207  1.00  0.00    -0.264 N 
HETATM   19  C   UNL     1       6.695  31.542  58.500  1.00  0.00     0.260 C 
HETATM   20  O   UNL     1       5.967  32.392  57.989  1.00  0.00    -0.269 OA
HETATM   21  H   UNL     1       5.766  30.042  57.518  1.00  0.00     0.190 HD
BRANCH  19  22
HETATM   22  C   UNL     1       7.774  31.894  59.522  1.00  0.00     0.280 C 
BRANCH  22  23
HETATM   23  O   UNL     1       7.715  31.037  60.666  1.00  0.00    -0.342 OA
BRANCH  23  24
HETATM   24  C   UNL     1       7.339  31.728  61.785  1.00  0.00     0.069 A 
HETATM   25  C   UNL     1       5.992  32.013  62.011  1.00  0.00     0.038 A 
HETATM   26  C   UNL     1       5.617  32.709  63.161  1.00  0.00     0.022 A 
HETATM   27  C   UNL     1       6.589  33.088  64.087  1.00  0.00     0.011 A 
HETATM   28 BR   UNL     1       6.081  34.034  65.643  1.00  0.00    -0.051 Br
HETATM   29  C   UNL     1       7.931  32.771  63.877  1.00  0.00     0.022 A 
HETATM   30  C   UNL     1       8.307  32.079  62.724  1.00  0.00     0.038 A 
ENDBRANCH  23  24
ENDBRANCH  22  23
ENDBRANCH  19  22
ENDBRANCH   3  18
TORSDOF 8
ENDMDL
