MODEL 1
REMARK VINA RESULT:      -9.9      0.000      0.000
REMARK  6 active torsions:
REMARK  status: ('A' for Active; 'I' for Inactive)
REMARK    1  A    between atoms: C_2  and  C_3 
REMARK    2  A    between atoms: C_3  and  C_4 
REMARK    3  A    between atoms: C_3  and  C_10 
REMARK    4  A    between atoms: C_10  and  C_11 
REMARK       I    between atoms: C_11  and  N_12 
REMARK    5  A    between atoms: N_12  and  C_13 
REMARK    6  A    between atoms: C_20  and  C_21 
REMARK       I    between atoms: C_21  and  N_22 
ROOT
HETATM    1  C   UNL     1       8.581  28.278  57.185  1.00  0.00     0.035 A 
HETATM    2  C   UNL     1       7.961  29.153  58.087  1.00  0.00     0.046 A 
HETATM    3  C   UNL     1       8.618  30.342  58.470  1.00  0.00     0.030 A 
HETATM    4  C   UNL     1       9.875  30.612  57.945  1.00  0.00     0.063 A 
HETATM    5  N   UNL     1      10.253  31.800  58.502  1.00  0.00    -0.277 N 
HETATM    6  H   UNL     1      11.123  32.300  58.352  1.00  0.00     0.189 HD
HETATM    7  N   UNL     1       9.347  32.342  59.331  1.00  0.00    -0.168 NA
HETATM    8  C   UNL     1       8.326  31.453  59.319  1.00  0.00     0.156 A 
HETATM    9  C   UNL     1      10.521  29.766  57.040  1.00  0.00     0.034 A 
HETATM   10  C   UNL     1       9.842  28.599  56.666  1.00  0.00     0.032 A 
ENDROOT
BRANCH   1  11
HETATM   11  N   UNL     1       7.996  27.072  56.738  1.00  0.00    -0.327 N 
HETATM   12  C   UNL     1       7.319  26.869  55.552  1.00  0.00     0.222 C 
HETATM   13  O   UNL     1       7.092  27.729  54.703  1.00  0.00    -0.273 OA
HETATM   14  H   UNL     1       7.936  26.341  57.431  1.00  0.00     0.169 HD
BRANCH  12  15
HETATM   15  C   UNL     1       6.896  25.431  55.265  1.00  0.00     0.112 C 
BRANCH  15  16
HETATM   16  C   UNL     1       7.446  24.720  54.013  1.00  0.00     0.027 C 
BRANCH  16  17
HETATM   17  C   UNL     1       6.552  24.971  52.776  1.00  0.00     0.005 C 
HETATM   18  C   UNL     1       5.059  24.935  53.074  1.00  0.00     0.006 C 
ENDBRANCH  16  17
BRANCH  16  19
HETATM   19  C   UNL     1       7.647  23.219  54.166  1.00  0.00    -0.054 A 
HETATM   20  C   UNL     1       7.587  22.579  55.412  1.00  0.00     0.007 A 
HETATM   21  C   UNL     1       7.794  21.202  55.515  1.00  0.00     0.001 A 
HETATM   22  C   UNL     1       8.050  20.445  54.373  1.00  0.00     0.000 A 
HETATM   23  C   UNL     1       8.093  21.063  53.126  1.00  0.00     0.001 A 
HETATM   24  C   UNL     1       7.890  22.439  53.023  1.00  0.00     0.007 A 
ENDBRANCH  16  19
ENDBRANCH  15  16
ENDBRANCH  12  15
ENDBRANCH   1  11
BRANCH   8  25
HETATM   25  C   UNL     1       7.104  31.685  60.102  1.00  0.00     0.270 C 
HETATM   26  N   UNL     1       7.153  31.180  61.373  1.00  0.00    -0.365 N 
HETATM   27  H   UNL     1       7.997  30.712  61.677  1.00  0.00     0.159 HD
HETATM   28  H   UNL     1       6.365  31.305  61.989  1.00  0.00     0.159 HD
HETATM   29  O   UNL     1       6.112  32.280  59.695  1.00  0.00    -0.266 OA
ENDBRANCH   8  25
TORSDOF 6
ENDMDL
MODEL 2
REMARK VINA RESULT:      -9.3      1.986      2.699
REMARK  6 active torsions:
REMARK  status: ('A' for Active; 'I' for Inactive)
REMARK    1  A    between atoms: C_2  and  C_3 
REMARK    2  A    between atoms: C_3  and  C_4 
REMARK    3  A    between atoms: C_3  and  C_10 
REMARK    4  A    between atoms: C_10  and  C_11 
REMARK       I    between atoms: C_11  and  N_12 
REMARK    5  A    between atoms: N_12  and  C_13 
REMARK    6  A    between atoms: C_20  and  C_21 
REMARK       I    between atoms: C_21  and  N_22 
ROOT
HETATM    1  C   UNL     1       7.492  28.150  57.121  1.00  0.00     0.035 A 
HETATM    2  C   UNL     1       8.243  29.150  57.754  1.00  0.00     0.046 A 
HETATM    3  C   UNL     1       7.603  30.328  58.198  1.00  0.00     0.030 A 
HETATM    4  C   UNL     1       6.238  30.468  57.986  1.00  0.00     0.063 A 
HETATM    5  N   UNL     1       5.916  31.693  58.500  1.00  0.00    -0.277 N 
HETATM    6  H   UNL     1       5.002  32.132  58.512  1.00  0.00     0.189 HD
HETATM    7  N   UNL     1       6.947  32.358  59.046  1.00  0.00    -0.168 NA
HETATM    8  C   UNL     1       7.998  31.524  58.871  1.00  0.00     0.156 A 
HETATM    9  C   UNL     1       5.458  29.491  57.365  1.00  0.00     0.034 A 
HETATM   10  C   UNL     1       6.114  28.326  56.946  1.00  0.00     0.032 A 
ENDROOT
BRANCH   1  11
HETATM   11  N   UNL     1       8.044  26.936  56.655  1.00  0.00    -0.327 N 
HETATM   12  C   UNL     1       8.205  25.768  57.372  1.00  0.00     0.222 C 
HETATM   13  O   UNL     1       7.914  25.612  58.557  1.00  0.00    -0.273 OA
HETATM   14  H   UNL     1       8.507  26.991  55.759  1.00  0.00     0.169 HD
BRANCH  12  15
HETATM   15  C   UNL     1       8.716  24.566  56.583  1.00  0.00     0.112 C 
BRANCH  15  16
HETATM   16  C   UNL     1       7.939  24.095  55.339  1.00  0.00     0.027 C 
BRANCH  16  17
HETATM   17  C   UNL     1       6.415  24.300  55.508  1.00  0.00     0.005 C 
HETATM   18  C   UNL     1       5.768  25.092  54.379  1.00  0.00     0.006 C 
ENDBRANCH  16  17
BRANCH  16  19
HETATM   19  C   UNL     1       8.190  22.649  54.936  1.00  0.00    -0.054 A 
HETATM   20  C   UNL     1       8.453  22.275  53.611  1.00  0.00     0.007 A 
HETATM   21  C   UNL     1       8.661  20.936  53.277  1.00  0.00     0.001 A 
HETATM   22  C   UNL     1       8.623  19.954  54.265  1.00  0.00     0.000 A 
HETATM   23  C   UNL     1       8.383  20.311  55.589  1.00  0.00     0.001 A 
HETATM   24  C   UNL     1       8.171  21.649  55.924  1.00  0.00     0.007 A 
ENDBRANCH  16  19
ENDBRANCH  15  16
ENDBRANCH  12  15
ENDBRANCH   1  11
BRANCH   8  25
HETATM   25  C   UNL     1       9.341  31.879  59.352  1.00  0.00     0.270 C 
HETATM   26  N   UNL     1       9.500  31.751  60.705  1.00  0.00    -0.365 N 
HETATM   27  H   UNL     1       8.717  31.422  61.256  1.00  0.00     0.159 HD
HETATM   28  H   UNL     1      10.393  31.959  61.123  1.00  0.00     0.159 HD
HETATM   29  O   UNL     1      10.265  32.254  58.638  1.00  0.00    -0.266 OA
ENDBRANCH   8  25
TORSDOF 6
ENDMDL
MODEL 3
REMARK VINA RESULT:      -9.3      1.620      2.813
REMARK  6 active torsions:
REMARK  status: ('A' for Active; 'I' for Inactive)
REMARK    1  A    between atoms: C_2  and  C_3 
REMARK    2  A    between atoms: C_3  and  C_4 
REMARK    3  A    between atoms: C_3  and  C_10 
REMARK    4  A    between atoms: C_10  and  C_11 
REMARK       I    between atoms: C_11  and  N_12 
REMARK    5  A    between atoms: N_12  and  C_13 
REMARK    6  A    between atoms: C_20  and  C_21 
REMARK       I    between atoms: C_21  and  N_22 
ROOT
HETATM    1  C   UNL     1       8.185  28.297  57.186  1.00  0.00     0.035 A 
HETATM    2  C   UNL     1       7.749  29.164  58.197  1.00  0.00     0.046 A 
HETATM    3  C   UNL     1       8.523  30.299  58.525  1.00  0.00     0.030 A 
HETATM    4  C   UNL     1       9.708  30.522  57.837  1.00  0.00     0.063 A 
HETATM    5  N   UNL     1      10.230  31.664  58.377  1.00  0.00    -0.277 N 
HETATM    6  H   UNL     1      11.099  32.121  58.123  1.00  0.00     0.189 HD
HETATM    7  N   UNL     1       9.482  32.217  59.344  1.00  0.00    -0.168 NA
HETATM    8  C   UNL     1       8.418  31.386  59.444  1.00  0.00     0.156 A 
HETATM    9  C   UNL     1      10.170  29.683  56.821  1.00  0.00     0.034 A 
HETATM   10  C   UNL     1       9.378  28.572  56.506  1.00  0.00     0.032 A 
ENDROOT
BRANCH   1  11
HETATM   11  N   UNL     1       7.472  27.145  56.784  1.00  0.00    -0.327 N 
HETATM   12  C   UNL     1       7.470  25.911  57.403  1.00  0.00     0.222 C 
HETATM   13  O   UNL     1       8.125  25.612  58.400  1.00  0.00    -0.273 OA
HETATM   14  H   UNL     1       7.054  27.198  55.866  1.00  0.00     0.169 HD
BRANCH  12  15
HETATM   15  C   UNL     1       6.509  24.877  56.825  1.00  0.00     0.112 C 
BRANCH  15  16
HETATM   16  C   UNL     1       7.003  23.926  55.718  1.00  0.00     0.027 C 
BRANCH  16  17
HETATM   17  C   UNL     1       8.483  23.527  55.927  1.00  0.00     0.005 C 
HETATM   18  C   UNL     1       8.698  22.031  56.122  1.00  0.00     0.006 C 
ENDBRANCH  16  17
BRANCH  16  19
HETATM   19  C   UNL     1       6.842  24.455  54.300  1.00  0.00    -0.054 A 
HETATM   20  C   UNL     1       7.896  24.451  53.375  1.00  0.00     0.007 A 
HETATM   21  C   UNL     1       7.715  24.962  52.088  1.00  0.00     0.001 A 
HETATM   22  C   UNL     1       6.476  25.469  51.704  1.00  0.00     0.000 A 
HETATM   23  C   UNL     1       5.414  25.462  52.604  1.00  0.00     0.001 A 
HETATM   24  C   UNL     1       5.594  24.956  53.892  1.00  0.00     0.007 A 
ENDBRANCH  16  19
ENDBRANCH  15  16
ENDBRANCH  12  15
ENDBRANCH   1  11
BRANCH   8  25
HETATM   25  C   UNL     1       7.333  31.650  60.400  1.00  0.00     0.270 C 
HETATM   26  N   UNL     1       6.122  31.897  59.814  1.00  0.00    -0.365 N 
HETATM   27  H   UNL     1       6.057  31.870  58.803  1.00  0.00     0.159 HD
HETATM   28  H   UNL     1       5.316  32.075  60.392  1.00  0.00     0.159 HD
HETATM   29  O   UNL     1       7.457  31.650  61.620  1.00  0.00    -0.266 OA
ENDBRANCH   8  25
TORSDOF 6
ENDMDL
MODEL 4
REMARK VINA RESULT:      -9.2      2.005      3.456
REMARK  6 active torsions:
REMARK  status: ('A' for Active; 'I' for Inactive)
REMARK    1  A    between atoms: C_2  and  C_3 
REMARK    2  A    between atoms: C_3  and  C_4 
REMARK    3  A    between atoms: C_3  and  C_10 
REMARK    4  A    between atoms: C_10  and  C_11 
REMARK       I    between atoms: C_11  and  N_12 
REMARK    5  A    between atoms: N_12  and  C_13 
REMARK    6  A    between atoms: C_20  and  C_21 
REMARK       I    between atoms: C_21  and  N_22 
ROOT
HETATM    1  C   UNL     1       7.184  27.982  56.941  1.00  0.00     0.035 A 
HETATM    2  C   UNL     1       7.991  28.938  57.573  1.00  0.00     0.046 A 
HETATM    3  C   UNL     1       7.416  30.145  58.027  1.00  0.00     0.030 A 
HETATM    4  C   UNL     1       6.058  30.358  57.827  1.00  0.00     0.063 A 
HETATM    5  N   UNL     1       5.805  31.595  58.348  1.00  0.00    -0.277 N 
HETATM    6  H   UNL     1       4.915  32.081  58.369  1.00  0.00     0.189 HD
HETATM    7  N   UNL     1       6.873  32.202  58.889  1.00  0.00    -0.168 NA
HETATM    8  C   UNL     1       7.878  31.315  58.703  1.00  0.00     0.156 A 
HETATM    9  C   UNL     1       5.224  29.425  57.206  1.00  0.00     0.034 A 
HETATM   10  C   UNL     1       5.816  28.231  56.777  1.00  0.00     0.032 A 
ENDROOT
BRANCH   1  11
HETATM   11  N   UNL     1       7.669  26.743  56.465  1.00  0.00    -0.327 N 
HETATM   12  C   UNL     1       8.053  25.655  57.224  1.00  0.00     0.222 C 
HETATM   13  O   UNL     1       8.060  25.609  58.452  1.00  0.00    -0.273 OA
HETATM   14  H   UNL     1       7.902  26.722  55.483  1.00  0.00     0.169 HD
BRANCH  12  15
HETATM   15  C   UNL     1       8.421  24.396  56.444  1.00  0.00     0.112 C 
BRANCH  15  16
HETATM   16  C   UNL     1       7.326  23.651  55.656  1.00  0.00     0.027 C 
BRANCH  16  17
HETATM   17  C   UNL     1       7.686  22.160  55.451  1.00  0.00     0.005 C 
HETATM   18  C   UNL     1       8.441  21.540  56.619  1.00  0.00     0.006 C 
ENDBRANCH  16  17
BRANCH  16  19
HETATM   19  C   UNL     1       6.989  24.256  54.301  1.00  0.00    -0.054 A 
HETATM   20  C   UNL     1       5.732  24.812  54.021  1.00  0.00     0.007 A 
HETATM   21  C   UNL     1       5.455  25.342  52.759  1.00  0.00     0.001 A 
HETATM   22  C   UNL     1       6.432  25.338  51.768  1.00  0.00     0.000 A 
HETATM   23  C   UNL     1       7.692  24.809  52.036  1.00  0.00     0.001 A 
HETATM   24  C   UNL     1       7.970  24.275  53.295  1.00  0.00     0.007 A 
ENDBRANCH  16  19
ENDBRANCH  15  16
ENDBRANCH  12  15
ENDBRANCH   1  11
BRANCH   8  25
HETATM   25  C   UNL     1       9.241  31.598  59.176  1.00  0.00     0.270 C 
HETATM   26  N   UNL     1       9.521  31.079  60.410  1.00  0.00    -0.365 N 
HETATM   27  H   UNL     1       8.803  30.547  60.888  1.00  0.00     0.159 HD
HETATM   28  H   UNL     1      10.437  31.210  60.810  1.00  0.00     0.159 HD
HETATM   29  O   UNL     1      10.084  32.231  58.549  1.00  0.00    -0.266 OA
ENDBRANCH   8  25
TORSDOF 6
ENDMDL
MODEL 5
REMARK VINA RESULT:      -9.1      5.408      8.734
REMARK  6 active torsions:
REMARK  status: ('A' for Active; 'I' for Inactive)
REMARK    1  A    between atoms: C_2  and  C_3 
REMARK    2  A    between atoms: C_3  and  C_4 
REMARK    3  A    between atoms: C_3  and  C_10 
REMARK    4  A    between atoms: C_10  and  C_11 
REMARK       I    between atoms: C_11  and  N_12 
REMARK    5  A    between atoms: N_12  and  C_13 
REMARK    6  A    between atoms: C_20  and  C_21 
REMARK       I    between atoms: C_21  and  N_22 
ROOT
HETATM    1  C   UNL     1       5.477  26.792  50.834  1.00  0.00     0.035 A 
HETATM    2  C   UNL     1       4.764  26.135  49.823  1.00  0.00     0.046 A 
HETATM    3  C   UNL     1       3.853  26.862  49.026  1.00  0.00     0.030 A 
HETATM    4  C   UNL     1       3.681  28.218  49.273  1.00  0.00     0.063 A 
HETATM    5  N   UNL     1       2.744  28.635  48.370  1.00  0.00    -0.277 N 
HETATM    6  H   UNL     1       2.365  29.570  48.266  1.00  0.00     0.189 HD
HETATM    7  N   UNL     1       2.301  27.675  47.542  1.00  0.00    -0.168 NA
HETATM    8  C   UNL     1       2.982  26.572  47.932  1.00  0.00     0.156 A 
HETATM    9  C   UNL     1       4.379  28.906  50.268  1.00  0.00     0.034 A 
HETATM   10  C   UNL     1       5.286  28.165  51.035  1.00  0.00     0.032 A 
ENDROOT
BRANCH   1  11
HETATM   11  N   UNL     1       6.416  26.149  51.672  1.00  0.00    -0.327 N 
HETATM   12  C   UNL     1       6.200  25.672  52.948  1.00  0.00     0.222 C 
HETATM   13  O   UNL     1       5.145  25.762  53.575  1.00  0.00    -0.273 OA
HETATM   14  H   UNL     1       7.374  26.192  51.355  1.00  0.00     0.169 HD
BRANCH  12  15
HETATM   15  C   UNL     1       7.359  24.906  53.580  1.00  0.00     0.112 C 
BRANCH  15  16
HETATM   16  C   UNL     1       7.069  23.888  54.699  1.00  0.00     0.027 C 
BRANCH  16  17
HETATM   17  C   UNL     1       7.562  24.397  56.075  1.00  0.00     0.005 C 
HETATM   18  C   UNL     1       6.478  25.060  56.914  1.00  0.00     0.006 C 
ENDBRANCH  16  17
BRANCH  16  19
HETATM   19  C   UNL     1       7.643  22.498  54.465  1.00  0.00    -0.054 A 
HETATM   20  C   UNL     1       7.936  22.015  53.182  1.00  0.00     0.007 A 
HETATM   21  C   UNL     1       8.445  20.727  53.006  1.00  0.00     0.001 A 
HETATM   22  C   UNL     1       8.683  19.912  54.110  1.00  0.00     0.000 A 
HETATM   23  C   UNL     1       8.417  20.384  55.392  1.00  0.00     0.001 A 
HETATM   24  C   UNL     1       7.903  21.669  55.570  1.00  0.00     0.007 A 
ENDBRANCH  16  19
ENDBRANCH  15  16
ENDBRANCH  12  15
ENDBRANCH   1  11
BRANCH   8  25
HETATM   25  C   UNL     1       2.794  25.282  47.254  1.00  0.00     0.270 C 
HETATM   26  N   UNL     1       2.771  24.206  48.100  1.00  0.00    -0.365 N 
HETATM   27  H   UNL     1       2.870  24.369  49.094  1.00  0.00     0.159 HD
HETATM   28  H   UNL     1       2.632  23.281  47.725  1.00  0.00     0.159 HD
HETATM   29  O   UNL     1       2.657  25.139  46.044  1.00  0.00    -0.266 OA
ENDBRANCH   8  25
TORSDOF 6
ENDMDL
MODEL 6
REMARK VINA RESULT:      -9.0      1.827      2.711
REMARK  6 active torsions:
REMARK  status: ('A' for Active; 'I' for Inactive)
REMARK    1  A    between atoms: C_2  and  C_3 
REMARK    2  A    between atoms: C_3  and  C_4 
REMARK    3  A    between atoms: C_3  and  C_10 
REMARK    4  A    between atoms: C_10  and  C_11 
REMARK       I    between atoms: C_11  and  N_12 
REMARK    5  A    between atoms: N_12  and  C_13 
REMARK    6  A    between atoms: C_20  and  C_21 
REMARK       I    between atoms: C_21  and  N_22 
ROOT
HETATM    1  C   UNL     1       6.136  28.081  57.046  1.00  0.00     0.035 A 
HETATM    2  C   UNL     1       7.148  28.762  57.737  1.00  0.00     0.046 A 
HETATM    3  C   UNL     1       6.947  30.104  58.126  1.00  0.00     0.030 A 
HETATM    4  C   UNL     1       5.744  30.721  57.804  1.00  0.00     0.063 A 
HETATM    5  N   UNL     1       5.850  31.995  58.288  1.00  0.00    -0.277 N 
HETATM    6  H   UNL     1       5.159  32.734  58.226  1.00  0.00     0.189 HD
HETATM    7  N   UNL     1       7.007  32.260  58.915  1.00  0.00    -0.168 NA
HETATM    8  C   UNL     1       7.696  31.097  58.827  1.00  0.00     0.156 A 
HETATM    9  C   UNL     1       4.712  30.072  57.123  1.00  0.00     0.034 A 
HETATM   10  C   UNL     1       4.932  28.737  56.760  1.00  0.00     0.032 A 
ENDROOT
BRANCH   1  11
HETATM   11  N   UNL     1       6.245  26.736  56.628  1.00  0.00    -0.327 N 
HETATM   12  C   UNL     1       6.960  26.258  55.549  1.00  0.00     0.222 C 
HETATM   13  O   UNL     1       7.599  26.945  54.754  1.00  0.00    -0.273 OA
HETATM   14  H   UNL     1       5.606  26.095  57.075  1.00  0.00     0.169 HD
BRANCH  12  15
HETATM   15  C   UNL     1       7.006  24.740  55.400  1.00  0.00     0.112 C 
BRANCH  15  16
HETATM   16  C   UNL     1       7.596  24.127  54.115  1.00  0.00     0.027 C 
BRANCH  16  17
HETATM   17  C   UNL     1       6.632  24.281  52.915  1.00  0.00     0.005 C 
HETATM   18  C   UNL     1       7.170  25.169  51.801  1.00  0.00     0.006 C 
ENDBRANCH  16  17
BRANCH  16  19
HETATM   19  C   UNL     1       7.994  22.662  54.229  1.00  0.00    -0.054 A 
HETATM   20  C   UNL     1       7.982  21.794  53.127  1.00  0.00     0.007 A 
HETATM   21  C   UNL     1       8.337  20.452  53.275  1.00  0.00     0.001 A 
HETATM   22  C   UNL     1       8.723  19.963  54.521  1.00  0.00     0.000 A 
HETATM   23  C   UNL     1       8.760  20.816  55.621  1.00  0.00     0.001 A 
HETATM   24  C   UNL     1       8.401  22.156  55.476  1.00  0.00     0.007 A 
ENDBRANCH  16  19
ENDBRANCH  15  16
ENDBRANCH  12  15
ENDBRANCH   1  11
BRANCH   8  25
HETATM   25  C   UNL     1       9.036  30.960  59.415  1.00  0.00     0.270 C 
HETATM   26  N   UNL     1      10.012  31.646  58.744  1.00  0.00    -0.365 N 
HETATM   27  H   UNL     1       9.751  32.189  57.930  1.00  0.00     0.159 HD
HETATM   28  H   UNL     1      10.960  31.622  59.083  1.00  0.00     0.159 HD
HETATM   29  O   UNL     1       9.298  30.306  60.418  1.00  0.00    -0.266 OA
ENDBRANCH   8  25
TORSDOF 6
ENDMDL
MODEL 7
REMARK VINA RESULT:      -9.0      1.814      2.215
REMARK  6 active torsions:
REMARK  status: ('A' for Active; 'I' for Inactive)
REMARK    1  A    between atoms: C_2  and  C_3 
REMARK    2  A    between atoms: C_3  and  C_4 
REMARK    3  A    between atoms: C_3  and  C_10 
REMARK    4  A    between atoms: C_10  and  C_11 
REMARK       I    between atoms: C_11  and  N_12 
REMARK    5  A    between atoms: N_12  and  C_13 
REMARK    6  A    between atoms: C_20  and  C_21 
REMARK       I    between atoms: C_21  and  N_22 
ROOT
HETATM    1  C   UNL     1       7.289  27.820  56.617  1.00  0.00     0.035 A 
HETATM    2  C   UNL     1       6.263  28.708  56.967  1.00  0.00     0.046 A 
HETATM    3  C   UNL     1       6.577  29.902  57.652  1.00  0.00     0.030 A 
HETATM    4  C   UNL     1       7.904  30.163  57.970  1.00  0.00     0.063 A 
HETATM    5  N   UNL     1       7.890  31.359  58.631  1.00  0.00    -0.277 N 
HETATM    6  H   UNL     1       8.684  31.855  59.019  1.00  0.00     0.189 HD
HETATM    7  N   UNL     1       6.673  31.913  58.756  1.00  0.00    -0.168 NA
HETATM    8  C   UNL     1       5.850  31.025  58.151  1.00  0.00     0.156 A 
HETATM    9  C   UNL     1       8.952  29.304  57.632  1.00  0.00     0.034 A 
HETATM   10  C   UNL     1       8.616  28.133  56.941  1.00  0.00     0.032 A 
ENDROOT
BRANCH   1  11
HETATM   11  N   UNL     1       7.071  26.609  55.922  1.00  0.00    -0.327 N 
HETATM   12  C   UNL     1       6.110  26.365  54.962  1.00  0.00     0.222 C 
HETATM   13  O   UNL     1       5.263  27.170  54.579  1.00  0.00    -0.273 OA
HETATM   14  H   UNL     1       7.569  25.810  56.286  1.00  0.00     0.169 HD
BRANCH  12  15
HETATM   15  C   UNL     1       6.179  25.001  54.282  1.00  0.00     0.112 C 
BRANCH  15  16
HETATM   16  C   UNL     1       7.546  24.452  53.829  1.00  0.00     0.027 C 
BRANCH  16  17
HETATM   17  C   UNL     1       7.804  24.732  52.330  1.00  0.00     0.005 C 
HETATM   18  C   UNL     1       6.654  25.441  51.626  1.00  0.00     0.006 C 
ENDBRANCH  16  17
BRANCH  16  19
HETATM   19  C   UNL     1       7.756  22.967  54.085  1.00  0.00    -0.054 A 
HETATM   20  C   UNL     1       8.057  22.064  53.055  1.00  0.00     0.007 A 
HETATM   21  C   UNL     1       8.226  20.705  53.327  1.00  0.00     0.001 A 
HETATM   22  C   UNL     1       8.111  20.233  54.632  1.00  0.00     0.000 A 
HETATM   23  C   UNL     1       7.833  21.119  55.670  1.00  0.00     0.001 A 
HETATM   24  C   UNL     1       7.660  22.476  55.399  1.00  0.00     0.007 A 
ENDBRANCH  16  19
ENDBRANCH  15  16
ENDBRANCH  12  15
ENDBRANCH   1  11
BRANCH   8  25
HETATM   25  C   UNL     1       4.403  31.270  58.057  1.00  0.00     0.270 C 
HETATM   26  N   UNL     1       3.646  30.437  58.835  1.00  0.00    -0.365 N 
HETATM   27  H   UNL     1       4.116  29.747  59.408  1.00  0.00     0.159 HD
HETATM   28  H   UNL     1       2.644  30.541  58.845  1.00  0.00     0.159 HD
HETATM   29  O   UNL     1       3.882  32.135  57.363  1.00  0.00    -0.266 OA
ENDBRANCH   8  25
TORSDOF 6
ENDMDL
MODEL 8
REMARK VINA RESULT:      -8.7      4.765      7.881
REMARK  6 active torsions:
REMARK  status: ('A' for Active; 'I' for Inactive)
REMARK    1  A    between atoms: C_2  and  C_3 
REMARK    2  A    between atoms: C_3  and  C_4 
REMARK    3  A    between atoms: C_3  and  C_10 
REMARK    4  A    between atoms: C_10  and  C_11 
REMARK       I    between atoms: C_11  and  N_12 
REMARK    5  A    between atoms: N_12  and  C_13 
REMARK    6  A    between atoms: C_20  and  C_21 
REMARK       I    between atoms: C_21  and  N_22 
ROOT
HETATM    1  C   UNL     1       5.310  26.863  52.127  1.00  0.00     0.035 A 
HETATM    2  C   UNL     1       5.203  26.760  50.733  1.00  0.00     0.046 A 
HETATM    3  C   UNL     1       4.308  27.601  50.038  1.00  0.00     0.030 A 
HETATM    4  C   UNL     1       3.546  28.511  50.760  1.00  0.00     0.063 A 
HETATM    5  N   UNL     1       2.780  29.158  49.832  1.00  0.00    -0.277 N 
HETATM    6  H   UNL     1       2.095  29.887  50.001  1.00  0.00     0.189 HD
HETATM    7  N   UNL     1       2.987  28.766  48.565  1.00  0.00    -0.168 NA
HETATM    8  C   UNL     1       3.934  27.805  48.675  1.00  0.00     0.156 A 
HETATM    9  C   UNL     1       3.631  28.646  52.147  1.00  0.00     0.034 A 
HETATM   10  C   UNL     1       4.536  27.809  52.812  1.00  0.00     0.032 A 
ENDROOT
BRANCH   1  11
HETATM   11  N   UNL     1       6.186  26.072  52.904  1.00  0.00    -0.327 N 
HETATM   12  C   UNL     1       7.239  26.516  53.678  1.00  0.00     0.222 C 
HETATM   13  O   UNL     1       7.601  27.686  53.788  1.00  0.00    -0.273 OA
HETATM   14  H   UNL     1       6.123  25.078  52.742  1.00  0.00     0.169 HD
BRANCH  12  15
HETATM   15  C   UNL     1       7.945  25.453  54.515  1.00  0.00     0.112 C 
BRANCH  15  16
HETATM   16  C   UNL     1       7.108  24.355  55.200  1.00  0.00     0.027 C 
BRANCH  16  17
HETATM   17  C   UNL     1       7.187  24.456  56.742  1.00  0.00     0.005 C 
HETATM   18  C   UNL     1       8.220  25.456  57.244  1.00  0.00     0.006 C 
ENDBRANCH  16  17
BRANCH  16  19
HETATM   19  C   UNL     1       7.463  22.932  54.792  1.00  0.00    -0.054 A 
HETATM   20  C   UNL     1       7.571  21.890  55.724  1.00  0.00     0.007 A 
HETATM   21  C   UNL     1       7.916  20.601  55.313  1.00  0.00     0.001 A 
HETATM   22  C   UNL     1       8.142  20.333  53.965  1.00  0.00     0.000 A 
HETATM   23  C   UNL     1       8.019  21.352  53.024  1.00  0.00     0.001 A 
HETATM   24  C   UNL     1       7.679  22.641  53.434  1.00  0.00     0.007 A 
ENDBRANCH  16  19
ENDBRANCH  15  16
ENDBRANCH  12  15
ENDBRANCH   1  11
BRANCH   8  25
HETATM   25  C   UNL     1       4.462  27.116  47.488  1.00  0.00     0.270 C 
HETATM   26  N   UNL     1       5.747  27.460  47.170  1.00  0.00    -0.365 N 
HETATM   27  H   UNL     1       6.230  28.129  47.757  1.00  0.00     0.159 HD
HETATM   28  H   UNL     1       6.197  27.027  46.379  1.00  0.00     0.159 HD
HETATM   29  O   UNL     1       3.843  26.294  46.821  1.00  0.00    -0.266 OA
ENDBRANCH   8  25
TORSDOF 6
ENDMDL
MODEL 9
REMARK VINA RESULT:      -8.3      3.711      6.730
REMARK  6 active torsions:
REMARK  status: ('A' for Active; 'I' for Inactive)
REMARK    1  A    between atoms: C_2  and  C_3 
REMARK    2  A    between atoms: C_3  and  C_4 
REMARK    3  A    between atoms: C_3  and  C_10 
REMARK    4  A    between atoms: C_10  and  C_11 
REMARK       I    between atoms: C_11  and  N_12 
REMARK    5  A    between atoms: N_12  and  C_13 
REMARK    6  A    between atoms: C_20  and  C_21 
REMARK       I    between atoms: C_21  and  N_22 
ROOT
HETATM    1  C   UNL     1       6.976  31.936  62.179  1.00  0.00     0.035 A 
HETATM    2  C   UNL     1       5.742  32.561  62.406  1.00  0.00     0.046 A 
HETATM    3  C   UNL     1       5.605  33.466  63.480  1.00  0.00     0.030 A 
HETATM    4  C   UNL     1       6.703  33.709  64.295  1.00  0.00     0.063 A 
HETATM    5  N   UNL     1       6.265  34.598  65.236  1.00  0.00    -0.277 N 
HETATM    6  H   UNL     1       6.799  34.993  66.003  1.00  0.00     0.189 HD
HETATM    7  N   UNL     1       4.983  34.972  65.098  1.00  0.00    -0.168 NA
HETATM    8  C   UNL     1       4.561  34.283  64.012  1.00  0.00     0.156 A 
HETATM    9  C   UNL     1       7.948  33.110  64.096  1.00  0.00     0.034 A 
HETATM   10  C   UNL     1       8.062  32.226  63.015  1.00  0.00     0.032 A 
ENDROOT
BRANCH   1  11
HETATM   11  N   UNL     1       7.209  31.027  61.123  1.00  0.00    -0.327 N 
HETATM   12  C   UNL     1       7.672  31.325  59.858  1.00  0.00     0.222 C 
HETATM   13  O   UNL     1       7.930  32.452  59.439  1.00  0.00    -0.273 OA
HETATM   14  H   UNL     1       6.847  30.096  61.271  1.00  0.00     0.169 HD
BRANCH  12  15
HETATM   15  C   UNL     1       7.952  30.129  58.951  1.00  0.00     0.112 C 
BRANCH  15  16
HETATM   16  C   UNL     1       7.032  29.869  57.743  1.00  0.00     0.027 C 
BRANCH  16  17
HETATM   17  C   UNL     1       5.670  30.587  57.898  1.00  0.00     0.005 C 
HETATM   18  C   UNL     1       5.387  31.617  56.812  1.00  0.00     0.006 C 
ENDBRANCH  16  17
BRANCH  16  19
HETATM   19  C   UNL     1       6.770  28.400  57.443  1.00  0.00    -0.054 A 
HETATM   20  C   UNL     1       5.497  27.920  57.104  1.00  0.00     0.007 A 
HETATM   21  C   UNL     1       5.293  26.561  56.852  1.00  0.00     0.001 A 
HETATM   22  C   UNL     1       6.360  25.668  56.922  1.00  0.00     0.000 A 
HETATM   23  C   UNL     1       7.634  26.132  57.237  1.00  0.00     0.001 A 
HETATM   24  C   UNL     1       7.839  27.488  57.493  1.00  0.00     0.007 A 
ENDBRANCH  16  19
ENDBRANCH  15  16
ENDBRANCH  12  15
ENDBRANCH   1  11
BRANCH   8  25
HETATM   25  C   UNL     1       3.188  34.425  63.506  1.00  0.00     0.270 C 
HETATM   26  N   UNL     1       2.864  35.697  63.122  1.00  0.00    -0.365 N 
HETATM   27  H   UNL     1       3.569  36.421  63.199  1.00  0.00     0.159 HD
HETATM   28  H   UNL     1       1.948  35.887  62.749  1.00  0.00     0.159 HD
HETATM   29  O   UNL     1       2.377  33.510  63.413  1.00  0.00    -0.266 OA
ENDBRANCH   8  25
TORSDOF 6
ENDMDL
MODEL 10
REMARK VINA RESULT:      -8.2      2.703      4.072
REMARK  6 active torsions:
REMARK  status: ('A' for Active; 'I' for Inactive)
REMARK    1  A    between atoms: C_2  and  C_3 
REMARK    2  A    between atoms: C_3  and  C_4 
REMARK    3  A    between atoms: C_3  and  C_10 
REMARK    4  A    between atoms: C_10  and  C_11 
REMARK       I    between atoms: C_11  and  N_12 
REMARK    5  A    between atoms: N_12  and  C_13 
REMARK    6  A    between atoms: C_20  and  C_21 
REMARK       I    between atoms: C_21  and  N_22 
ROOT
HETATM    1  C   UNL     1       7.447  27.947  56.961  1.00  0.00     0.035 A 
HETATM    2  C   UNL     1       6.493  28.634  56.198  1.00  0.00     0.046 A 
HETATM    3  C   UNL     1       6.114  29.943  56.567  1.00  0.00     0.030 A 
HETATM    4  C   UNL     1       6.696  30.516  57.691  1.00  0.00     0.063 A 
HETATM    5  N   UNL     1       6.129  31.754  57.800  1.00  0.00    -0.277 N 
HETATM    6  H   UNL     1       6.311  32.452  58.513  1.00  0.00     0.189 HD
HETATM    7  N   UNL     1       5.242  32.049  56.837  1.00  0.00    -0.168 NA
HETATM    8  C   UNL     1       5.225  30.939  56.062  1.00  0.00     0.156 A 
HETATM    9  C   UNL     1       7.654  29.864  58.471  1.00  0.00     0.034 A 
HETATM   10  C   UNL     1       8.022  28.571  58.075  1.00  0.00     0.032 A 
ENDROOT
BRANCH   1  11
HETATM   11  N   UNL     1       7.894  26.640  56.660  1.00  0.00    -0.327 N 
HETATM   12  C   UNL     1       7.247  25.455  56.945  1.00  0.00     0.222 C 
HETATM   13  O   UNL     1       6.176  25.352  57.542  1.00  0.00    -0.273 OA
HETATM   14  H   UNL     1       8.853  26.576  56.351  1.00  0.00     0.169 HD
BRANCH  12  15
HETATM   15  C   UNL     1       7.899  24.190  56.395  1.00  0.00     0.112 C 
BRANCH  15  16
HETATM   16  C   UNL     1       7.161  23.369  55.320  1.00  0.00     0.027 C 
BRANCH  16  17
HETATM   17  C   UNL     1       7.927  22.071  54.969  1.00  0.00     0.005 C 
HETATM   18  C   UNL     1       8.217  21.180  56.169  1.00  0.00     0.006 C 
ENDBRANCH  16  17
BRANCH  16  19
HETATM   19  C   UNL     1       6.868  24.120  54.030  1.00  0.00    -0.054 A 
HETATM   20  C   UNL     1       5.595  24.630  53.732  1.00  0.00     0.007 A 
HETATM   21  C   UNL     1       5.361  25.299  52.529  1.00  0.00     0.001 A 
HETATM   22  C   UNL     1       6.397  25.481  51.616  1.00  0.00     0.000 A 
HETATM   23  C   UNL     1       7.670  24.999  51.905  1.00  0.00     0.001 A 
HETATM   24  C   UNL     1       7.905  24.326  53.105  1.00  0.00     0.007 A 
ENDBRANCH  16  19
ENDBRANCH  15  16
ENDBRANCH  12  15
ENDBRANCH   1  11
BRANCH   8  25
HETATM   25  C   UNL     1       4.375  30.858  54.866  1.00  0.00     0.270 C 
HETATM   26  N   UNL     1       4.669  31.790  53.909  1.00  0.00    -0.365 N 
HETATM   27  H   UNL     1       5.430  32.437  54.079  1.00  0.00     0.159 HD
HETATM   28  H   UNL     1       4.147  31.801  53.047  1.00  0.00     0.159 HD
HETATM   29  O   UNL     1       3.478  30.039  54.697  1.00  0.00    -0.266 OA
ENDBRANCH   8  25
TORSDOF 6
ENDMDL
