MODEL 1
REMARK VINA RESULT:      -9.6      0.000      0.000
REMARK  4 active torsions:
REMARK  status: ('A' for Active; 'I' for Inactive)
REMARK    1  A    between atoms: C_3  and  N_4 
REMARK       I    between atoms: N_4  and  C_5 
REMARK    2  A    between atoms: C_5  and  C_6 
REMARK    3  A    between atoms: C_7  and  C_8 
REMARK    4  A    between atoms: C_11  and  O_12 
ROOT
HETATM    1  C   UNL     1       5.331  27.017  53.447  1.00  0.00     0.062 C 
HETATM    2  C   UNL     1       5.069  27.769  54.743  1.00  0.00     0.202 C 
HETATM    3  N   UNL     1       4.357  29.021  54.479  1.00  0.00    -0.083 N 
HETATM    4  C   UNL     1       4.247  29.588  53.239  1.00  0.00     0.726 A 
HETATM    5  N   UNL     1       4.760  28.942  52.171  1.00  0.00    -0.192 N 
HETATM    6  N   UNL     1       3.701  29.738  55.413  1.00  0.00    -0.141 NA
HETATM    7  C   UNL     1       3.261  30.767  54.673  1.00  0.00     0.162 A 
HETATM    8  C   UNL     1       2.463  31.870  55.243  1.00  0.00     0.096 C 
HETATM    9  N   UNL     1       3.576  30.708  53.333  1.00  0.00    -0.046 NA
HETATM   10  C   UNL     1       5.179  27.613  52.237  1.00  0.00     0.037 C 
HETATM   11  C   UNL     1       5.398  26.922  50.915  1.00  0.00     0.070 C 
HETATM   12  H   UNL     1       4.538  29.307  51.247  1.00  0.00     0.184 HD
ENDROOT
BRANCH   1  13
HETATM   13  C   UNL     1       5.510  25.548  53.550  1.00  0.00     0.256 C 
HETATM   14  N   UNL     1       6.807  25.165  53.805  1.00  0.00    -0.323 N 
HETATM   15  H   UNL     1       7.497  25.899  53.891  1.00  0.00     0.169 HD
HETATM   16  O   UNL     1       4.527  24.830  53.414  1.00  0.00    -0.267 OA
BRANCH  14  17
HETATM   17  C   UNL     1       7.296  23.844  53.974  1.00  0.00     0.041 A 
HETATM   18  C   UNL     1       7.512  23.356  55.282  1.00  0.00    -0.035 A 
HETATM   19  C   UNL     1       7.222  24.174  56.512  1.00  0.00     0.050 C 
HETATM   20  C   UNL     1       7.988  22.043  55.460  1.00  0.00     0.009 A 
HETATM   21  C   UNL     1       8.256  21.223  54.367  1.00  0.00     0.001 A 
HETATM   22  C   UNL     1       8.049  21.704  53.082  1.00  0.00     0.002 A 
HETATM   23  C   UNL     1       7.572  23.002  52.888  1.00  0.00     0.030 A 
ENDBRANCH  14  17
ENDBRANCH   1  13
BRANCH   2  24
HETATM   24  C   UNL     1       6.350  28.081  55.516  1.00  0.00    -0.028 A 
HETATM   25  C   UNL     1       7.478  28.630  54.882  1.00  0.00     0.012 A 
HETATM   26  C   UNL     1       8.630  28.928  55.612  1.00  0.00     0.037 A 
HETATM   27  C   UNL     1       8.676  28.707  56.988  1.00  0.00     0.068 A 
HETATM   28  C   UNL     1       7.566  28.158  57.628  1.00  0.00     0.037 A 
HETATM   29  C   UNL     1       6.412  27.847  56.899  1.00  0.00     0.012 A 
BRANCH  27  30
HETATM   30  O   UNL     1       9.855  29.055  57.586  1.00  0.00    -0.356 OA
HETATM   31  C   UNL     1      10.844  29.636  56.743  1.00  0.00     0.210 C 
ENDBRANCH  27  30
ENDBRANCH   2  24
TORSDOF 4
ENDMDL
MODEL 2
REMARK VINA RESULT:      -9.3      2.127      6.285
REMARK  4 active torsions:
REMARK  status: ('A' for Active; 'I' for Inactive)
REMARK    1  A    between atoms: C_3  and  N_4 
REMARK       I    between atoms: N_4  and  C_5 
REMARK    2  A    between atoms: C_5  and  C_6 
REMARK    3  A    between atoms: C_7  and  C_8 
REMARK    4  A    between atoms: C_11  and  O_12 
ROOT
HETATM    1  C   UNL     1       6.482  27.179  55.077  1.00  0.00     0.062 C 
HETATM    2  C   UNL     1       6.956  26.571  53.767  1.00  0.00     0.202 C 
HETATM    3  N   UNL     1       5.960  26.775  52.712  1.00  0.00    -0.083 N 
HETATM    4  C   UNL     1       4.666  27.151  52.949  1.00  0.00     0.726 A 
HETATM    5  N   UNL     1       4.278  27.416  54.215  1.00  0.00    -0.192 N 
HETATM    6  N   UNL     1       6.209  26.655  51.393  1.00  0.00    -0.141 NA
HETATM    7  C   UNL     1       4.994  26.916  50.886  1.00  0.00     0.162 A 
HETATM    8  C   UNL     1       4.722  26.909  49.435  1.00  0.00     0.096 C 
HETATM    9  N   UNL     1       4.023  27.227  51.812  1.00  0.00    -0.046 NA
HETATM   10  C   UNL     1       5.193  27.564  55.256  1.00  0.00     0.037 C 
HETATM   11  C   UNL     1       4.662  28.194  56.519  1.00  0.00     0.070 C 
HETATM   12  H   UNL     1       3.360  27.833  54.348  1.00  0.00     0.184 HD
ENDROOT
BRANCH   1  13
HETATM   13  C   UNL     1       7.529  27.564  56.054  1.00  0.00     0.256 C 
HETATM   14  N   UNL     1       7.974  28.858  55.909  1.00  0.00    -0.323 N 
HETATM   15  H   UNL     1       7.560  29.408  55.168  1.00  0.00     0.169 HD
HETATM   16  O   UNL     1       7.888  26.734  56.881  1.00  0.00    -0.267 OA
BRANCH  14  17
HETATM   17  C   UNL     1       8.950  29.525  56.693  1.00  0.00     0.041 A 
HETATM   18  C   UNL     1       8.528  30.323  57.780  1.00  0.00    -0.035 A 
HETATM   19  C   UNL     1       7.079  30.477  58.158  1.00  0.00     0.050 C 
HETATM   20  C   UNL     1       9.489  30.981  58.570  1.00  0.00     0.009 A 
HETATM   21  C   UNL     1      10.848  30.864  58.291  1.00  0.00     0.001 A 
HETATM   22  C   UNL     1      11.264  30.085  57.220  1.00  0.00     0.002 A 
HETATM   23  C   UNL     1      10.322  29.421  56.430  1.00  0.00     0.030 A 
ENDBRANCH  14  17
ENDBRANCH   1  13
BRANCH   2  24
HETATM   24  C   UNL     1       7.258  25.077  53.881  1.00  0.00    -0.028 A 
HETATM   25  C   UNL     1       7.993  24.396  52.895  1.00  0.00     0.012 A 
HETATM   26  C   UNL     1       8.277  23.036  53.032  1.00  0.00     0.037 A 
HETATM   27  C   UNL     1       7.854  22.332  54.159  1.00  0.00     0.068 A 
HETATM   28  C   UNL     1       7.120  22.994  55.141  1.00  0.00     0.037 A 
HETATM   29  C   UNL     1       6.823  24.356  55.004  1.00  0.00     0.012 A 
BRANCH  27  30
HETATM   30  O   UNL     1       8.209  21.011  54.176  1.00  0.00    -0.356 OA
HETATM   31  C   UNL     1       8.385  20.388  52.909  1.00  0.00     0.210 C 
ENDBRANCH  27  30
ENDBRANCH   2  24
TORSDOF 4
ENDMDL
MODEL 3
REMARK VINA RESULT:      -8.8      3.037      6.244
REMARK  4 active torsions:
REMARK  status: ('A' for Active; 'I' for Inactive)
REMARK    1  A    between atoms: C_3  and  N_4 
REMARK       I    between atoms: N_4  and  C_5 
REMARK    2  A    between atoms: C_5  and  C_6 
REMARK    3  A    between atoms: C_7  and  C_8 
REMARK    4  A    between atoms: C_11  and  O_12 
ROOT
HETATM    1  C   UNL     1       4.994  27.738  52.045  1.00  0.00     0.062 C 
HETATM    2  C   UNL     1       5.357  28.112  50.617  1.00  0.00     0.202 C 
HETATM    3  N   UNL     1       5.499  29.564  50.482  1.00  0.00    -0.083 N 
HETATM    4  C   UNL     1       5.044  30.462  51.409  1.00  0.00     0.726 A 
HETATM    5  N   UNL     1       4.487  30.006  52.551  1.00  0.00    -0.192 N 
HETATM    6  N   UNL     1       6.121  30.179  49.457  1.00  0.00    -0.141 NA
HETATM    7  C   UNL     1       5.953  31.465  49.801  1.00  0.00     0.162 A 
HETATM    8  C   UNL     1       6.467  32.579  48.978  1.00  0.00     0.096 C 
HETATM    9  N   UNL     1       5.298  31.677  50.994  1.00  0.00    -0.046 NA
HETATM   10  C   UNL     1       4.576  28.670  52.939  1.00  0.00     0.037 C 
HETATM   11  C   UNL     1       4.224  28.374  54.374  1.00  0.00     0.070 C 
HETATM   12  H   UNL     1       4.294  30.686  53.284  1.00  0.00     0.184 HD
ENDROOT
BRANCH   1  13
HETATM   13  C   UNL     1       5.354  26.370  52.491  1.00  0.00     0.256 C 
HETATM   14  N   UNL     1       6.654  26.254  52.929  1.00  0.00    -0.323 N 
HETATM   15  H   UNL     1       7.227  27.087  52.901  1.00  0.00     0.169 HD
HETATM   16  O   UNL     1       4.496  25.497  52.444  1.00  0.00    -0.267 OA
BRANCH  14  17
HETATM   17  C   UNL     1       7.291  25.090  53.430  1.00  0.00     0.041 A 
HETATM   18  C   UNL     1       7.505  24.972  54.821  1.00  0.00    -0.035 A 
HETATM   19  C   UNL     1       7.060  26.023  55.803  1.00  0.00     0.050 C 
HETATM   20  C   UNL     1       8.128  23.816  55.330  1.00  0.00     0.009 A 
HETATM   21  C   UNL     1       8.545  22.794  54.481  1.00  0.00     0.001 A 
HETATM   22  C   UNL     1       8.340  22.912  53.114  1.00  0.00     0.002 A 
HETATM   23  C   UNL     1       7.718  24.050  52.594  1.00  0.00     0.030 A 
ENDBRANCH  14  17
ENDBRANCH   1  13
BRANCH   2  24
HETATM   24  C   UNL     1       4.332  27.618  49.596  1.00  0.00    -0.028 A 
HETATM   25  C   UNL     1       3.062  28.210  49.481  1.00  0.00     0.012 A 
HETATM   26  C   UNL     1       2.150  27.758  48.526  1.00  0.00     0.037 A 
HETATM   27  C   UNL     1       2.489  26.724  47.654  1.00  0.00     0.068 A 
HETATM   28  C   UNL     1       3.742  26.124  47.761  1.00  0.00     0.037 A 
HETATM   29  C   UNL     1       4.658  26.567  48.724  1.00  0.00     0.012 A 
BRANCH  27  30
HETATM   30  O   UNL     1       1.512  26.385  46.758  1.00  0.00    -0.356 OA
HETATM   31  C   UNL     1       0.544  27.387  46.472  1.00  0.00     0.210 C 
ENDBRANCH  27  30
ENDBRANCH   2  24
TORSDOF 4
ENDMDL
MODEL 4
REMARK VINA RESULT:      -8.8      3.325      7.268
REMARK  4 active torsions:
REMARK  status: ('A' for Active; 'I' for Inactive)
REMARK    1  A    between atoms: C_3  and  N_4 
REMARK       I    between atoms: N_4  and  C_5 
REMARK    2  A    between atoms: C_5  and  C_6 
REMARK    3  A    between atoms: C_7  and  C_8 
REMARK    4  A    between atoms: C_11  and  O_12 
ROOT
HETATM    1  C   UNL     1       7.493  28.897  56.389  1.00  0.00     0.062 C 
HETATM    2  C   UNL     1       6.129  28.295  56.093  1.00  0.00     0.202 C 
HETATM    3  N   UNL     1       6.155  27.554  54.829  1.00  0.00    -0.083 N 
HETATM    4  C   UNL     1       7.151  27.670  53.899  1.00  0.00     0.726 A 
HETATM    5  N   UNL     1       8.213  28.458  54.166  1.00  0.00    -0.192 N 
HETATM    6  N   UNL     1       5.227  26.651  54.455  1.00  0.00    -0.141 NA
HETATM    7  C   UNL     1       5.697  26.298  53.248  1.00  0.00     0.162 A 
HETATM    8  C   UNL     1       5.019  25.303  52.393  1.00  0.00     0.096 C 
HETATM    9  N   UNL     1       6.877  26.902  52.875  1.00  0.00    -0.046 NA
HETATM   10  C   UNL     1       8.462  28.963  55.441  1.00  0.00     0.037 C 
HETATM   11  C   UNL     1       9.842  29.525  55.673  1.00  0.00     0.070 C 
HETATM   12  H   UNL     1       9.005  28.413  53.528  1.00  0.00     0.184 HD
ENDROOT
BRANCH   1  13
HETATM   13  C   UNL     1       7.807  29.174  57.812  1.00  0.00     0.256 C 
HETATM   14  N   UNL     1       7.789  30.512  58.134  1.00  0.00    -0.323 N 
HETATM   15  H   UNL     1       7.575  31.163  57.390  1.00  0.00     0.169 HD
HETATM   16  O   UNL     1       8.037  28.226  58.554  1.00  0.00    -0.267 OA
BRANCH  14  17
HETATM   17  C   UNL     1       8.030  31.094  59.404  1.00  0.00     0.041 A 
HETATM   18  C   UNL     1       7.061  31.962  59.955  1.00  0.00    -0.035 A 
HETATM   19  C   UNL     1       5.765  32.279  59.256  1.00  0.00     0.050 C 
HETATM   20  C   UNL     1       7.285  32.538  61.220  1.00  0.00     0.009 A 
HETATM   21  C   UNL     1       8.452  32.272  61.931  1.00  0.00     0.001 A 
HETATM   22  C   UNL     1       9.408  31.423  61.389  1.00  0.00     0.002 A 
HETATM   23  C   UNL     1       9.197  30.839  60.138  1.00  0.00     0.030 A 
ENDBRANCH  14  17
ENDBRANCH   1  13
BRANCH   2  24
HETATM   24  C   UNL     1       5.019  29.345  56.029  1.00  0.00    -0.028 A 
HETATM   25  C   UNL     1       4.742  30.052  54.846  1.00  0.00     0.012 A 
HETATM   26  C   UNL     1       3.709  30.990  54.804  1.00  0.00     0.037 A 
HETATM   27  C   UNL     1       2.918  31.227  55.929  1.00  0.00     0.068 A 
HETATM   28  C   UNL     1       3.186  30.536  57.109  1.00  0.00     0.037 A 
HETATM   29  C   UNL     1       4.229  29.602  57.160  1.00  0.00     0.012 A 
BRANCH  27  30
HETATM   30  O   UNL     1       1.932  32.158  55.751  1.00  0.00    -0.356 OA
HETATM   31  C   UNL     1       1.877  32.783  54.474  1.00  0.00     0.210 C 
ENDBRANCH  27  30
ENDBRANCH   2  24
TORSDOF 4
ENDMDL
MODEL 5
REMARK VINA RESULT:      -8.6      1.294      2.056
REMARK  4 active torsions:
REMARK  status: ('A' for Active; 'I' for Inactive)
REMARK    1  A    between atoms: C_3  and  N_4 
REMARK       I    between atoms: N_4  and  C_5 
REMARK    2  A    between atoms: C_5  and  C_6 
REMARK    3  A    between atoms: C_7  and  C_8 
REMARK    4  A    between atoms: C_11  and  O_12 
ROOT
HETATM    1  C   UNL     1       6.044  26.669  54.205  1.00  0.00     0.062 C 
HETATM    2  C   UNL     1       5.560  27.821  55.071  1.00  0.00     0.202 C 
HETATM    3  N   UNL     1       4.956  28.869  54.245  1.00  0.00    -0.083 N 
HETATM    4  C   UNL     1       5.109  28.953  52.888  1.00  0.00     0.726 A 
HETATM    5  N   UNL     1       5.799  27.989  52.242  1.00  0.00    -0.192 N 
HETATM    6  N   UNL     1       4.154  29.846  54.715  1.00  0.00    -0.141 NA
HETATM    7  C   UNL     1       3.903  30.526  53.586  1.00  0.00     0.162 A 
HETATM    8  C   UNL     1       3.046  31.729  53.559  1.00  0.00     0.096 C 
HETATM    9  N   UNL     1       4.471  30.006  52.444  1.00  0.00    -0.046 NA
HETATM   10  C   UNL     1       6.152  26.789  52.858  1.00  0.00     0.037 C 
HETATM   11  C   UNL     1       6.601  25.681  51.939  1.00  0.00     0.070 C 
HETATM   12  H   UNL     1       5.774  27.993  51.225  1.00  0.00     0.184 HD
ENDROOT
BRANCH   1  13
HETATM   13  C   UNL     1       6.150  25.341  54.858  1.00  0.00     0.256 C 
HETATM   14  N   UNL     1       7.407  24.785  54.783  1.00  0.00    -0.323 N 
HETATM   15  H   UNL     1       8.118  25.316  54.299  1.00  0.00     0.169 HD
HETATM   16  O   UNL     1       5.152  24.874  55.395  1.00  0.00    -0.267 OA
BRANCH  14  17
HETATM   17  C   UNL     1       7.830  23.542  55.319  1.00  0.00     0.041 A 
HETATM   18  C   UNL     1       8.042  22.455  54.441  1.00  0.00    -0.035 A 
HETATM   19  C   UNL     1       7.860  22.567  52.951  1.00  0.00     0.050 C 
HETATM   20  C   UNL     1       8.472  21.220  54.962  1.00  0.00     0.009 A 
HETATM   21  C   UNL     1       8.682  21.051  56.328  1.00  0.00     0.001 A 
HETATM   22  C   UNL     1       8.469  22.117  57.191  1.00  0.00     0.002 A 
HETATM   23  C   UNL     1       8.048  23.351  56.690  1.00  0.00     0.030 A 
ENDBRANCH  14  17
ENDBRANCH   1  13
BRANCH   2  24
HETATM   24  C   UNL     1       6.675  28.437  55.915  1.00  0.00    -0.028 A 
HETATM   25  C   UNL     1       6.488  28.739  57.275  1.00  0.00     0.012 A 
HETATM   26  C   UNL     1       7.527  29.280  58.034  1.00  0.00     0.037 A 
HETATM   27  C   UNL     1       8.778  29.510  57.462  1.00  0.00     0.068 A 
HETATM   28  C   UNL     1       8.976  29.220  56.113  1.00  0.00     0.037 A 
HETATM   29  C   UNL     1       7.933  28.687  55.345  1.00  0.00     0.012 A 
BRANCH  27  30
HETATM   30  O   UNL     1       9.713  30.029  58.315  1.00  0.00    -0.356 OA
HETATM   31  C   UNL     1       9.222  30.569  59.537  1.00  0.00     0.210 C 
ENDBRANCH  27  30
ENDBRANCH   2  24
TORSDOF 4
ENDMDL
MODEL 6
REMARK VINA RESULT:      -8.5      4.357      8.483
REMARK  4 active torsions:
REMARK  status: ('A' for Active; 'I' for Inactive)
REMARK    1  A    between atoms: C_3  and  N_4 
REMARK       I    between atoms: N_4  and  C_5 
REMARK    2  A    between atoms: C_5  and  C_6 
REMARK    3  A    between atoms: C_7  and  C_8 
REMARK    4  A    between atoms: C_11  and  O_12 
ROOT
HETATM    1  C   UNL     1       7.271  30.300  58.129  1.00  0.00     0.062 C 
HETATM    2  C   UNL     1       6.063  29.440  57.791  1.00  0.00     0.202 C 
HETATM    3  N   UNL     1       6.486  28.151  57.238  1.00  0.00    -0.083 N 
HETATM    4  C   UNL     1       7.750  27.896  56.781  1.00  0.00     0.726 A 
HETATM    5  N   UNL     1       8.697  28.850  56.896  1.00  0.00    -0.192 N 
HETATM    6  N   UNL     1       5.695  27.062  57.148  1.00  0.00    -0.141 NA
HETATM    7  C   UNL     1       6.537  26.192  56.568  1.00  0.00     0.162 A 
HETATM    8  C   UNL     1       6.143  24.808  56.240  1.00  0.00     0.096 C 
HETATM    9  N   UNL     1       7.807  26.669  56.330  1.00  0.00    -0.046 NA
HETATM   10  C   UNL     1       8.512  29.990  57.678  1.00  0.00     0.037 C 
HETATM   11  C   UNL     1       9.754  30.784  57.994  1.00  0.00     0.070 C 
HETATM   12  H   UNL     1       9.658  28.588  56.688  1.00  0.00     0.184 HD
ENDROOT
BRANCH   1  13
HETATM   13  C   UNL     1       7.082  31.338  59.172  1.00  0.00     0.256 C 
HETATM   14  N   UNL     1       7.235  30.869  60.456  1.00  0.00    -0.323 N 
HETATM   15  H   UNL     1       7.450  29.887  60.566  1.00  0.00     0.169 HD
HETATM   16  O   UNL     1       6.826  32.482  58.815  1.00  0.00    -0.267 OA
BRANCH  14  17
HETATM   17  C   UNL     1       7.134  31.611  61.660  1.00  0.00     0.041 A 
HETATM   18  C   UNL     1       8.317  32.052  62.294  1.00  0.00    -0.035 A 
HETATM   19  C   UNL     1       9.687  31.787  61.730  1.00  0.00     0.050 C 
HETATM   20  C   UNL     1       8.228  32.798  63.485  1.00  0.00     0.009 A 
HETATM   21  C   UNL     1       6.991  33.099  64.051  1.00  0.00     0.001 A 
HETATM   22  C   UNL     1       5.829  32.662  63.432  1.00  0.00     0.002 A 
HETATM   23  C   UNL     1       5.901  31.925  62.247  1.00  0.00     0.030 A 
ENDBRANCH  14  17
ENDBRANCH   1  13
BRANCH   2  24
HETATM   24  C   UNL     1       5.112  30.115  56.803  1.00  0.00    -0.028 A 
HETATM   25  C   UNL     1       5.381  30.142  55.424  1.00  0.00     0.012 A 
HETATM   26  C   UNL     1       4.487  30.745  54.537  1.00  0.00     0.037 A 
HETATM   27  C   UNL     1       3.300  31.312  55.000  1.00  0.00     0.068 A 
HETATM   28  C   UNL     1       3.025  31.297  56.366  1.00  0.00     0.037 A 
HETATM   29  C   UNL     1       3.923  30.703  57.262  1.00  0.00     0.012 A 
BRANCH  27  30
HETATM   30  O   UNL     1       2.506  31.856  54.028  1.00  0.00    -0.356 OA
HETATM   31  C   UNL     1       3.027  31.838  52.704  1.00  0.00     0.210 C 
ENDBRANCH  27  30
ENDBRANCH   2  24
TORSDOF 4
ENDMDL
MODEL 7
REMARK VINA RESULT:      -8.2      7.548     11.431
REMARK  4 active torsions:
REMARK  status: ('A' for Active; 'I' for Inactive)
REMARK    1  A    between atoms: C_3  and  N_4 
REMARK       I    between atoms: N_4  and  C_5 
REMARK    2  A    between atoms: C_5  and  C_6 
REMARK    3  A    between atoms: C_7  and  C_8 
REMARK    4  A    between atoms: C_11  and  O_12 
ROOT
HETATM    1  C   UNL     1       5.188  32.537  61.318  1.00  0.00     0.062 C 
HETATM    2  C   UNL     1       3.942  32.462  60.450  1.00  0.00     0.202 C 
HETATM    3  N   UNL     1       4.255  31.872  59.146  1.00  0.00    -0.083 N 
HETATM    4  C   UNL     1       5.526  31.727  58.661  1.00  0.00     0.726 A 
HETATM    5  N   UNL     1       6.572  32.081  59.438  1.00  0.00    -0.192 N 
HETATM    6  N   UNL     1       3.338  31.373  58.294  1.00  0.00    -0.141 NA
HETATM    7  C   UNL     1       4.126  30.992  57.277  1.00  0.00     0.162 A 
HETATM    8  C   UNL     1       3.591  30.366  56.051  1.00  0.00     0.096 C 
HETATM    9  N   UNL     1       5.475  31.192  57.468  1.00  0.00    -0.046 NA
HETATM   10  C   UNL     1       6.429  32.356  60.797  1.00  0.00     0.037 C 
HETATM   11  C   UNL     1       7.703  32.394  61.602  1.00  0.00     0.070 C 
HETATM   12  H   UNL     1       7.504  31.828  59.116  1.00  0.00     0.184 HD
ENDROOT
BRANCH   1  13
HETATM   13  C   UNL     1       4.981  32.563  62.786  1.00  0.00     0.256 C 
HETATM   14  N   UNL     1       5.019  33.827  63.329  1.00  0.00    -0.323 N 
HETATM   15  H   UNL     1       5.185  34.597  62.695  1.00  0.00     0.169 HD
HETATM   16  O   UNL     1       4.791  31.500  63.367  1.00  0.00    -0.267 OA
BRANCH  14  17
HETATM   17  C   UNL     1       4.840  34.183  64.690  1.00  0.00     0.041 A 
HETATM   18  C   UNL     1       5.930  34.055  65.580  1.00  0.00    -0.035 A 
HETATM   19  C   UNL     1       7.287  33.576  65.137  1.00  0.00     0.050 C 
HETATM   20  C   UNL     1       5.767  34.414  66.931  1.00  0.00     0.009 A 
HETATM   21  C   UNL     1       4.545  34.886  67.405  1.00  0.00     0.001 A 
HETATM   22  C   UNL     1       3.473  35.007  66.533  1.00  0.00     0.002 A 
HETATM   23  C   UNL     1       3.620  34.660  65.188  1.00  0.00     0.030 A 
ENDBRANCH  14  17
ENDBRANCH   1  13
BRANCH   2  24
HETATM   24  C   UNL     1       3.288  33.826  60.232  1.00  0.00    -0.028 A 
HETATM   25  C   UNL     1       3.963  34.870  59.575  1.00  0.00     0.012 A 
HETATM   26  C   UNL     1       3.338  36.100  59.367  1.00  0.00     0.037 A 
HETATM   27  C   UNL     1       2.025  36.311  59.788  1.00  0.00     0.068 A 
HETATM   28  C   UNL     1       1.347  35.286  60.445  1.00  0.00     0.037 A 
HETATM   29  C   UNL     1       1.973  34.053  60.666  1.00  0.00     0.012 A 
BRANCH  27  30
HETATM   30  O   UNL     1       1.526  37.554  59.511  1.00  0.00    -0.356 OA
HETATM   31  C   UNL     1       2.439  38.640  59.620  1.00  0.00     0.210 C 
ENDBRANCH  27  30
ENDBRANCH   2  24
TORSDOF 4
ENDMDL
MODEL 8
REMARK VINA RESULT:      -8.1      2.587      5.675
REMARK  4 active torsions:
REMARK  status: ('A' for Active; 'I' for Inactive)
REMARK    1  A    between atoms: C_3  and  N_4 
REMARK       I    between atoms: N_4  and  C_5 
REMARK    2  A    between atoms: C_5  and  C_6 
REMARK    3  A    between atoms: C_7  and  C_8 
REMARK    4  A    between atoms: C_11  and  O_12 
ROOT
HETATM    1  C   UNL     1       5.390  28.606  52.913  1.00  0.00     0.062 C 
HETATM    2  C   UNL     1       5.702  29.234  51.564  1.00  0.00     0.202 C 
HETATM    3  N   UNL     1       5.012  30.518  51.420  1.00  0.00    -0.083 N 
HETATM    4  C   UNL     1       3.983  30.924  52.226  1.00  0.00     0.726 A 
HETATM    5  N   UNL     1       3.608  30.142  53.260  1.00  0.00    -0.192 N 
HETATM    6  N   UNL     1       5.329  31.458  50.508  1.00  0.00    -0.141 NA
HETATM    7  C   UNL     1       4.406  32.392  50.783  1.00  0.00     0.162 A 
HETATM    8  C   UNL     1       4.319  33.664  50.037  1.00  0.00     0.096 C 
HETATM    9  N   UNL     1       3.563  32.099  51.832  1.00  0.00    -0.046 NA
HETATM   10  C   UNL     1       4.377  29.063  53.693  1.00  0.00     0.037 C 
HETATM   11  C   UNL     1       4.029  28.502  55.048  1.00  0.00     0.070 C 
HETATM   12  H   UNL     1       2.946  30.530  53.928  1.00  0.00     0.184 HD
ENDROOT
BRANCH   1  13
HETATM   13  C   UNL     1       6.387  27.649  53.453  1.00  0.00     0.256 C 
HETATM   14  N   UNL     1       5.898  26.373  53.618  1.00  0.00    -0.323 N 
HETATM   15  H   UNL     1       4.931  26.214  53.369  1.00  0.00     0.169 HD
HETATM   16  O   UNL     1       7.519  28.056  53.685  1.00  0.00    -0.267 OA
BRANCH  14  17
HETATM   17  C   UNL     1       6.601  25.238  54.095  1.00  0.00     0.041 A 
HETATM   18  C   UNL     1       7.404  24.502  53.195  1.00  0.00    -0.035 A 
HETATM   19  C   UNL     1       7.565  24.889  51.749  1.00  0.00     0.050 C 
HETATM   20  C   UNL     1       8.115  23.379  53.660  1.00  0.00     0.009 A 
HETATM   21  C   UNL     1       8.030  22.978  54.991  1.00  0.00     0.001 A 
HETATM   22  C   UNL     1       7.237  23.697  55.875  1.00  0.00     0.002 A 
HETATM   23  C   UNL     1       6.531  24.817  55.430  1.00  0.00     0.030 A 
ENDBRANCH  14  17
ENDBRANCH   1  13
BRANCH   2  24
HETATM   24  C   UNL     1       5.324  28.333  50.389  1.00  0.00    -0.028 A 
HETATM   25  C   UNL     1       4.662  27.108  50.583  1.00  0.00     0.012 A 
HETATM   26  C   UNL     1       4.306  26.312  49.494  1.00  0.00     0.037 A 
HETATM   27  C   UNL     1       4.580  26.727  48.191  1.00  0.00     0.068 A 
HETATM   28  C   UNL     1       5.239  27.937  47.985  1.00  0.00     0.037 A 
HETATM   29  C   UNL     1       5.609  28.735  49.075  1.00  0.00     0.012 A 
BRANCH  27  30
HETATM   30  O   UNL     1       4.166  25.863  47.214  1.00  0.00    -0.356 OA
HETATM   31  C   UNL     1       2.985  25.119  47.489  1.00  0.00     0.210 C 
ENDBRANCH  27  30
ENDBRANCH   2  24
TORSDOF 4
ENDMDL
MODEL 9
REMARK VINA RESULT:      -7.5      3.051      6.517
REMARK  4 active torsions:
REMARK  status: ('A' for Active; 'I' for Inactive)
REMARK    1  A    between atoms: C_3  and  N_4 
REMARK       I    between atoms: N_4  and  C_5 
REMARK    2  A    between atoms: C_5  and  C_6 
REMARK    3  A    between atoms: C_7  and  C_8 
REMARK    4  A    between atoms: C_11  and  O_12 
ROOT
HETATM    1  C   UNL     1       4.637  29.669  52.667  1.00  0.00     0.062 C 
HETATM    2  C   UNL     1       5.297  29.521  51.306  1.00  0.00     0.202 C 
HETATM    3  N   UNL     1       5.466  30.828  50.668  1.00  0.00    -0.083 N 
HETATM    4  C   UNL     1       4.824  31.965  51.079  1.00  0.00     0.726 A 
HETATM    5  N   UNL     1       4.035  31.916  52.173  1.00  0.00    -0.192 N 
HETATM    6  N   UNL     1       6.294  31.072  49.632  1.00  0.00    -0.141 NA
HETATM    7  C   UNL     1       6.058  32.377  49.428  1.00  0.00     0.162 A 
HETATM    8  C   UNL     1       6.736  33.149  48.367  1.00  0.00     0.096 C 
HETATM    9  N   UNL     1       5.163  32.959  50.298  1.00  0.00    -0.046 NA
HETATM   10  C   UNL     1       4.038  30.827  53.043  1.00  0.00     0.037 C 
HETATM   11  C   UNL     1       3.386  31.050  54.384  1.00  0.00     0.070 C 
HETATM   12  H   UNL     1       3.690  32.799  52.543  1.00  0.00     0.184 HD
ENDROOT
BRANCH   1  13
HETATM   13  C   UNL     1       4.892  28.593  53.656  1.00  0.00     0.256 C 
HETATM   14  N   UNL     1       6.137  28.659  54.238  1.00  0.00    -0.323 N 
HETATM   15  H   UNL     1       6.746  29.410  53.942  1.00  0.00     0.169 HD
HETATM   16  O   UNL     1       4.004  27.776  53.869  1.00  0.00    -0.267 OA
BRANCH  14  17
HETATM   17  C   UNL     1       6.671  27.792  55.225  1.00  0.00     0.041 A 
HETATM   18  C   UNL     1       7.258  26.572  54.819  1.00  0.00    -0.035 A 
HETATM   19  C   UNL     1       7.362  26.163  53.374  1.00  0.00     0.050 C 
HETATM   20  C   UNL     1       7.800  25.708  55.789  1.00  0.00     0.009 A 
HETATM   21  C   UNL     1       7.758  26.034  57.143  1.00  0.00     0.001 A 
HETATM   22  C   UNL     1       7.177  27.229  57.543  1.00  0.00     0.002 A 
HETATM   23  C   UNL     1       6.640  28.100  56.591  1.00  0.00     0.030 A 
ENDBRANCH  14  17
ENDBRANCH   1  13
BRANCH   2  24
HETATM   24  C   UNL     1       4.514  28.607  50.363  1.00  0.00    -0.028 A 
HETATM   25  C   UNL     1       3.261  28.980  49.849  1.00  0.00     0.012 A 
HETATM   26  C   UNL     1       2.574  28.139  48.971  1.00  0.00     0.037 A 
HETATM   27  C   UNL     1       3.128  26.924  48.571  1.00  0.00     0.068 A 
HETATM   28  C   UNL     1       4.368  26.540  49.078  1.00  0.00     0.037 A 
HETATM   29  C   UNL     1       5.057  27.374  49.967  1.00  0.00     0.012 A 
BRANCH  27  30
HETATM   30  O   UNL     1       2.360  26.202  47.699  1.00  0.00    -0.356 OA
HETATM   31  C   UNL     1       1.415  26.939  46.932  1.00  0.00     0.210 C 
ENDBRANCH  27  30
ENDBRANCH   2  24
TORSDOF 4
ENDMDL
MODEL 10
REMARK VINA RESULT:      -7.4      4.645      8.769
REMARK  4 active torsions:
REMARK  status: ('A' for Active; 'I' for Inactive)
REMARK    1  A    between atoms: C_3  and  N_4 
REMARK       I    between atoms: N_4  and  C_5 
REMARK    2  A    between atoms: C_5  and  C_6 
REMARK    3  A    between atoms: C_7  and  C_8 
REMARK    4  A    between atoms: C_11  and  O_12 
ROOT
HETATM    1  C   UNL     1       6.608  30.910  58.251  1.00  0.00     0.062 C 
HETATM    2  C   UNL     1       5.413  30.159  57.684  1.00  0.00     0.202 C 
HETATM    3  N   UNL     1       5.850  28.958  56.969  1.00  0.00    -0.083 N 
HETATM    4  C   UNL     1       7.142  28.730  56.581  1.00  0.00     0.726 A 
HETATM    5  N   UNL     1       8.099  29.619  56.922  1.00  0.00    -0.192 N 
HETATM    6  N   UNL     1       5.044  27.927  56.644  1.00  0.00    -0.141 NA
HETATM    7  C   UNL     1       5.911  27.128  56.003  1.00  0.00     0.162 A 
HETATM    8  C   UNL     1       5.513  25.827  55.428  1.00  0.00     0.096 C 
HETATM    9  N   UNL     1       7.208  27.588  55.947  1.00  0.00    -0.046 NA
HETATM   10  C   UNL     1       7.875  30.628  57.858  1.00  0.00     0.037 C 
HETATM   11  C   UNL     1       9.105  31.316  58.395  1.00  0.00     0.070 C 
HETATM   12  H   UNL     1       9.068  29.357  56.753  1.00  0.00     0.184 HD
ENDROOT
BRANCH   1  13
HETATM   13  C   UNL     1       6.355  31.779  59.427  1.00  0.00     0.256 C 
HETATM   14  N   UNL     1       6.886  31.293  60.599  1.00  0.00    -0.323 N 
HETATM   15  H   UNL     1       7.379  30.412  60.553  1.00  0.00     0.169 HD
HETATM   16  O   UNL     1       5.730  32.820  59.258  1.00  0.00    -0.267 OA
BRANCH  14  17
HETATM   17  C   UNL     1       6.830  31.895  61.882  1.00  0.00     0.041 A 
HETATM   18  C   UNL     1       8.033  32.303  62.501  1.00  0.00    -0.035 A 
HETATM   19  C   UNL     1       9.378  32.147  61.841  1.00  0.00     0.050 C 
HETATM   20  C   UNL     1       7.988  32.910  63.770  1.00  0.00     0.009 A 
HETATM   21  C   UNL     1       6.776  33.106  64.428  1.00  0.00     0.001 A 
HETATM   22  C   UNL     1       5.594  32.700  63.824  1.00  0.00     0.002 A 
HETATM   23  C   UNL     1       5.622  32.102  62.562  1.00  0.00     0.030 A 
ENDBRANCH  14  17
ENDBRANCH   1  13
BRANCH   2  24
HETATM   24  C   UNL     1       4.567  31.016  56.743  1.00  0.00    -0.028 A 
HETATM   25  C   UNL     1       3.162  30.971  56.769  1.00  0.00     0.012 A 
HETATM   26  C   UNL     1       2.409  31.780  55.916  1.00  0.00     0.037 A 
HETATM   27  C   UNL     1       3.036  32.663  55.037  1.00  0.00     0.068 A 
HETATM   28  C   UNL     1       4.428  32.714  54.998  1.00  0.00     0.037 A 
HETATM   29  C   UNL     1       5.189  31.897  55.844  1.00  0.00     0.012 A 
BRANCH  27  30
HETATM   30  O   UNL     1       2.185  33.408  54.267  1.00  0.00    -0.356 OA
HETATM   31  C   UNL     1       0.794  33.186  54.469  1.00  0.00     0.210 C 
ENDBRANCH  27  30
ENDBRANCH   2  24
TORSDOF 4
ENDMDL
