MODEL 1
REMARK VINA RESULT:      -9.9      0.000      0.000
REMARK  3 active torsions:
REMARK  status: ('A' for Active; 'I' for Inactive)
REMARK    1  A    between atoms: O_2  and  C_3 
REMARK    2  A    between atoms: C_4  and  N_5 
REMARK       I    between atoms: N_5  and  C_6 
REMARK       I    between atoms: C_6  and  N_7 
REMARK    3  A    between atoms: C_8  and  C_9 
ROOT
HETATM    1  N   UNL     1       5.825  27.680  52.119  1.00  0.00    -0.306 N 
HETATM    2  C   UNL     1       5.094  27.355  53.234  1.00  0.00     0.323 C 
HETATM    3  N   UNL     1       5.847  27.274  54.405  1.00  0.00    -0.324 N 
HETATM    4  C   UNL     1       7.277  26.910  54.443  1.00  0.00     0.139 C 
HETATM    5  C   UNL     1       7.987  27.668  55.576  1.00  0.00     0.032 C 
HETATM    6  C   UNL     1       7.273  27.528  56.921  1.00  0.00     0.004 C 
HETATM    7  C   UNL     1       5.801  27.906  56.792  1.00  0.00     0.020 C 
HETATM    8  C   UNL     1       5.118  27.135  55.669  1.00  0.00     0.128 C 
HETATM    9  O   UNL     1       3.885  27.139  53.227  1.00  0.00    -0.247 OA
HETATM   10  H   UNL     1       6.660  28.229  52.275  1.00  0.00     0.171 HD
ENDROOT
BRANCH   4  11
HETATM   11  C   UNL     1       7.417  25.407  54.530  1.00  0.00     0.033 A 
HETATM   12  N   UNL     1       7.580  24.627  53.404  1.00  0.00    -0.357 N 
HETATM   13  H   UNL     1       7.583  24.978  52.455  1.00  0.00     0.166 HD
HETATM   14  C   UNL     1       7.685  23.297  53.736  1.00  0.00     0.042 A 
HETATM   15  C   UNL     1       7.609  23.215  55.124  1.00  0.00    -0.007 A 
HETATM   16  C   UNL     1       7.838  22.171  52.918  1.00  0.00     0.030 A 
HETATM   17  C   UNL     1       7.457  24.541  55.611  1.00  0.00     0.041 A 
HETATM   18  C   UNL     1       7.687  21.949  55.734  1.00  0.00     0.014 A 
HETATM   19  C   UNL     1       7.837  20.811  54.933  1.00  0.00     0.001 A 
HETATM   20  C   UNL     1       7.911  20.923  53.546  1.00  0.00     0.002 A 
ENDBRANCH   4  11
BRANCH   1  21
HETATM   21  C   UNL     1       5.402  27.684  50.772  1.00  0.00     0.072 A 
HETATM   22  C   UNL     1       5.526  28.900  50.072  1.00  0.00     0.095 A 
HETATM   23  C   UNL     1       5.114  29.004  48.741  1.00  0.00     0.042 A 
HETATM   24  C   UNL     1       4.620  27.876  48.087  1.00  0.00     0.045 A 
HETATM   25  C   UNL     1       4.536  26.667  48.770  1.00  0.00     0.118 A 
HETATM   26  C   UNL     1       4.919  26.559  50.104  1.00  0.00     0.074 A 
HETATM   27  F   UNL     1       4.072  25.587  48.129  1.00  0.00    -0.206 F 
BRANCH  22  28
HETATM   28  O   UNL     1       6.002  29.983  50.776  1.00  0.00    -0.354 OA
HETATM   29  C   UNL     1       5.574  31.228  50.225  1.00  0.00     0.210 C 
ENDBRANCH  22  28
ENDBRANCH   1  21
TORSDOF 3
ENDMDL
MODEL 2
REMARK VINA RESULT:      -9.7      3.399      5.938
REMARK  3 active torsions:
REMARK  status: ('A' for Active; 'I' for Inactive)
REMARK    1  A    between atoms: O_2  and  C_3 
REMARK    2  A    between atoms: C_4  and  N_5 
REMARK       I    between atoms: N_5  and  C_6 
REMARK       I    between atoms: C_6  and  N_7 
REMARK    3  A    between atoms: C_8  and  C_9 
ROOT
HETATM    1  N   UNL     1       6.968  27.650  55.457  1.00  0.00    -0.306 N 
HETATM    2  C   UNL     1       7.394  27.333  54.192  1.00  0.00     0.323 C 
HETATM    3  N   UNL     1       6.584  26.409  53.532  1.00  0.00    -0.324 N 
HETATM    4  C   UNL     1       5.781  25.378  54.219  1.00  0.00     0.139 C 
HETATM    5  C   UNL     1       4.475  25.124  53.449  1.00  0.00     0.032 C 
HETATM    6  C   UNL     1       4.708  24.844  51.963  1.00  0.00     0.004 C 
HETATM    7  C   UNL     1       5.557  25.943  51.335  1.00  0.00     0.020 C 
HETATM    8  C   UNL     1       6.849  26.170  52.111  1.00  0.00     0.128 C 
HETATM    9  O   UNL     1       8.402  27.799  53.667  1.00  0.00    -0.247 OA
HETATM   10  H   UNL     1       5.974  27.568  55.628  1.00  0.00     0.171 HD
ENDROOT
BRANCH   4  11
HETATM   11  C   UNL     1       6.619  24.137  54.430  1.00  0.00     0.033 A 
HETATM   12  N   UNL     1       6.932  23.679  55.694  1.00  0.00    -0.357 N 
HETATM   13  H   UNL     1       6.667  24.139  56.556  1.00  0.00     0.166 HD
HETATM   14  C   UNL     1       7.699  22.540  55.630  1.00  0.00     0.042 A 
HETATM   15  C   UNL     1       7.871  22.239  54.282  1.00  0.00    -0.007 A 
HETATM   16  C   UNL     1       8.251  21.764  56.656  1.00  0.00     0.030 A 
HETATM   17  C   UNL     1       7.178  23.234  53.542  1.00  0.00     0.041 A 
HETATM   18  C   UNL     1       8.631  21.107  53.932  1.00  0.00     0.014 A 
HETATM   19  C   UNL     1       9.193  20.319  54.944  1.00  0.00     0.001 A 
HETATM   20  C   UNL     1       9.004  20.646  56.285  1.00  0.00     0.002 A 
ENDBRANCH   4  11
BRANCH   1  21
HETATM   21  C   UNL     1       7.638  28.416  56.435  1.00  0.00     0.072 A 
HETATM   22  C   UNL     1       6.847  28.959  57.467  1.00  0.00     0.095 A 
HETATM   23  C   UNL     1       7.421  29.749  58.467  1.00  0.00     0.042 A 
HETATM   24  C   UNL     1       8.799  29.959  58.468  1.00  0.00     0.045 A 
HETATM   25  C   UNL     1       9.582  29.388  57.468  1.00  0.00     0.118 A 
HETATM   26  C   UNL     1       9.017  28.622  56.452  1.00  0.00     0.074 A 
HETATM   27  F   UNL     1      10.906  29.587  57.485  1.00  0.00    -0.206 F 
BRANCH  22  28
HETATM   28  O   UNL     1       5.491  28.734  57.401  1.00  0.00    -0.354 OA
HETATM   29  C   UNL     1       4.735  29.943  57.345  1.00  0.00     0.210 C 
ENDBRANCH  22  28
ENDBRANCH   1  21
TORSDOF 3
ENDMDL
MODEL 3
REMARK VINA RESULT:      -9.5      3.032      6.706
REMARK  3 active torsions:
REMARK  status: ('A' for Active; 'I' for Inactive)
REMARK    1  A    between atoms: O_2  and  C_3 
REMARK    2  A    between atoms: C_4  and  N_5 
REMARK       I    between atoms: N_5  and  C_6 
REMARK       I    between atoms: C_6  and  N_7 
REMARK    3  A    between atoms: C_8  and  C_9 
ROOT
HETATM    1  N   UNL     1       7.081  24.786  53.711  1.00  0.00    -0.306 N 
HETATM    2  C   UNL     1       6.044  25.336  54.423  1.00  0.00     0.323 C 
HETATM    3  N   UNL     1       5.776  26.666  54.102  1.00  0.00    -0.324 N 
HETATM    4  C   UNL     1       6.791  27.616  53.604  1.00  0.00     0.139 C 
HETATM    5  C   UNL     1       6.153  28.601  52.612  1.00  0.00     0.032 C 
HETATM    6  C   UNL     1       4.895  29.270  53.168  1.00  0.00     0.004 C 
HETATM    7  C   UNL     1       3.908  28.225  53.674  1.00  0.00     0.020 C 
HETATM    8  C   UNL     1       4.562  27.265  54.663  1.00  0.00     0.128 C 
HETATM    9  O   UNL     1       5.401  24.735  55.278  1.00  0.00    -0.247 OA
HETATM   10  H   UNL     1       7.251  25.176  52.794  1.00  0.00     0.171 HD
ENDROOT
BRANCH   4  11
HETATM   11  C   UNL     1       7.480  28.283  54.772  1.00  0.00     0.033 A 
HETATM   12  N   UNL     1       8.762  28.786  54.668  1.00  0.00    -0.357 N 
HETATM   13  H   UNL     1       9.342  28.720  53.842  1.00  0.00     0.166 HD
HETATM   14  C   UNL     1       9.170  29.343  55.857  1.00  0.00     0.042 A 
HETATM   15  C   UNL     1       8.113  29.217  56.753  1.00  0.00    -0.007 A 
HETATM   16  C   UNL     1      10.388  29.942  56.202  1.00  0.00     0.030 A 
HETATM   17  C   UNL     1       7.056  28.567  56.059  1.00  0.00     0.041 A 
HETATM   18  C   UNL     1       8.270  29.709  58.062  1.00  0.00     0.014 A 
HETATM   19  C   UNL     1       9.482  30.309  58.427  1.00  0.00     0.001 A 
HETATM   20  C   UNL     1      10.523  30.422  57.508  1.00  0.00     0.002 A 
ENDBRANCH   4  11
BRANCH   1  21
HETATM   21  C   UNL     1       7.701  23.533  53.905  1.00  0.00     0.072 A 
HETATM   22  C   UNL     1       8.476  23.383  55.073  1.00  0.00     0.095 A 
HETATM   23  C   UNL     1       9.145  22.186  55.338  1.00  0.00     0.042 A 
HETATM   24  C   UNL     1       9.002  21.112  54.460  1.00  0.00     0.045 A 
HETATM   25  C   UNL     1       8.204  21.251  53.328  1.00  0.00     0.118 A 
HETATM   26  C   UNL     1       7.555  22.449  53.040  1.00  0.00     0.074 A 
HETATM   27  F   UNL     1       8.064  20.211  52.498  1.00  0.00    -0.206 F 
BRANCH  22  28
HETATM   28  O   UNL     1       8.596  24.484  55.891  1.00  0.00    -0.354 OA
HETATM   29  C   UNL     1       8.777  24.133  57.262  1.00  0.00     0.210 C 
ENDBRANCH  22  28
ENDBRANCH   1  21
TORSDOF 3
ENDMDL
MODEL 4
REMARK VINA RESULT:      -9.3      1.671      2.381
REMARK  3 active torsions:
REMARK  status: ('A' for Active; 'I' for Inactive)
REMARK    1  A    between atoms: O_2  and  C_3 
REMARK    2  A    between atoms: C_4  and  N_5 
REMARK       I    between atoms: N_5  and  C_6 
REMARK       I    between atoms: C_6  and  N_7 
REMARK    3  A    between atoms: C_8  and  C_9 
ROOT
HETATM    1  N   UNL     1       6.068  28.518  52.992  1.00  0.00    -0.306 N 
HETATM    2  C   UNL     1       5.392  28.308  54.167  1.00  0.00     0.323 C 
HETATM    3  N   UNL     1       6.203  28.319  55.301  1.00  0.00    -0.324 N 
HETATM    4  C   UNL     1       7.628  27.933  55.300  1.00  0.00     0.139 C 
HETATM    5  C   UNL     1       8.407  28.777  56.322  1.00  0.00     0.032 C 
HETATM    6  C   UNL     1       7.762  28.771  57.709  1.00  0.00     0.004 C 
HETATM    7  C   UNL     1       6.291  29.164  57.621  1.00  0.00     0.020 C 
HETATM    8  C   UNL     1       5.540  28.307  56.608  1.00  0.00     0.128 C 
HETATM    9  O   UNL     1       4.182  28.115  54.241  1.00  0.00    -0.247 OA
HETATM   10  H   UNL     1       6.918  29.063  53.056  1.00  0.00     0.171 HD
ENDROOT
BRANCH   4  11
HETATM   11  C   UNL     1       7.752  26.442  55.516  1.00  0.00     0.033 A 
HETATM   12  N   UNL     1       7.533  25.540  54.494  1.00  0.00    -0.357 N 
HETATM   13  H   UNL     1       7.246  25.789  53.557  1.00  0.00     0.166 HD
HETATM   14  C   UNL     1       7.705  24.248  54.932  1.00  0.00     0.042 A 
HETATM   15  C   UNL     1       8.067  24.316  56.274  1.00  0.00    -0.007 A 
HETATM   16  C   UNL     1       7.565  23.036  54.246  1.00  0.00     0.030 A 
HETATM   17  C   UNL     1       8.109  25.693  56.625  1.00  0.00     0.041 A 
HETATM   18  C   UNL     1       8.302  23.118  56.975  1.00  0.00     0.014 A 
HETATM   19  C   UNL     1       8.165  21.896  56.307  1.00  0.00     0.001 A 
HETATM   20  C   UNL     1       7.801  21.858  54.962  1.00  0.00     0.002 A 
ENDBRANCH   4  11
BRANCH   1  21
HETATM   21  C   UNL     1       5.576  28.409  51.673  1.00  0.00     0.072 A 
HETATM   22  C   UNL     1       5.512  27.112  51.126  1.00  0.00     0.095 A 
HETATM   23  C   UNL     1       5.060  26.908  49.820  1.00  0.00     0.042 A 
HETATM   24  C   UNL     1       4.620  27.997  49.070  1.00  0.00     0.045 A 
HETATM   25  C   UNL     1       4.647  29.272  49.628  1.00  0.00     0.118 A 
HETATM   26  C   UNL     1       5.122  29.490  50.919  1.00  0.00     0.074 A 
HETATM   27  F   UNL     1       4.212  30.310  48.904  1.00  0.00    -0.206 F 
BRANCH  22  28
HETATM   28  O   UNL     1       5.979  26.078  51.908  1.00  0.00    -0.354 OA
HETATM   29  C   UNL     1       5.002  25.059  52.112  1.00  0.00     0.210 C 
ENDBRANCH  22  28
ENDBRANCH   1  21
TORSDOF 3
ENDMDL
MODEL 5
REMARK VINA RESULT:      -8.9      2.845      6.576
REMARK  3 active torsions:
REMARK  status: ('A' for Active; 'I' for Inactive)
REMARK    1  A    between atoms: O_2  and  C_3 
REMARK    2  A    between atoms: C_4  and  N_5 
REMARK       I    between atoms: N_5  and  C_6 
REMARK       I    between atoms: C_6  and  N_7 
REMARK    3  A    between atoms: C_8  and  C_9 
ROOT
HETATM    1  N   UNL     1       6.854  24.089  55.509  1.00  0.00    -0.306 N 
HETATM    2  C   UNL     1       7.585  25.235  55.696  1.00  0.00     0.323 C 
HETATM    3  N   UNL     1       6.817  26.355  56.013  1.00  0.00    -0.324 N 
HETATM    4  C   UNL     1       5.419  26.546  55.579  1.00  0.00     0.139 C 
HETATM    5  C   UNL     1       4.629  27.307  56.657  1.00  0.00     0.032 C 
HETATM    6  C   UNL     1       5.324  28.595  57.102  1.00  0.00     0.004 C 
HETATM    7  C   UNL     1       6.764  28.314  57.517  1.00  0.00     0.020 C 
HETATM    8  C   UNL     1       7.528  27.566  56.430  1.00  0.00     0.128 C 
HETATM    9  O   UNL     1       8.807  25.298  55.591  1.00  0.00    -0.247 OA
HETATM   10  H   UNL     1       5.976  24.031  56.007  1.00  0.00     0.171 HD
ENDROOT
BRANCH   4  11
HETATM   11  C   UNL     1       5.394  27.207  54.220  1.00  0.00     0.033 A 
HETATM   12  N   UNL     1       5.334  26.469  53.055  1.00  0.00    -0.357 N 
HETATM   13  H   UNL     1       5.338  25.458  53.012  1.00  0.00     0.166 HD
HETATM   14  C   UNL     1       5.320  27.290  51.952  1.00  0.00     0.042 A 
HETATM   15  C   UNL     1       5.353  28.601  52.418  1.00  0.00    -0.007 A 
HETATM   16  C   UNL     1       5.286  26.970  50.589  1.00  0.00     0.030 A 
HETATM   17  C   UNL     1       5.382  28.538  53.837  1.00  0.00     0.041 A 
HETATM   18  C   UNL     1       5.351  29.653  51.483  1.00  0.00     0.014 A 
HETATM   19  C   UNL     1       5.320  29.354  50.115  1.00  0.00     0.001 A 
HETATM   20  C   UNL     1       5.288  28.031  49.678  1.00  0.00     0.002 A 
ENDBRANCH   4  11
BRANCH   1  21
HETATM   21  C   UNL     1       7.303  22.840  55.027  1.00  0.00     0.072 A 
HETATM   22  C   UNL     1       7.381  22.691  53.628  1.00  0.00     0.095 A 
HETATM   23  C   UNL     1       7.794  21.483  53.059  1.00  0.00     0.042 A 
HETATM   24  C   UNL     1       8.178  20.432  53.890  1.00  0.00     0.045 A 
HETATM   25  C   UNL     1       8.137  20.596  55.271  1.00  0.00     0.118 A 
HETATM   26  C   UNL     1       7.702  21.786  55.848  1.00  0.00     0.074 A 
HETATM   27  F   UNL     1       8.519  19.584  56.059  1.00  0.00    -0.206 F 
BRANCH  22  28
HETATM   28  O   UNL     1       6.969  23.757  52.860  1.00  0.00    -0.354 OA
HETATM   29  C   UNL     1       8.046  24.377  52.159  1.00  0.00     0.210 C 
ENDBRANCH  22  28
ENDBRANCH   1  21
TORSDOF 3
ENDMDL
MODEL 6
REMARK VINA RESULT:      -8.8     10.811     14.581
REMARK  3 active torsions:
REMARK  status: ('A' for Active; 'I' for Inactive)
REMARK    1  A    between atoms: O_2  and  C_3 
REMARK    2  A    between atoms: C_4  and  N_5 
REMARK       I    between atoms: N_5  and  C_6 
REMARK       I    between atoms: C_6  and  N_7 
REMARK    3  A    between atoms: C_8  and  C_9 
ROOT
HETATM    1  N   UNL     1       6.293  32.701  63.093  1.00  0.00    -0.306 N 
HETATM    2  C   UNL     1       6.571  33.201  64.340  1.00  0.00     0.323 C 
HETATM    3  N   UNL     1       5.542  33.965  64.889  1.00  0.00    -0.324 N 
HETATM    4  C   UNL     1       4.567  34.733  64.091  1.00  0.00     0.139 C 
HETATM    5  C   UNL     1       3.198  34.742  64.791  1.00  0.00     0.032 C 
HETATM    6  C   UNL     1       3.285  35.179  66.254  1.00  0.00     0.004 C 
HETATM    7  C   UNL     1       4.322  34.350  67.003  1.00  0.00     0.020 C 
HETATM    8  C   UNL     1       5.672  34.364  66.293  1.00  0.00     0.128 C 
HETATM    9  O   UNL     1       7.628  33.016  64.937  1.00  0.00    -0.247 OA
HETATM   10  H   UNL     1       5.317  32.543  62.881  1.00  0.00     0.171 HD
ENDROOT
BRANCH   4  11
HETATM   11  C   UNL     1       5.117  36.111  63.803  1.00  0.00     0.033 A 
HETATM   12  N   UNL     1       5.714  36.417  62.596  1.00  0.00    -0.357 N 
HETATM   13  H   UNL     1       5.861  35.759  61.843  1.00  0.00     0.166 HD
HETATM   14  C   UNL     1       6.132  37.727  62.572  1.00  0.00     0.042 A 
HETATM   15  C   UNL     1       5.776  38.293  63.793  1.00  0.00    -0.007 A 
HETATM   16  C   UNL     1       6.796  38.444  61.569  1.00  0.00     0.030 A 
HETATM   17  C   UNL     1       5.128  37.278  64.548  1.00  0.00     0.041 A 
HETATM   18  C   UNL     1       6.096  39.642  64.034  1.00  0.00     0.014 A 
HETATM   19  C   UNL     1       6.762  40.376  63.044  1.00  0.00     0.001 A 
HETATM   20  C   UNL     1       7.105  39.782  61.831  1.00  0.00     0.002 A 
ENDBRANCH   4  11
BRANCH   1  21
HETATM   21  C   UNL     1       7.168  32.035  62.207  1.00  0.00     0.072 A 
HETATM   22  C   UNL     1       6.967  32.258  60.831  1.00  0.00     0.095 A 
HETATM   23  C   UNL     1       7.771  31.624  59.879  1.00  0.00     0.042 A 
HETATM   24  C   UNL     1       8.814  30.802  60.302  1.00  0.00     0.045 A 
HETATM   25  C   UNL     1       9.034  30.616  61.663  1.00  0.00     0.118 A 
HETATM   26  C   UNL     1       8.222  31.221  62.619  1.00  0.00     0.074 A 
HETATM   27  F   UNL     1      10.045  29.833  62.059  1.00  0.00    -0.206 F 
BRANCH  22  28
HETATM   28  O   UNL     1       5.909  33.064  60.474  1.00  0.00    -0.354 OA
HETATM   29  C   UNL     1       5.084  32.475  59.469  1.00  0.00     0.210 C 
ENDBRANCH  22  28
ENDBRANCH   1  21
TORSDOF 3
ENDMDL
MODEL 7
REMARK VINA RESULT:      -8.7      3.242      6.844
REMARK  3 active torsions:
REMARK  status: ('A' for Active; 'I' for Inactive)
REMARK    1  A    between atoms: O_2  and  C_3 
REMARK    2  A    between atoms: C_4  and  N_5 
REMARK       I    between atoms: N_5  and  C_6 
REMARK       I    between atoms: C_6  and  N_7 
REMARK    3  A    between atoms: C_8  and  C_9 
ROOT
HETATM    1  N   UNL     1       7.340  27.593  55.640  1.00  0.00    -0.306 N 
HETATM    2  C   UNL     1       6.519  26.503  55.499  1.00  0.00     0.323 C 
HETATM    3  N   UNL     1       6.796  25.722  54.377  1.00  0.00    -0.324 N 
HETATM    4  C   UNL     1       7.387  26.248  53.131  1.00  0.00     0.139 C 
HETATM    5  C   UNL     1       8.297  25.189  52.488  1.00  0.00     0.032 C 
HETATM    6  C   UNL     1       7.606  23.835  52.325  1.00  0.00     0.004 C 
HETATM    7  C   UNL     1       7.010  23.371  53.649  1.00  0.00     0.020 C 
HETATM    8  C   UNL     1       6.106  24.435  54.262  1.00  0.00     0.128 C 
HETATM    9  O   UNL     1       5.607  26.223  56.272  1.00  0.00    -0.247 OA
HETATM   10  H   UNL     1       8.266  27.510  55.241  1.00  0.00     0.171 HD
ENDROOT
BRANCH   4  11
HETATM   11  C   UNL     1       6.290  26.749  52.219  1.00  0.00     0.033 A 
HETATM   12  N   UNL     1       5.986  26.113  51.032  1.00  0.00    -0.357 N 
HETATM   13  H   UNL     1       6.478  25.308  50.667  1.00  0.00     0.166 HD
HETATM   14  C   UNL     1       4.957  26.751  50.381  1.00  0.00     0.042 A 
HETATM   15  C   UNL     1       4.568  27.821  51.181  1.00  0.00    -0.007 A 
HETATM   16  C   UNL     1       4.350  26.463  49.152  1.00  0.00     0.030 A 
HETATM   17  C   UNL     1       5.397  27.801  52.335  1.00  0.00     0.041 A 
HETATM   18  C   UNL     1       3.521  28.653  50.740  1.00  0.00     0.014 A 
HETATM   19  C   UNL     1       2.903  28.383  49.513  1.00  0.00     0.001 A 
HETATM   20  C   UNL     1       3.314  27.303  48.733  1.00  0.00     0.002 A 
ENDBRANCH   4  11
BRANCH   1  21
HETATM   21  C   UNL     1       7.225  28.656  56.561  1.00  0.00     0.072 A 
HETATM   22  C   UNL     1       6.249  29.634  56.282  1.00  0.00     0.095 A 
HETATM   23  C   UNL     1       6.078  30.734  57.126  1.00  0.00     0.042 A 
HETATM   24  C   UNL     1       6.850  30.837  58.283  1.00  0.00     0.045 A 
HETATM   25  C   UNL     1       7.785  29.849  58.575  1.00  0.00     0.118 A 
HETATM   26  C   UNL     1       7.983  28.762  57.727  1.00  0.00     0.074 A 
HETATM   27  F   UNL     1       8.513  29.951  59.694  1.00  0.00    -0.206 F 
BRANCH  22  28
HETATM   28  O   UNL     1       5.532  29.488  55.116  1.00  0.00    -0.354 OA
HETATM   29  C   UNL     1       4.122  29.479  55.336  1.00  0.00     0.210 C 
ENDBRANCH  22  28
ENDBRANCH   1  21
TORSDOF 3
ENDMDL
MODEL 8
REMARK VINA RESULT:      -8.5      3.134      6.845
REMARK  3 active torsions:
REMARK  status: ('A' for Active; 'I' for Inactive)
REMARK    1  A    between atoms: O_2  and  C_3 
REMARK    2  A    between atoms: C_4  and  N_5 
REMARK       I    between atoms: N_5  and  C_6 
REMARK       I    between atoms: C_6  and  N_7 
REMARK    3  A    between atoms: C_8  and  C_9 
ROOT
HETATM    1  N   UNL     1       6.771  28.212  55.438  1.00  0.00    -0.306 N 
HETATM    2  C   UNL     1       6.019  27.068  55.349  1.00  0.00     0.323 C 
HETATM    3  N   UNL     1       6.414  26.205  54.328  1.00  0.00    -0.324 N 
HETATM    4  C   UNL     1       7.063  26.647  53.078  1.00  0.00     0.139 C 
HETATM    5  C   UNL     1       8.069  25.589  52.600  1.00  0.00     0.032 C 
HETATM    6  C   UNL     1       7.462  24.187  52.523  1.00  0.00     0.004 C 
HETATM    7  C   UNL     1       6.800  23.813  53.844  1.00  0.00     0.020 C 
HETATM    8  C   UNL     1       5.801  24.874  54.292  1.00  0.00     0.128 C 
HETATM    9  O   UNL     1       5.071  26.807  56.085  1.00  0.00    -0.247 OA
HETATM   10  H   UNL     1       7.725  28.147  55.111  1.00  0.00     0.171 HD
ENDROOT
BRANCH   4  11
HETATM   11  C   UNL     1       6.009  26.997  52.053  1.00  0.00     0.033 A 
HETATM   12  N   UNL     1       5.838  26.253  50.903  1.00  0.00    -0.357 N 
HETATM   13  H   UNL     1       6.408  25.459  50.641  1.00  0.00     0.166 HD
HETATM   14  C   UNL     1       4.822  26.764  50.131  1.00  0.00     0.042 A 
HETATM   15  C   UNL     1       4.304  27.862  50.812  1.00  0.00    -0.007 A 
HETATM   16  C   UNL     1       4.330  26.341  48.890  1.00  0.00     0.030 A 
HETATM   17  C   UNL     1       5.042  27.989  52.019  1.00  0.00     0.041 A 
HETATM   18  C   UNL     1       3.242  28.580  50.231  1.00  0.00     0.014 A 
HETATM   19  C   UNL     1       2.738  28.174  48.990  1.00  0.00     0.001 A 
HETATM   20  C   UNL     1       3.277  27.070  48.332  1.00  0.00     0.002 A 
ENDBRANCH   4  11
BRANCH   1  21
HETATM   21  C   UNL     1       6.536  29.347  56.244  1.00  0.00     0.072 A 
HETATM   22  C   UNL     1       7.423  29.556  57.319  1.00  0.00     0.095 A 
HETATM   23  C   UNL     1       7.256  30.641  58.184  1.00  0.00     0.042 A 
HETATM   24  C   UNL     1       6.229  31.553  57.947  1.00  0.00     0.045 A 
HETATM   25  C   UNL     1       5.379  31.365  56.861  1.00  0.00     0.118 A 
HETATM   26  C   UNL     1       5.520  30.273  56.010  1.00  0.00     0.074 A 
HETATM   27  F   UNL     1       4.403  32.253  56.636  1.00  0.00    -0.206 F 
BRANCH  22  28
HETATM   28  O   UNL     1       8.405  28.610  57.514  1.00  0.00    -0.354 OA
HETATM   29  C   UNL     1       9.700  29.079  57.142  1.00  0.00     0.210 C 
ENDBRANCH  22  28
ENDBRANCH   1  21
TORSDOF 3
ENDMDL
MODEL 9
REMARK VINA RESULT:      -8.3      2.721      7.161
REMARK  3 active torsions:
REMARK  status: ('A' for Active; 'I' for Inactive)
REMARK    1  A    between atoms: O_2  and  C_3 
REMARK    2  A    between atoms: C_4  and  N_5 
REMARK       I    between atoms: N_5  and  C_6 
REMARK       I    between atoms: C_6  and  N_7 
REMARK    3  A    between atoms: C_8  and  C_9 
ROOT
HETATM    1  N   UNL     1       6.738  26.067  51.731  1.00  0.00    -0.306 N 
HETATM    2  C   UNL     1       5.469  26.125  51.212  1.00  0.00     0.323 C 
HETATM    3  N   UNL     1       5.202  27.286  50.489  1.00  0.00    -0.324 N 
HETATM    4  C   UNL     1       5.853  28.586  50.745  1.00  0.00     0.139 C 
HETATM    5  C   UNL     1       6.035  29.357  49.427  1.00  0.00     0.032 C 
HETATM    6  C   UNL     1       4.742  29.458  48.617  1.00  0.00     0.004 C 
HETATM    7  C   UNL     1       4.126  28.078  48.411  1.00  0.00     0.020 C 
HETATM    8  C   UNL     1       3.948  27.339  49.732  1.00  0.00     0.128 C 
HETATM    9  O   UNL     1       4.622  25.250  51.365  1.00  0.00    -0.247 OA
HETATM   10  H   UNL     1       7.451  26.578  51.228  1.00  0.00     0.171 HD
ENDROOT
BRANCH   4  11
HETATM   11  C   UNL     1       5.077  29.346  51.796  1.00  0.00     0.033 A 
HETATM   12  N   UNL     1       5.192  29.048  53.139  1.00  0.00    -0.357 N 
HETATM   13  H   UNL     1       5.757  28.300  53.518  1.00  0.00     0.166 HD
HETATM   14  C   UNL     1       4.393  29.872  53.896  1.00  0.00     0.042 A 
HETATM   15  C   UNL     1       3.756  30.744  53.018  1.00  0.00    -0.007 A 
HETATM   16  C   UNL     1       4.186  29.907  55.281  1.00  0.00     0.030 A 
HETATM   17  C   UNL     1       4.203  30.417  51.710  1.00  0.00     0.041 A 
HETATM   18  C   UNL     1       2.866  31.702  53.540  1.00  0.00     0.014 A 
HETATM   19  C   UNL     1       2.645  31.751  54.921  1.00  0.00     0.001 A 
HETATM   20  C   UNL     1       3.297  30.864  55.777  1.00  0.00     0.002 A 
ENDBRANCH   4  11
BRANCH   1  21
HETATM   21  C   UNL     1       7.267  25.119  52.633  1.00  0.00     0.072 A 
HETATM   22  C   UNL     1       7.320  25.495  53.990  1.00  0.00     0.095 A 
HETATM   23  C   UNL     1       7.848  24.630  54.952  1.00  0.00     0.042 A 
HETATM   24  C   UNL     1       8.280  23.362  54.569  1.00  0.00     0.045 A 
HETATM   25  C   UNL     1       8.190  22.979  53.234  1.00  0.00     0.118 A 
HETATM   26  C   UNL     1       7.691  23.843  52.263  1.00  0.00     0.074 A 
HETATM   27  F   UNL     1       8.597  21.754  52.878  1.00  0.00    -0.206 F 
BRANCH  22  28
HETATM   28  O   UNL     1       6.897  26.768  54.304  1.00  0.00    -0.354 OA
HETATM   29  C   UNL     1       6.601  26.921  55.691  1.00  0.00     0.210 C 
ENDBRANCH  22  28
ENDBRANCH   1  21
TORSDOF 3
ENDMDL
MODEL 10
REMARK VINA RESULT:      -8.2      2.105      4.760
REMARK  3 active torsions:
REMARK  status: ('A' for Active; 'I' for Inactive)
REMARK    1  A    between atoms: O_2  and  C_3 
REMARK    2  A    between atoms: C_4  and  N_5 
REMARK       I    between atoms: N_5  and  C_6 
REMARK       I    between atoms: C_6  and  N_7 
REMARK    3  A    between atoms: C_8  and  C_9 
ROOT
HETATM    1  N   UNL     1       5.408  26.981  52.612  1.00  0.00    -0.306 N 
HETATM    2  C   UNL     1       6.457  26.156  52.930  1.00  0.00     0.323 C 
HETATM    3  N   UNL     1       6.507  25.791  54.275  1.00  0.00    -0.324 N 
HETATM    4  C   UNL     1       5.988  26.626  55.376  1.00  0.00     0.139 C 
HETATM    5  C   UNL     1       5.422  25.736  56.495  1.00  0.00     0.032 C 
HETATM    6  C   UNL     1       6.405  24.654  56.945  1.00  0.00     0.004 C 
HETATM    7  C   UNL     1       6.906  23.850  55.750  1.00  0.00     0.020 C 
HETATM    8  C   UNL     1       7.469  24.754  54.659  1.00  0.00     0.128 C 
HETATM    9  O   UNL     1       7.296  25.766  52.123  1.00  0.00    -0.247 OA
HETATM   10  H   UNL     1       4.583  26.901  53.192  1.00  0.00     0.171 HD
ENDROOT
BRANCH   4  11
HETATM   11  C   UNL     1       7.061  27.583  55.840  1.00  0.00     0.033 A 
HETATM   12  N   UNL     1       7.076  28.093  57.123  1.00  0.00    -0.357 N 
HETATM   13  H   UNL     1       6.373  27.904  57.825  1.00  0.00     0.166 HD
HETATM   14  C   UNL     1       8.145  28.937  57.306  1.00  0.00     0.042 A 
HETATM   15  C   UNL     1       8.858  28.959  56.111  1.00  0.00    -0.007 A 
HETATM   16  C   UNL     1       8.528  29.679  58.430  1.00  0.00     0.030 A 
HETATM   17  C   UNL     1       8.181  28.097  55.207  1.00  0.00     0.041 A 
HETATM   18  C   UNL     1      10.013  29.759  56.024  1.00  0.00     0.014 A 
HETATM   19  C   UNL     1      10.411  30.510  57.137  1.00  0.00     0.001 A 
HETATM   20  C   UNL     1       9.677  30.468  58.321  1.00  0.00     0.002 A 
ENDBRANCH   4  11
BRANCH   1  21
HETATM   21  C   UNL     1       5.167  27.651  51.393  1.00  0.00     0.072 A 
HETATM   22  C   UNL     1       4.917  29.036  51.470  1.00  0.00     0.095 A 
HETATM   23  C   UNL     1       4.646  29.778  50.318  1.00  0.00     0.042 A 
HETATM   24  C   UNL     1       4.674  29.148  49.075  1.00  0.00     0.045 A 
HETATM   25  C   UNL     1       4.960  27.789  49.000  1.00  0.00     0.118 A 
HETATM   26  C   UNL     1       5.204  27.034  50.144  1.00  0.00     0.074 A 
HETATM   27  F   UNL     1       4.995  27.195  47.800  1.00  0.00    -0.206 F 
BRANCH  22  28
HETATM   28  O   UNL     1       4.883  29.598  52.727  1.00  0.00    -0.354 OA
HETATM   29  C   UNL     1       3.556  29.888  53.163  1.00  0.00     0.210 C 
ENDBRANCH  22  28
ENDBRANCH   1  21
TORSDOF 3
ENDMDL
