MODEL 1
REMARK VINA RESULT:     -10.8      0.000      0.000
REMARK  9 active torsions:
REMARK  status: ('A' for Active; 'I' for Inactive)
REMARK    1  A    between atoms: C_4  and  O_5 
REMARK    2  A    between atoms: O_5  and  C_6 
REMARK    3  A    between atoms: C_6  and  C_7 
REMARK       I    between atoms: C_7  and  N_8 
REMARK    4  A    between atoms: N_8  and  C_9 
REMARK    5  A    between atoms: C_9  and  N_10 
REMARK    6  A    between atoms: N_10  and  C_11 
REMARK    7  A    between atoms: C_14  and  N_15 
REMARK    8  A    between atoms: N_18  and  C_20 
REMARK    9  A    between atoms: C_20  and  C_21 
ROOT
HETATM    1  C   UNL     1       5.802  30.784  57.697  1.00  0.00     0.034 A 
HETATM    2  C   UNL     1       6.721  29.752  57.854  1.00  0.00     0.032 A 
HETATM    3  C   UNL     1       6.446  28.465  57.366  1.00  0.00     0.031 A 
HETATM    4  C   UNL     1       5.264  28.179  56.677  1.00  0.00     0.030 A 
HETATM    5  C   UNL     1       4.328  29.220  56.571  1.00  0.00     0.031 A 
HETATM    6  C   UNL     1       4.580  30.496  57.091  1.00  0.00     0.032 A 
ENDROOT
BRANCH   1   7
HETATM    7  N   UNL     1       5.999  32.090  58.184  1.00  0.00    -0.333 N 
HETATM    8  H   UNL     1       6.910  32.262  58.612  1.00  0.00     0.168 HD
BRANCH   7   9
HETATM    9  C   UNL     1       5.129  33.150  58.301  1.00  0.00     0.178 C 
HETATM   10  S   UNL     1       4.616  34.209  57.112  1.00  0.00    -0.040 SA
BRANCH   9  11
HETATM   11  N   UNL     1       4.593  33.327  59.563  1.00  0.00    -0.302 N 
HETATM   12  C   UNL     1       3.655  32.550  60.234  1.00  0.00     0.248 C 
HETATM   13  O   UNL     1       3.032  31.627  59.711  1.00  0.00    -0.271 OA
HETATM   14  H   UNL     1       4.955  34.131  60.066  1.00  0.00     0.171 HD
BRANCH  12  15
HETATM   15  C   UNL     1       3.490  32.945  61.696  1.00  0.00     0.278 C 
BRANCH  15  16
HETATM   16  O   UNL     1       4.111  32.011  62.569  1.00  0.00    -0.342 OA
BRANCH  16  17
HETATM   17  C   UNL     1       5.408  32.253  62.933  1.00  0.00     0.070 A 
HETATM   18  C   UNL     1       6.548  31.878  62.218  1.00  0.00     0.043 A 
HETATM   19  C   UNL     1       7.827  32.203  62.692  1.00  0.00    -0.059 A 
HETATM   20  C   UNL     1       9.050  31.780  61.930  1.00  0.00     0.048 C 
HETATM   21  C   UNL     1       7.956  32.879  63.911  1.00  0.00     0.013 A 
HETATM   22  C   UNL     1       6.824  33.258  64.640  1.00  0.00    -0.059 A 
HETATM   23  C   UNL     1       5.555  32.931  64.146  1.00  0.00     0.043 A 
HETATM   24  C   UNL     1       6.980  33.969  65.952  1.00  0.00     0.048 C 
ENDBRANCH  16  17
ENDBRANCH  15  16
ENDBRANCH  12  15
ENDBRANCH   9  11
ENDBRANCH   7   9
ENDBRANCH   1   7
BRANCH   4  25
HETATM   25  N   UNL     1       4.969  26.933  56.119  1.00  0.00    -0.378 N 
HETATM   26  C   UNL     1       4.930  25.730  56.969  1.00  0.00     0.150 C 
HETATM   27  C   UNL     1       6.294  25.010  57.035  1.00  0.00     0.255 C 
HETATM   28  N   UNL     1       6.862  24.772  55.638  1.00  0.00    -0.064 N 
HETATM   29  H   UNL     1       6.212  24.144  55.146  1.00  0.00     0.280 HD
HETATM   30  C   UNL     1       6.910  26.071  54.830  1.00  0.00     0.255 C 
HETATM   31  C   UNL     1       5.507  26.710  54.761  1.00  0.00     0.150 C 
BRANCH  28  32
HETATM   32  C   UNL     1       8.203  24.077  55.660  1.00  0.00     0.275 C 
BRANCH  32  33
HETATM   33  C   UNL     1       8.211  22.756  54.937  1.00  0.00    -0.011 A 
HETATM   34  C   UNL     1       8.284  21.532  55.625  1.00  0.00     0.042 A 
HETATM   35 CL   UNL     1       8.393  21.483  57.350  1.00  0.00    -0.084 Cl
HETATM   36  C   UNL     1       8.301  20.320  54.931  1.00  0.00     0.024 A 
HETATM   37  C   UNL     1       8.244  20.315  53.539  1.00  0.00     0.002 A 
HETATM   38  C   UNL     1       8.171  21.518  52.841  1.00  0.00     0.001 A 
HETATM   39  C   UNL     1       8.152  22.731  53.533  1.00  0.00     0.010 A 
ENDBRANCH  32  33
ENDBRANCH  28  32
ENDBRANCH   4  25
TORSDOF 9
ENDMDL
MODEL 2
REMARK VINA RESULT:     -10.7      0.932      1.886
REMARK  9 active torsions:
REMARK  status: ('A' for Active; 'I' for Inactive)
REMARK    1  A    between atoms: C_4  and  O_5 
REMARK    2  A    between atoms: O_5  and  C_6 
REMARK    3  A    between atoms: C_6  and  C_7 
REMARK       I    between atoms: C_7  and  N_8 
REMARK    4  A    between atoms: N_8  and  C_9 
REMARK    5  A    between atoms: C_9  and  N_10 
REMARK    6  A    between atoms: N_10  and  C_11 
REMARK    7  A    between atoms: C_14  and  N_15 
REMARK    8  A    between atoms: N_18  and  C_20 
REMARK    9  A    between atoms: C_20  and  C_21 
ROOT
HETATM    1  C   UNL     1       5.722  30.809  57.587  1.00  0.00     0.034 A 
HETATM    2  C   UNL     1       6.635  29.788  57.829  1.00  0.00     0.032 A 
HETATM    3  C   UNL     1       6.389  28.483  57.374  1.00  0.00     0.031 A 
HETATM    4  C   UNL     1       5.246  28.167  56.635  1.00  0.00     0.030 A 
HETATM    5  C   UNL     1       4.314  29.199  56.443  1.00  0.00     0.031 A 
HETATM    6  C   UNL     1       4.535  30.494  56.929  1.00  0.00     0.032 A 
ENDROOT
BRANCH   1   7
HETATM    7  N   UNL     1       5.889  32.133  58.035  1.00  0.00    -0.333 N 
HETATM    8  H   UNL     1       6.818  32.355  58.397  1.00  0.00     0.168 HD
BRANCH   7   9
HETATM    9  C   UNL     1       4.981  33.155  58.192  1.00  0.00     0.178 C 
HETATM   10  S   UNL     1       4.379  34.197  57.030  1.00  0.00    -0.040 SA
BRANCH   9  11
HETATM   11  N   UNL     1       4.485  33.301  59.475  1.00  0.00    -0.302 N 
HETATM   12  C   UNL     1       3.640  32.460  60.189  1.00  0.00     0.248 C 
HETATM   13  O   UNL     1       3.071  31.485  59.700  1.00  0.00    -0.271 OA
HETATM   14  H   UNL     1       4.802  34.137  59.956  1.00  0.00     0.171 HD
BRANCH  12  15
HETATM   15  C   UNL     1       3.505  32.856  61.655  1.00  0.00     0.278 C 
BRANCH  15  16
HETATM   16  O   UNL     1       4.143  31.922  62.515  1.00  0.00    -0.342 OA
BRANCH  16  17
HETATM   17  C   UNL     1       5.338  32.292  63.072  1.00  0.00     0.070 A 
HETATM   18  C   UNL     1       5.507  32.972  64.281  1.00  0.00     0.043 A 
HETATM   19  C   UNL     1       6.792  33.279  64.753  1.00  0.00    -0.059 A 
HETATM   20  C   UNL     1       6.968  34.027  66.042  1.00  0.00     0.048 C 
HETATM   21  C   UNL     1       7.907  32.929  63.983  1.00  0.00     0.013 A 
HETATM   22  C   UNL     1       7.753  32.251  62.769  1.00  0.00    -0.059 A 
HETATM   23  C   UNL     1       6.463  31.947  62.318  1.00  0.00     0.043 A 
HETATM   24  C   UNL     1       8.960  31.898  61.949  1.00  0.00     0.048 C 
ENDBRANCH  16  17
ENDBRANCH  15  16
ENDBRANCH  12  15
ENDBRANCH   9  11
ENDBRANCH   7   9
ENDBRANCH   1   7
BRANCH   4  25
HETATM   25  N   UNL     1       4.985  26.900  56.108  1.00  0.00    -0.378 N 
HETATM   26  C   UNL     1       5.066  25.707  56.968  1.00  0.00     0.150 C 
HETATM   27  C   UNL     1       6.469  25.063  56.951  1.00  0.00     0.255 C 
HETATM   28  N   UNL     1       6.957  24.839  55.522  1.00  0.00    -0.064 N 
HETATM   29  H   UNL     1       6.312  24.171  55.078  1.00  0.00     0.280 HD
HETATM   30  C   UNL     1       6.882  26.129  54.702  1.00  0.00     0.255 C 
HETATM   31  C   UNL     1       5.444  26.690  54.720  1.00  0.00     0.150 C 
BRANCH  28  32
HETATM   32  C   UNL     1       8.333  24.218  55.462  1.00  0.00     0.275 C 
BRANCH  32  33
HETATM   33  C   UNL     1       8.335  22.803  54.948  1.00  0.00    -0.011 A 
HETATM   34  C   UNL     1       8.189  22.506  53.581  1.00  0.00     0.042 A 
HETATM   35 CL   UNL     1       7.971  23.763  52.415  1.00  0.00    -0.084 Cl
HETATM   36  C   UNL     1       8.184  21.185  53.131  1.00  0.00     0.024 A 
HETATM   37  C   UNL     1       8.327  20.140  54.041  1.00  0.00     0.002 A 
HETATM   38  C   UNL     1       8.475  20.414  55.398  1.00  0.00     0.001 A 
HETATM   39  C   UNL     1       8.482  21.735  55.851  1.00  0.00     0.010 A 
ENDBRANCH  32  33
ENDBRANCH  28  32
ENDBRANCH   4  25
TORSDOF 9
ENDMDL
MODEL 3
REMARK VINA RESULT:     -10.3      1.650      2.340
REMARK  9 active torsions:
REMARK  status: ('A' for Active; 'I' for Inactive)
REMARK    1  A    between atoms: C_4  and  O_5 
REMARK    2  A    between atoms: O_5  and  C_6 
REMARK    3  A    between atoms: C_6  and  C_7 
REMARK       I    between atoms: C_7  and  N_8 
REMARK    4  A    between atoms: N_8  and  C_9 
REMARK    5  A    between atoms: C_9  and  N_10 
REMARK    6  A    between atoms: N_10  and  C_11 
REMARK    7  A    between atoms: C_14  and  N_15 
REMARK    8  A    between atoms: N_18  and  C_20 
REMARK    9  A    between atoms: C_20  and  C_21 
ROOT
HETATM    1  C   UNL     1       4.771  31.900  57.421  1.00  0.00     0.034 A 
HETATM    2  C   UNL     1       4.717  31.140  56.257  1.00  0.00     0.032 A 
HETATM    3  C   UNL     1       5.735  30.225  55.949  1.00  0.00     0.031 A 
HETATM    4  C   UNL     1       6.816  30.014  56.808  1.00  0.00     0.030 A 
HETATM    5  C   UNL     1       6.880  30.824  57.953  1.00  0.00     0.031 A 
HETATM    6  C   UNL     1       5.887  31.768  58.246  1.00  0.00     0.032 A 
ENDROOT
BRANCH   1   7
HETATM    7  N   UNL     1       3.802  32.854  57.781  1.00  0.00    -0.333 N 
HETATM    8  H   UNL     1       2.844  32.624  57.511  1.00  0.00     0.168 HD
BRANCH   7   9
HETATM    9  C   UNL     1       3.931  34.112  58.324  1.00  0.00     0.178 C 
HETATM   10  S   UNL     1       4.280  35.550  57.544  1.00  0.00    -0.040 SA
BRANCH   9  11
HETATM   11  N   UNL     1       3.707  34.184  59.687  1.00  0.00    -0.302 N 
HETATM   12  C   UNL     1       3.200  33.214  60.543  1.00  0.00     0.248 C 
HETATM   13  O   UNL     1       2.721  32.146  60.162  1.00  0.00    -0.271 OA
HETATM   14  H   UNL     1       3.966  35.069  60.111  1.00  0.00     0.171 HD
BRANCH  12  15
HETATM   15  C   UNL     1       3.316  33.597  62.014  1.00  0.00     0.278 C 
BRANCH  15  16
HETATM   16  O   UNL     1       3.872  32.546  62.792  1.00  0.00    -0.342 OA
BRANCH  16  17
HETATM   17  C   UNL     1       5.191  32.651  63.143  1.00  0.00     0.070 A 
HETATM   18  C   UNL     1       6.283  32.237  62.377  1.00  0.00     0.043 A 
HETATM   19  C   UNL     1       7.593  32.417  62.844  1.00  0.00    -0.059 A 
HETATM   20  C   UNL     1       8.762  31.952  62.026  1.00  0.00     0.048 C 
HETATM   21  C   UNL     1       7.798  32.986  64.106  1.00  0.00     0.013 A 
HETATM   22  C   UNL     1       6.715  33.403  64.887  1.00  0.00    -0.059 A 
HETATM   23  C   UNL     1       5.414  33.221  64.400  1.00  0.00     0.043 A 
HETATM   24  C   UNL     1       6.953  33.997  66.244  1.00  0.00     0.048 C 
ENDBRANCH  16  17
ENDBRANCH  15  16
ENDBRANCH  12  15
ENDBRANCH   9  11
ENDBRANCH   7   9
ENDBRANCH   1   7
BRANCH   4  25
HETATM   25  N   UNL     1       7.823  29.074  56.577  1.00  0.00    -0.378 N 
HETATM   26  C   UNL     1       8.057  28.554  55.218  1.00  0.00     0.150 C 
HETATM   27  C   UNL     1       7.247  27.271  54.931  1.00  0.00     0.255 C 
HETATM   28  N   UNL     1       7.437  26.238  56.038  1.00  0.00    -0.064 N 
HETATM   29  H   UNL     1       8.432  25.973  56.043  1.00  0.00     0.280 HD
HETATM   30  C   UNL     1       7.138  26.837  57.413  1.00  0.00     0.255 C 
HETATM   31  C   UNL     1       8.016  28.083  57.656  1.00  0.00     0.150 C 
BRANCH  28  32
HETATM   32  C   UNL     1       6.653  24.969  55.798  1.00  0.00     0.275 C 
BRANCH  32  33
HETATM   33  C   UNL     1       7.417  23.921  55.034  1.00  0.00    -0.011 A 
HETATM   34  C   UNL     1       7.136  23.628  53.688  1.00  0.00     0.042 A 
HETATM   35 CL   UNL     1       5.870  24.447  52.842  1.00  0.00    -0.084 Cl
HETATM   36  C   UNL     1       7.852  22.643  53.005  1.00  0.00     0.024 A 
HETATM   37  C   UNL     1       8.861  21.938  53.657  1.00  0.00     0.002 A 
HETATM   38  C   UNL     1       9.154  22.215  54.990  1.00  0.00     0.001 A 
HETATM   39  C   UNL     1       8.440  23.201  55.676  1.00  0.00     0.010 A 
ENDBRANCH  32  33
ENDBRANCH  28  32
ENDBRANCH   4  25
TORSDOF 9
ENDMDL
MODEL 4
REMARK VINA RESULT:     -10.1      1.170      2.199
REMARK  9 active torsions:
REMARK  status: ('A' for Active; 'I' for Inactive)
REMARK    1  A    between atoms: C_4  and  O_5 
REMARK    2  A    between atoms: O_5  and  C_6 
REMARK    3  A    between atoms: C_6  and  C_7 
REMARK       I    between atoms: C_7  and  N_8 
REMARK    4  A    between atoms: N_8  and  C_9 
REMARK    5  A    between atoms: C_9  and  N_10 
REMARK    6  A    between atoms: N_10  and  C_11 
REMARK    7  A    between atoms: C_14  and  N_15 
REMARK    8  A    between atoms: N_18  and  C_20 
REMARK    9  A    between atoms: C_20  and  C_21 
ROOT
HETATM    1  C   UNL     1       4.704  30.788  57.305  1.00  0.00     0.034 A 
HETATM    2  C   UNL     1       4.537  30.153  56.080  1.00  0.00     0.032 A 
HETATM    3  C   UNL     1       5.534  29.310  55.565  1.00  0.00     0.031 A 
HETATM    4  C   UNL     1       6.710  29.048  56.273  1.00  0.00     0.030 A 
HETATM    5  C   UNL     1       6.883  29.736  57.484  1.00  0.00     0.031 A 
HETATM    6  C   UNL     1       5.909  30.609  57.984  1.00  0.00     0.032 A 
ENDROOT
BRANCH   1   7
HETATM    7  N   UNL     1       3.761  31.666  57.870  1.00  0.00    -0.333 N 
HETATM    8  H   UNL     1       2.819  31.283  57.976  1.00  0.00     0.168 HD
BRANCH   7   9
HETATM    9  C   UNL     1       3.848  33.002  58.190  1.00  0.00     0.178 C 
HETATM   10  S   UNL     1       3.819  34.321  57.161  1.00  0.00    -0.040 SA
BRANCH   9  11
HETATM   11  N   UNL     1       3.935  33.272  59.543  1.00  0.00    -0.302 N 
HETATM   12  C   UNL     1       2.919  33.562  60.446  1.00  0.00     0.248 C 
HETATM   13  O   UNL     1       1.751  33.771  60.118  1.00  0.00    -0.271 OA
HETATM   14  H   UNL     1       4.876  33.235  59.921  1.00  0.00     0.171 HD
BRANCH  12  15
HETATM   15  C   UNL     1       3.393  33.575  61.894  1.00  0.00     0.278 C 
BRANCH  15  16
HETATM   16  O   UNL     1       4.162  32.422  62.208  1.00  0.00    -0.342 OA
BRANCH  16  17
HETATM   17  C   UNL     1       5.348  32.615  62.864  1.00  0.00     0.070 A 
HETATM   18  C   UNL     1       5.505  33.170  64.136  1.00  0.00     0.043 A 
HETATM   19  C   UNL     1       6.780  33.298  64.707  1.00  0.00    -0.059 A 
HETATM   20  C   UNL     1       6.946  33.913  66.066  1.00  0.00     0.048 C 
HETATM   21  C   UNL     1       7.903  32.896  63.974  1.00  0.00     0.013 A 
HETATM   22  C   UNL     1       7.762  32.342  62.697  1.00  0.00    -0.059 A 
HETATM   23  C   UNL     1       6.480  32.216  62.147  1.00  0.00     0.043 A 
HETATM   24  C   UNL     1       8.978  31.931  61.919  1.00  0.00     0.048 C 
ENDBRANCH  16  17
ENDBRANCH  15  16
ENDBRANCH  12  15
ENDBRANCH   9  11
ENDBRANCH   7   9
ENDBRANCH   1   7
BRANCH   4  25
HETATM   25  N   UNL     1       7.705  28.172  55.834  1.00  0.00    -0.378 N 
HETATM   26  C   UNL     1       7.555  27.460  54.553  1.00  0.00     0.150 C 
HETATM   27  C   UNL     1       6.877  26.083  54.720  1.00  0.00     0.255 C 
HETATM   28  N   UNL     1       7.552  25.264  55.817  1.00  0.00    -0.064 N 
HETATM   29  H   UNL     1       8.521  25.089  55.517  1.00  0.00     0.280 HD
HETATM   30  C   UNL     1       7.635  26.051  57.126  1.00  0.00     0.255 C 
HETATM   31  C   UNL     1       8.367  27.390  56.898  1.00  0.00     0.150 C 
BRANCH  28  32
HETATM   32  C   UNL     1       6.911  23.911  56.018  1.00  0.00     0.275 C 
BRANCH  32  33
HETATM   33  C   UNL     1       7.480  22.834  55.132  1.00  0.00    -0.011 A 
HETATM   34  C   UNL     1       8.109  21.693  55.658  1.00  0.00     0.042 A 
HETATM   35 CL   UNL     1       8.286  21.478  57.365  1.00  0.00    -0.084 Cl
HETATM   36  C   UNL     1       8.638  20.713  54.816  1.00  0.00     0.024 A 
HETATM   37  C   UNL     1       8.544  20.861  53.433  1.00  0.00     0.002 A 
HETATM   38  C   UNL     1       7.923  21.984  52.894  1.00  0.00     0.001 A 
HETATM   39  C   UNL     1       7.391  22.964  53.735  1.00  0.00     0.010 A 
ENDBRANCH  32  33
ENDBRANCH  28  32
ENDBRANCH   4  25
TORSDOF 9
ENDMDL
MODEL 5
REMARK VINA RESULT:     -10.1      1.633      2.446
REMARK  9 active torsions:
REMARK  status: ('A' for Active; 'I' for Inactive)
REMARK    1  A    between atoms: C_4  and  O_5 
REMARK    2  A    between atoms: O_5  and  C_6 
REMARK    3  A    between atoms: C_6  and  C_7 
REMARK       I    between atoms: C_7  and  N_8 
REMARK    4  A    between atoms: N_8  and  C_9 
REMARK    5  A    between atoms: C_9  and  N_10 
REMARK    6  A    between atoms: N_10  and  C_11 
REMARK    7  A    between atoms: C_14  and  N_15 
REMARK    8  A    between atoms: N_18  and  C_20 
REMARK    9  A    between atoms: C_20  and  C_21 
ROOT
HETATM    1  C   UNL     1       6.171  30.655  58.015  1.00  0.00     0.034 A 
HETATM    2  C   UNL     1       7.126  29.646  57.954  1.00  0.00     0.032 A 
HETATM    3  C   UNL     1       6.813  28.393  57.404  1.00  0.00     0.031 A 
HETATM    4  C   UNL     1       5.552  28.122  56.868  1.00  0.00     0.030 A 
HETATM    5  C   UNL     1       4.587  29.134  56.983  1.00  0.00     0.031 A 
HETATM    6  C   UNL     1       4.881  30.373  57.566  1.00  0.00     0.032 A 
ENDROOT
BRANCH   1   7
HETATM    7  N   UNL     1       6.405  31.924  58.575  1.00  0.00    -0.333 N 
HETATM    8  H   UNL     1       7.210  32.425  58.195  1.00  0.00     0.168 HD
BRANCH   7   9
HETATM    9  C   UNL     1       5.814  32.564  59.641  1.00  0.00     0.178 C 
HETATM   10  S   UNL     1       4.607  33.723  59.618  1.00  0.00    -0.040 SA
BRANCH   9  11
HETATM   11  N   UNL     1       6.263  32.159  60.884  1.00  0.00    -0.302 N 
HETATM   12  C   UNL     1       7.550  32.199  61.406  1.00  0.00     0.248 C 
HETATM   13  O   UNL     1       8.548  32.484  60.746  1.00  0.00    -0.271 OA
HETATM   14  H   UNL     1       5.539  31.798  61.497  1.00  0.00     0.171 HD
BRANCH  12  15
HETATM   15  C   UNL     1       7.600  31.873  62.894  1.00  0.00     0.278 C 
BRANCH  15  16
HETATM   16  O   UNL     1       7.996  32.997  63.669  1.00  0.00    -0.342 OA
BRANCH  16  17
HETATM   17  C   UNL     1       7.006  33.732  64.264  1.00  0.00     0.070 A 
HETATM   18  C   UNL     1       6.064  34.528  63.608  1.00  0.00     0.043 A 
HETATM   19  C   UNL     1       5.085  35.221  64.336  1.00  0.00    -0.059 A 
HETATM   20  C   UNL     1       4.087  36.091  63.629  1.00  0.00     0.048 C 
HETATM   21  C   UNL     1       5.081  35.137  65.733  1.00  0.00     0.013 A 
HETATM   22  C   UNL     1       6.020  34.346  66.404  1.00  0.00    -0.059 A 
HETATM   23  C   UNL     1       6.985  33.656  65.659  1.00  0.00     0.043 A 
HETATM   24  C   UNL     1       6.011  34.280  67.903  1.00  0.00     0.048 C 
ENDBRANCH  16  17
ENDBRANCH  15  16
ENDBRANCH  12  15
ENDBRANCH   9  11
ENDBRANCH   7   9
ENDBRANCH   1   7
BRANCH   4  25
HETATM   25  N   UNL     1       5.209  26.914  56.256  1.00  0.00    -0.378 N 
HETATM   26  C   UNL     1       5.185  25.665  57.038  1.00  0.00     0.150 C 
HETATM   27  C   UNL     1       6.537  24.921  57.001  1.00  0.00     0.255 C 
HETATM   28  N   UNL     1       7.037  24.753  55.568  1.00  0.00    -0.064 N 
HETATM   29  H   UNL     1       6.354  24.165  55.073  1.00  0.00     0.280 HD
HETATM   30  C   UNL     1       7.073  26.094  54.833  1.00  0.00     0.255 C 
HETATM   31  C   UNL     1       5.681  26.759  54.864  1.00  0.00     0.150 C 
BRANCH  28  32
HETATM   32  C   UNL     1       8.364  24.036  55.490  1.00  0.00     0.275 C 
BRANCH  32  33
HETATM   33  C   UNL     1       8.295  22.713  54.775  1.00  0.00    -0.011 A 
HETATM   34  C   UNL     1       8.270  21.492  55.471  1.00  0.00     0.042 A 
HETATM   35 CL   UNL     1       8.342  21.447  57.198  1.00  0.00    -0.084 Cl
HETATM   36  C   UNL     1       8.217  20.277  54.785  1.00  0.00     0.024 A 
HETATM   37  C   UNL     1       8.187  20.266  53.392  1.00  0.00     0.002 A 
HETATM   38  C   UNL     1       8.210  21.465  52.686  1.00  0.00     0.001 A 
HETATM   39  C   UNL     1       8.262  22.682  53.370  1.00  0.00     0.010 A 
ENDBRANCH  32  33
ENDBRANCH  28  32
ENDBRANCH   4  25
TORSDOF 9
ENDMDL
MODEL 6
REMARK VINA RESULT:     -10.0      1.955      2.951
REMARK  9 active torsions:
REMARK  status: ('A' for Active; 'I' for Inactive)
REMARK    1  A    between atoms: C_4  and  O_5 
REMARK    2  A    between atoms: O_5  and  C_6 
REMARK    3  A    between atoms: C_6  and  C_7 
REMARK       I    between atoms: C_7  and  N_8 
REMARK    4  A    between atoms: N_8  and  C_9 
REMARK    5  A    between atoms: C_9  and  N_10 
REMARK    6  A    between atoms: N_10  and  C_11 
REMARK    7  A    between atoms: C_14  and  N_15 
REMARK    8  A    between atoms: N_18  and  C_20 
REMARK    9  A    between atoms: C_20  and  C_21 
ROOT
HETATM    1  C   UNL     1       5.153  31.671  58.053  1.00  0.00     0.034 A 
HETATM    2  C   UNL     1       4.900  30.994  56.864  1.00  0.00     0.032 A 
HETATM    3  C   UNL     1       5.829  30.079  56.346  1.00  0.00     0.031 A 
HETATM    4  C   UNL     1       7.020  29.786  57.014  1.00  0.00     0.030 A 
HETATM    5  C   UNL     1       7.282  30.514  58.186  1.00  0.00     0.031 A 
HETATM    6  C   UNL     1       6.376  31.457  58.687  1.00  0.00     0.032 A 
ENDROOT
BRANCH   1   7
HETATM    7  N   UNL     1       4.281  32.620  58.617  1.00  0.00    -0.333 N 
HETATM    8  H   UNL     1       3.520  32.232  59.177  1.00  0.00     0.168 HD
BRANCH   7   9
HETATM    9  C   UNL     1       4.195  33.982  58.444  1.00  0.00     0.178 C 
HETATM   10  S   UNL     1       4.045  34.841  57.016  1.00  0.00    -0.040 SA
BRANCH   9  11
HETATM   11  N   UNL     1       4.199  34.719  59.614  1.00  0.00    -0.302 N 
HETATM   12  C   UNL     1       3.530  34.473  60.807  1.00  0.00     0.248 C 
HETATM   13  O   UNL     1       2.682  33.592  60.947  1.00  0.00    -0.271 OA
HETATM   14  H   UNL     1       4.789  35.545  59.590  1.00  0.00     0.171 HD
BRANCH  12  15
HETATM   15  C   UNL     1       3.970  35.394  61.938  1.00  0.00     0.278 C 
BRANCH  15  16
HETATM   16  O   UNL     1       5.382  35.544  61.980  1.00  0.00    -0.342 OA
BRANCH  16  17
HETATM   17  C   UNL     1       6.078  34.727  62.830  1.00  0.00     0.070 A 
HETATM   18  C   UNL     1       6.093  34.812  64.224  1.00  0.00     0.043 A 
HETATM   19  C   UNL     1       6.836  33.899  64.987  1.00  0.00    -0.059 A 
HETATM   20  C   UNL     1       6.866  34.006  66.484  1.00  0.00     0.048 C 
HETATM   21  C   UNL     1       7.595  32.919  64.336  1.00  0.00     0.013 A 
HETATM   22  C   UNL     1       7.593  32.824  62.940  1.00  0.00    -0.059 A 
HETATM   23  C   UNL     1       6.838  33.740  62.197  1.00  0.00     0.043 A 
HETATM   24  C   UNL     1       8.424  31.778  62.258  1.00  0.00     0.048 C 
ENDBRANCH  16  17
ENDBRANCH  15  16
ENDBRANCH  12  15
ENDBRANCH   9  11
ENDBRANCH   7   9
ENDBRANCH   1   7
BRANCH   4  25
HETATM   25  N   UNL     1       7.949  28.841  56.572  1.00  0.00    -0.378 N 
HETATM   26  C   UNL     1       8.197  28.661  55.131  1.00  0.00     0.150 C 
HETATM   27  C   UNL     1       7.292  27.577  54.509  1.00  0.00     0.255 C 
HETATM   28  N   UNL     1       7.339  26.284  55.320  1.00  0.00    -0.064 N 
HETATM   29  H   UNL     1       8.306  25.931  55.278  1.00  0.00     0.280 HD
HETATM   30  C   UNL     1       7.033  26.543  56.796  1.00  0.00     0.255 C 
HETATM   31  C   UNL     1       8.005  27.597  57.367  1.00  0.00     0.150 C 
BRANCH  28  32
HETATM   32  C   UNL     1       6.458  25.199  54.747  1.00  0.00     0.275 C 
BRANCH  32  33
HETATM   33  C   UNL     1       7.186  23.909  54.474  1.00  0.00    -0.011 A 
HETATM   34  C   UNL     1       7.783  23.640  53.231  1.00  0.00     0.042 A 
HETATM   35 CL   UNL     1       7.690  24.777  51.932  1.00  0.00    -0.084 Cl
HETATM   36  C   UNL     1       8.443  22.432  52.999  1.00  0.00     0.024 A 
HETATM   37  C   UNL     1       8.516  21.475  54.009  1.00  0.00     0.002 A 
HETATM   38  C   UNL     1       7.931  21.724  55.248  1.00  0.00     0.001 A 
HETATM   39  C   UNL     1       7.272  22.933  55.483  1.00  0.00     0.010 A 
ENDBRANCH  32  33
ENDBRANCH  28  32
ENDBRANCH   4  25
TORSDOF 9
ENDMDL
MODEL 7
REMARK VINA RESULT:     -10.0      1.425      1.875
REMARK  9 active torsions:
REMARK  status: ('A' for Active; 'I' for Inactive)
REMARK    1  A    between atoms: C_4  and  O_5 
REMARK    2  A    between atoms: O_5  and  C_6 
REMARK    3  A    between atoms: C_6  and  C_7 
REMARK       I    between atoms: C_7  and  N_8 
REMARK    4  A    between atoms: N_8  and  C_9 
REMARK    5  A    between atoms: C_9  and  N_10 
REMARK    6  A    between atoms: N_10  and  C_11 
REMARK    7  A    between atoms: C_14  and  N_15 
REMARK    8  A    between atoms: N_18  and  C_20 
REMARK    9  A    between atoms: C_20  and  C_21 
ROOT
HETATM    1  C   UNL     1       4.741  29.027  57.006  1.00  0.00     0.034 A 
HETATM    2  C   UNL     1       5.653  27.980  56.931  1.00  0.00     0.032 A 
HETATM    3  C   UNL     1       5.739  27.183  55.779  1.00  0.00     0.031 A 
HETATM    4  C   UNL     1       4.946  27.431  54.656  1.00  0.00     0.030 A 
HETATM    5  C   UNL     1       3.999  28.461  54.767  1.00  0.00     0.031 A 
HETATM    6  C   UNL     1       3.880  29.233  55.929  1.00  0.00     0.032 A 
ENDROOT
BRANCH   1   7
HETATM    7  N   UNL     1       4.581  29.849  58.137  1.00  0.00    -0.333 N 
HETATM    8  H   UNL     1       4.172  29.390  58.953  1.00  0.00     0.168 HD
BRANCH   7   9
HETATM    9  C   UNL     1       4.760  31.204  58.302  1.00  0.00     0.178 C 
HETATM   10  S   UNL     1       5.115  32.354  57.140  1.00  0.00    -0.040 SA
BRANCH   9  11
HETATM   11  N   UNL     1       4.585  31.660  59.595  1.00  0.00    -0.302 N 
HETATM   12  C   UNL     1       3.581  32.472  60.110  1.00  0.00     0.248 C 
HETATM   13  O   UNL     1       2.741  33.044  59.417  1.00  0.00    -0.271 OA
HETATM   14  H   UNL     1       5.288  31.339  60.254  1.00  0.00     0.171 HD
BRANCH  12  15
HETATM   15  C   UNL     1       3.612  32.566  61.631  1.00  0.00     0.278 C 
BRANCH  15  16
HETATM   16  O   UNL     1       4.443  31.567  62.205  1.00  0.00    -0.342 OA
BRANCH  16  17
HETATM   17  C   UNL     1       5.686  31.951  62.633  1.00  0.00     0.070 A 
HETATM   18  C   UNL     1       6.897  31.683  61.989  1.00  0.00     0.043 A 
HETATM   19  C   UNL     1       8.107  32.148  62.523  1.00  0.00    -0.059 A 
HETATM   20  C   UNL     1       9.408  31.841  61.839  1.00  0.00     0.048 C 
HETATM   21  C   UNL     1       8.097  32.857  63.730  1.00  0.00     0.013 A 
HETATM   22  C   UNL     1       6.893  33.130  64.388  1.00  0.00    -0.059 A 
HETATM   23  C   UNL     1       5.694  32.662  63.835  1.00  0.00     0.043 A 
HETATM   24  C   UNL     1       6.901  33.877  65.690  1.00  0.00     0.048 C 
ENDBRANCH  16  17
ENDBRANCH  15  16
ENDBRANCH  12  15
ENDBRANCH   9  11
ENDBRANCH   7   9
ENDBRANCH   1   7
BRANCH   4  25
HETATM   25  N   UNL     1       5.036  26.707  53.464  1.00  0.00    -0.378 N 
HETATM   26  C   UNL     1       4.758  25.260  53.451  1.00  0.00     0.150 C 
HETATM   27  C   UNL     1       6.030  24.414  53.676  1.00  0.00     0.255 C 
HETATM   28  N   UNL     1       7.154  24.845  52.737  1.00  0.00    -0.064 N 
HETATM   29  H   UNL     1       6.836  24.664  51.775  1.00  0.00     0.280 HD
HETATM   30  C   UNL     1       7.412  26.350  52.835  1.00  0.00     0.255 C 
HETATM   31  C   UNL     1       6.115  27.135  52.550  1.00  0.00     0.150 C 
BRANCH  28  32
HETATM   32  C   UNL     1       8.420  24.046  52.932  1.00  0.00     0.275 C 
BRANCH  32  33
HETATM   33  C   UNL     1       8.221  22.777  53.718  1.00  0.00    -0.011 A 
HETATM   34  C   UNL     1       8.252  22.759  55.123  1.00  0.00     0.042 A 
HETATM   35 CL   UNL     1       8.550  24.202  56.027  1.00  0.00    -0.084 Cl
HETATM   36  C   UNL     1       8.074  21.568  55.829  1.00  0.00     0.024 A 
HETATM   37  C   UNL     1       7.862  20.376  55.138  1.00  0.00     0.002 A 
HETATM   38  C   UNL     1       7.826  20.375  53.746  1.00  0.00     0.001 A 
HETATM   39  C   UNL     1       8.001  21.566  53.038  1.00  0.00     0.010 A 
ENDBRANCH  32  33
ENDBRANCH  28  32
ENDBRANCH   4  25
TORSDOF 9
ENDMDL
MODEL 8
REMARK VINA RESULT:     -10.0      2.220      2.758
REMARK  9 active torsions:
REMARK  status: ('A' for Active; 'I' for Inactive)
REMARK    1  A    between atoms: C_4  and  O_5 
REMARK    2  A    between atoms: O_5  and  C_6 
REMARK    3  A    between atoms: C_6  and  C_7 
REMARK       I    between atoms: C_7  and  N_8 
REMARK    4  A    between atoms: N_8  and  C_9 
REMARK    5  A    between atoms: C_9  and  N_10 
REMARK    6  A    between atoms: N_10  and  C_11 
REMARK    7  A    between atoms: C_14  and  N_15 
REMARK    8  A    between atoms: N_18  and  C_20 
REMARK    9  A    between atoms: C_20  and  C_21 
ROOT
HETATM    1  C   UNL     1       6.741  30.507  58.311  1.00  0.00     0.034 A 
HETATM    2  C   UNL     1       5.498  30.483  57.686  1.00  0.00     0.032 A 
HETATM    3  C   UNL     1       5.068  29.345  56.987  1.00  0.00     0.031 A 
HETATM    4  C   UNL     1       5.847  28.187  56.921  1.00  0.00     0.030 A 
HETATM    5  C   UNL     1       7.117  28.247  57.515  1.00  0.00     0.031 A 
HETATM    6  C   UNL     1       7.569  29.394  58.180  1.00  0.00     0.032 A 
ENDROOT
BRANCH   1   7
HETATM    7  N   UNL     1       7.249  31.621  59.005  1.00  0.00    -0.333 N 
HETATM    8  H   UNL     1       7.503  32.419  58.420  1.00  0.00     0.168 HD
BRANCH   7   9
HETATM    9  C   UNL     1       7.585  31.783  60.330  1.00  0.00     0.178 C 
HETATM   10  S   UNL     1       9.109  31.788  61.022  1.00  0.00    -0.040 SA
BRANCH   9  11
HETATM   11  N   UNL     1       6.517  32.002  61.179  1.00  0.00    -0.302 N 
HETATM   12  C   UNL     1       5.335  32.693  60.940  1.00  0.00     0.248 C 
HETATM   13  O   UNL     1       5.127  33.364  59.930  1.00  0.00    -0.271 OA
HETATM   14  H   UNL     1       6.615  31.581  62.098  1.00  0.00     0.171 HD
BRANCH  12  15
HETATM   15  C   UNL     1       4.307  32.519  62.052  1.00  0.00     0.278 C 
BRANCH  15  16
HETATM   16  O   UNL     1       3.473  33.662  62.185  1.00  0.00    -0.342 OA
BRANCH  16  17
HETATM   17  C   UNL     1       3.905  34.665  63.012  1.00  0.00     0.070 A 
HETATM   18  C   UNL     1       4.744  35.722  62.654  1.00  0.00     0.043 A 
HETATM   19  C   UNL     1       5.101  36.700  63.594  1.00  0.00    -0.059 A 
HETATM   20  C   UNL     1       6.019  37.824  63.211  1.00  0.00     0.048 C 
HETATM   21  C   UNL     1       4.637  36.588  64.910  1.00  0.00     0.013 A 
HETATM   22  C   UNL     1       3.799  35.532  65.284  1.00  0.00    -0.059 A 
HETATM   23  C   UNL     1       3.448  34.570  64.329  1.00  0.00     0.043 A 
HETATM   24  C   UNL     1       3.323  35.418  66.703  1.00  0.00     0.048 C 
ENDBRANCH  16  17
ENDBRANCH  15  16
ENDBRANCH  12  15
ENDBRANCH   9  11
ENDBRANCH   7   9
ENDBRANCH   1   7
BRANCH   4  25
HETATM   25  N   UNL     1       5.439  27.009  56.291  1.00  0.00    -0.378 N 
HETATM   26  C   UNL     1       5.307  25.761  57.062  1.00  0.00     0.150 C 
HETATM   27  C   UNL     1       6.605  24.925  57.057  1.00  0.00     0.255 C 
HETATM   28  N   UNL     1       7.133  24.732  55.638  1.00  0.00    -0.064 N 
HETATM   29  H   UNL     1       6.425  24.195  55.118  1.00  0.00     0.280 HD
HETATM   30  C   UNL     1       7.282  26.071  54.915  1.00  0.00     0.255 C 
HETATM   31  C   UNL     1       5.939  26.830  54.912  1.00  0.00     0.150 C 
BRANCH  28  32
HETATM   32  C   UNL     1       8.409  23.925  55.591  1.00  0.00     0.275 C 
BRANCH  32  33
HETATM   33  C   UNL     1       8.290  22.649  54.801  1.00  0.00    -0.011 A 
HETATM   34  C   UNL     1       8.258  21.389  55.422  1.00  0.00     0.042 A 
HETATM   35 CL   UNL     1       8.381  21.238  57.140  1.00  0.00    -0.084 Cl
HETATM   36  C   UNL     1       8.158  20.219  54.666  1.00  0.00     0.024 A 
HETATM   37  C   UNL     1       8.087  20.294  53.277  1.00  0.00     0.002 A 
HETATM   38  C   UNL     1       8.116  21.534  52.644  1.00  0.00     0.001 A 
HETATM   39  C   UNL     1       8.214  22.705  53.398  1.00  0.00     0.010 A 
ENDBRANCH  32  33
ENDBRANCH  28  32
ENDBRANCH   4  25
TORSDOF 9
ENDMDL
MODEL 9
REMARK VINA RESULT:      -9.9      2.467      3.396
REMARK  9 active torsions:
REMARK  status: ('A' for Active; 'I' for Inactive)
REMARK    1  A    between atoms: C_4  and  O_5 
REMARK    2  A    between atoms: O_5  and  C_6 
REMARK    3  A    between atoms: C_6  and  C_7 
REMARK       I    between atoms: C_7  and  N_8 
REMARK    4  A    between atoms: N_8  and  C_9 
REMARK    5  A    between atoms: C_9  and  N_10 
REMARK    6  A    between atoms: N_10  and  C_11 
REMARK    7  A    between atoms: C_14  and  N_15 
REMARK    8  A    between atoms: N_18  and  C_20 
REMARK    9  A    between atoms: C_20  and  C_21 
ROOT
HETATM    1  C   UNL     1       6.693  29.222  57.397  1.00  0.00     0.034 A 
HETATM    2  C   UNL     1       7.543  28.200  56.988  1.00  0.00     0.032 A 
HETATM    3  C   UNL     1       7.225  27.402  55.879  1.00  0.00     0.031 A 
HETATM    4  C   UNL     1       6.069  27.622  55.124  1.00  0.00     0.030 A 
HETATM    5  C   UNL     1       5.200  28.625  55.580  1.00  0.00     0.031 A 
HETATM    6  C   UNL     1       5.493  29.399  56.710  1.00  0.00     0.032 A 
ENDROOT
BRANCH   1   7
HETATM    7  N   UNL     1       6.934  30.044  58.514  1.00  0.00    -0.333 N 
HETATM    8  H   UNL     1       6.116  30.540  58.873  1.00  0.00     0.168 HD
BRANCH   7   9
HETATM    9  C   UNL     1       8.109  30.400  59.136  1.00  0.00     0.178 C 
HETATM   10  S   UNL     1       9.612  30.656  58.449  1.00  0.00    -0.040 SA
BRANCH   9  11
HETATM   11  N   UNL     1       8.007  30.601  60.501  1.00  0.00    -0.302 N 
HETATM   12  C   UNL     1       7.874  31.793  61.203  1.00  0.00     0.248 C 
HETATM   13  O   UNL     1       7.978  32.905  60.689  1.00  0.00    -0.271 OA
HETATM   14  H   UNL     1       8.016  29.750  61.054  1.00  0.00     0.171 HD
BRANCH  12  15
HETATM   15  C   UNL     1       7.564  31.582  62.680  1.00  0.00     0.278 C 
BRANCH  15  16
HETATM   16  O   UNL     1       7.889  32.727  63.457  1.00  0.00    -0.342 OA
BRANCH  16  17
HETATM   17  C   UNL     1       6.909  33.243  64.261  1.00  0.00     0.070 A 
HETATM   18  C   UNL     1       7.050  33.602  65.604  1.00  0.00     0.043 A 
HETATM   19  C   UNL     1       5.968  34.139  66.316  1.00  0.00    -0.059 A 
HETATM   20  C   UNL     1       6.118  34.505  67.764  1.00  0.00     0.048 C 
HETATM   21  C   UNL     1       4.729  34.279  65.679  1.00  0.00     0.013 A 
HETATM   22  C   UNL     1       4.572  33.921  64.336  1.00  0.00    -0.059 A 
HETATM   23  C   UNL     1       5.666  33.393  63.640  1.00  0.00     0.043 A 
HETATM   24  C   UNL     1       3.233  34.063  63.674  1.00  0.00     0.048 C 
ENDBRANCH  16  17
ENDBRANCH  15  16
ENDBRANCH  12  15
ENDBRANCH   9  11
ENDBRANCH   7   9
ENDBRANCH   1   7
BRANCH   4  25
HETATM   25  N   UNL     1       5.738  26.896  53.978  1.00  0.00    -0.378 N 
HETATM   26  C   UNL     1       5.102  25.572  54.095  1.00  0.00     0.150 C 
HETATM   27  C   UNL     1       6.133  24.424  54.124  1.00  0.00     0.255 C 
HETATM   28  N   UNL     1       7.126  24.543  52.970  1.00  0.00    -0.064 N 
HETATM   29  H   UNL     1       6.591  24.448  52.095  1.00  0.00     0.280 HD
HETATM   30  C   UNL     1       7.775  25.928  52.937  1.00  0.00     0.255 C 
HETATM   31  C   UNL     1       6.691  27.024  52.856  1.00  0.00     0.150 C 
BRANCH  28  32
HETATM   32  C   UNL     1       8.159  23.441  52.968  1.00  0.00     0.275 C 
BRANCH  32  33
HETATM   33  C   UNL     1       8.227  22.673  54.261  1.00  0.00    -0.011 A 
HETATM   34  C   UNL     1       8.078  21.276  54.306  1.00  0.00     0.042 A 
HETATM   35 CL   UNL     1       7.782  20.363  52.868  1.00  0.00    -0.084 Cl
HETATM   36  C   UNL     1       8.135  20.588  55.520  1.00  0.00     0.024 A 
HETATM   37  C   UNL     1       8.342  21.288  56.707  1.00  0.00     0.002 A 
HETATM   38  C   UNL     1       8.492  22.672  56.681  1.00  0.00     0.001 A 
HETATM   39  C   UNL     1       8.438  23.362  55.468  1.00  0.00     0.010 A 
ENDBRANCH  32  33
ENDBRANCH  28  32
ENDBRANCH   4  25
TORSDOF 9
ENDMDL
MODEL 10
REMARK VINA RESULT:      -9.8      1.559      2.010
REMARK  9 active torsions:
REMARK  status: ('A' for Active; 'I' for Inactive)
REMARK    1  A    between atoms: C_4  and  O_5 
REMARK    2  A    between atoms: O_5  and  C_6 
REMARK    3  A    between atoms: C_6  and  C_7 
REMARK       I    between atoms: C_7  and  N_8 
REMARK    4  A    between atoms: N_8  and  C_9 
REMARK    5  A    between atoms: C_9  and  N_10 
REMARK    6  A    between atoms: N_10  and  C_11 
REMARK    7  A    between atoms: C_14  and  N_15 
REMARK    8  A    between atoms: N_18  and  C_20 
REMARK    9  A    between atoms: C_20  and  C_21 
ROOT
HETATM    1  C   UNL     1       5.302  30.252  55.697  1.00  0.00     0.034 A 
HETATM    2  C   UNL     1       6.393  30.039  56.533  1.00  0.00     0.032 A 
HETATM    3  C   UNL     1       6.603  28.789  57.136  1.00  0.00     0.031 A 
HETATM    4  C   UNL     1       5.754  27.707  56.894  1.00  0.00     0.030 A 
HETATM    5  C   UNL     1       4.632  27.953  56.087  1.00  0.00     0.031 A 
HETATM    6  C   UNL     1       4.395  29.210  55.515  1.00  0.00     0.032 A 
ENDROOT
BRANCH   1   7
HETATM    7  N   UNL     1       5.015  31.484  55.081  1.00  0.00    -0.333 N 
HETATM    8  H   UNL     1       5.614  31.725  54.289  1.00  0.00     0.168 HD
BRANCH   7   9
HETATM    9  C   UNL     1       4.145  32.490  55.436  1.00  0.00     0.178 C 
HETATM   10  S   UNL     1       2.748  32.979  54.657  1.00  0.00    -0.040 SA
BRANCH   9  11
HETATM   11  N   UNL     1       4.465  33.148  56.609  1.00  0.00    -0.302 N 
HETATM   12  C   UNL     1       4.041  32.882  57.906  1.00  0.00     0.248 C 
HETATM   13  O   UNL     1       3.163  32.067  58.186  1.00  0.00    -0.271 OA
HETATM   14  H   UNL     1       5.111  33.922  56.496  1.00  0.00     0.171 HD
BRANCH  12  15
HETATM   15  C   UNL     1       4.794  33.690  58.957  1.00  0.00     0.278 C 
BRANCH  15  16
HETATM   16  O   UNL     1       4.830  33.023  60.210  1.00  0.00    -0.342 OA
BRANCH  16  17
HETATM   17  C   UNL     1       6.056  32.632  60.681  1.00  0.00     0.070 A 
HETATM   18  C   UNL     1       7.023  31.920  59.967  1.00  0.00     0.043 A 
HETATM   19  C   UNL     1       8.251  31.594  60.560  1.00  0.00    -0.059 A 
HETATM   20  C   UNL     1       9.280  30.812  59.797  1.00  0.00     0.048 C 
HETATM   21  C   UNL     1       8.488  31.958  61.891  1.00  0.00     0.013 A 
HETATM   22  C   UNL     1       7.528  32.668  62.619  1.00  0.00    -0.059 A 
HETATM   23  C   UNL     1       6.310  32.991  62.007  1.00  0.00     0.043 A 
HETATM   24  C   UNL     1       7.793  33.037  64.050  1.00  0.00     0.048 C 
ENDBRANCH  16  17
ENDBRANCH  15  16
ENDBRANCH  12  15
ENDBRANCH   9  11
ENDBRANCH   7   9
ENDBRANCH   1   7
BRANCH   4  25
HETATM   25  N   UNL     1       5.952  26.428  57.420  1.00  0.00    -0.378 N 
HETATM   26  C   UNL     1       7.162  26.127  58.205  1.00  0.00     0.150 C 
HETATM   27  C   UNL     1       8.313  25.587  57.330  1.00  0.00     0.255 C 
HETATM   28  N   UNL     1       7.840  24.438  56.442  1.00  0.00    -0.064 N 
HETATM   29  H   UNL     1       7.547  23.672  57.063  1.00  0.00     0.280 HD
HETATM   30  C   UNL     1       6.608  24.837  55.629  1.00  0.00     0.255 C 
HETATM   31  C   UNL     1       5.481  25.318  56.567  1.00  0.00     0.150 C 
BRANCH  28  32
HETATM   32  C   UNL     1       8.937  23.887  55.562  1.00  0.00     0.275 C 
BRANCH  32  33
HETATM   33  C   UNL     1       8.533  22.660  54.788  1.00  0.00    -0.011 A 
HETATM   34  C   UNL     1       8.280  21.431  55.421  1.00  0.00     0.042 A 
HETATM   35 CL   UNL     1       8.445  21.258  57.133  1.00  0.00    -0.084 Cl
HETATM   36  C   UNL     1       7.916  20.304  54.680  1.00  0.00     0.024 A 
HETATM   37  C   UNL     1       7.801  20.392  53.294  1.00  0.00     0.002 A 
HETATM   38  C   UNL     1       8.047  21.602  52.650  1.00  0.00     0.001 A 
HETATM   39  C   UNL     1       8.408  22.730  53.390  1.00  0.00     0.010 A 
ENDBRANCH  32  33
ENDBRANCH  28  32
ENDBRANCH   4  25
TORSDOF 9
ENDMDL
