MODEL 1
REMARK VINA RESULT:      -9.9      0.000      0.000
REMARK  7 active torsions:
REMARK  status: ('A' for Active; 'I' for Inactive)
REMARK    1  A    between atoms: C_2  and  C_3 
REMARK    2  A    between atoms: C_3  and  N_4 
REMARK    3  A    between atoms: C_3  and  C_22 
REMARK       I    between atoms: N_4  and  C_5 
REMARK       I    between atoms: C_5  and  N_6 
REMARK    4  A    between atoms: N_6  and  C_7 
REMARK    5  A    between atoms: C_7  and  C_8 
REMARK    6  A    between atoms: C_11  and  N_12 
REMARK       I    between atoms: N_12  and  C_13 
REMARK       I    between atoms: C_13  and  N_14 
REMARK    7  A    between atoms: N_14  and  C_15 
ROOT
HETATM    1  N   UNL     1       7.587  30.286  58.943  1.00  0.00    -0.331 N 
HETATM    2  C   UNL     1       6.906  31.448  59.151  1.00  0.00     0.317 C 
HETATM    3  N   UNL     1       6.397  31.509  60.415  1.00  0.00    -0.339 N 
HETATM    4  O   UNL     1       6.775  32.329  58.311  1.00  0.00    -0.247 OA
HETATM    5  H   UNL     1       7.893  29.763  59.753  1.00  0.00     0.165 HD
HETATM    6  H   UNL     1       6.176  30.619  60.839  1.00  0.00     0.164 HD
ENDROOT
BRANCH   1   7
HETATM    7  C   UNL     1       8.326  30.025  57.720  1.00  0.00     0.159 C 
BRANCH   7   8
HETATM    8  C   UNL     1       9.862  30.111  57.926  1.00  0.00     0.008 C 
HETATM    9  C   UNL     1      10.303  31.523  58.325  1.00  0.00     0.012 C 
HETATM   10  C   UNL     1      10.681  29.628  56.724  1.00  0.00     0.012 C 
ENDBRANCH   7   8
BRANCH   7  11
HETATM   11  C   UNL     1       7.869  28.677  57.236  1.00  0.00     0.128 A 
HETATM   12  N   UNL     1       7.936  27.534  57.898  1.00  0.00    -0.231 NA
HETATM   13  C   UNL     1       7.408  26.587  57.055  1.00  0.00     0.085 A 
HETATM   14  C   UNL     1       6.992  27.163  55.860  1.00  0.00     0.062 A 
HETATM   15  C   UNL     1       7.251  25.207  57.242  1.00  0.00     0.034 A 
HETATM   16  N   UNL     1       7.282  28.495  56.006  1.00  0.00    -0.341 N 
HETATM   17  C   UNL     1       6.418  26.434  54.817  1.00  0.00     0.032 A 
HETATM   18  H   UNL     1       7.104  29.217  55.324  1.00  0.00     0.167 HD
HETATM   19  C   UNL     1       6.270  25.057  55.021  1.00  0.00     0.002 A 
HETATM   20  C   UNL     1       6.679  24.450  56.212  1.00  0.00     0.002 A 
ENDBRANCH   7  11
ENDBRANCH   1   7
BRANCH   3  21
HETATM   21  C   UNL     1       5.618  32.649  60.840  1.00  0.00     0.162 C 
BRANCH  21  22
HETATM   22  C   UNL     1       6.006  33.074  62.233  1.00  0.00    -0.040 A 
HETATM   23  C   UNL     1       5.466  34.238  62.798  1.00  0.00     0.011 A 
HETATM   24  C   UNL     1       5.865  34.671  64.066  1.00  0.00     0.030 A 
HETATM   25  C   UNL     1       6.804  33.946  64.798  1.00  0.00     0.036 A 
HETATM   26  C   UNL     1       7.304  32.754  64.261  1.00  0.00     0.030 A 
HETATM   27  C   UNL     1       6.913  32.323  62.987  1.00  0.00     0.011 A 
BRANCH  25  28
HETATM   28  N   UNL     1       7.298  34.347  66.056  1.00  0.00    -0.309 N 
HETATM   29  C   UNL     1       6.624  34.329  67.260  1.00  0.00     0.321 C 
HETATM   30  N   UNL     1       7.423  34.843  68.264  1.00  0.00    -0.339 N 
HETATM   31  O   UNL     1       5.470  33.967  67.443  1.00  0.00    -0.247 OA
HETATM   32  H   UNL     1       8.411  34.679  68.149  1.00  0.00     0.164 HD
HETATM   33  H   UNL     1       8.144  34.895  66.050  1.00  0.00     0.170 HD
BRANCH  30  34
HETATM   34  C   UNL     1       6.964  35.037  69.636  1.00  0.00     0.078 C 
HETATM   35  C   UNL     1       7.027  33.754  70.461  1.00  0.00     0.032 C 
HETATM   36  C   UNL     1       7.680  36.192  70.330  1.00  0.00     0.032 C 
ENDBRANCH  30  34
ENDBRANCH  25  28
ENDBRANCH  21  22
ENDBRANCH   3  21
TORSDOF 7
ENDMDL
MODEL 2
REMARK VINA RESULT:      -9.4      2.499      4.456
REMARK  7 active torsions:
REMARK  status: ('A' for Active; 'I' for Inactive)
REMARK    1  A    between atoms: C_2  and  C_3 
REMARK    2  A    between atoms: C_3  and  N_4 
REMARK    3  A    between atoms: C_3  and  C_22 
REMARK       I    between atoms: N_4  and  C_5 
REMARK       I    between atoms: C_5  and  N_6 
REMARK    4  A    between atoms: N_6  and  C_7 
REMARK    5  A    between atoms: C_7  and  C_8 
REMARK    6  A    between atoms: C_11  and  N_12 
REMARK       I    between atoms: N_12  and  C_13 
REMARK       I    between atoms: C_13  and  N_14 
REMARK    7  A    between atoms: N_14  and  C_15 
ROOT
HETATM    1  N   UNL     1       6.643  29.392  55.738  1.00  0.00    -0.331 N 
HETATM    2  C   UNL     1       7.273  29.090  56.907  1.00  0.00     0.317 C 
HETATM    3  N   UNL     1       8.197  30.039  57.235  1.00  0.00    -0.339 N 
HETATM    4  O   UNL     1       7.036  28.096  57.580  1.00  0.00    -0.247 OA
HETATM    5  H   UNL     1       6.683  30.348  55.408  1.00  0.00     0.165 HD
HETATM    6  H   UNL     1       8.614  30.528  56.457  1.00  0.00     0.164 HD
ENDROOT
BRANCH   1   7
HETATM    7  C   UNL     1       5.534  28.606  55.226  1.00  0.00     0.159 C 
BRANCH   7   8
HETATM    8  C   UNL     1       4.686  29.386  54.184  1.00  0.00     0.008 C 
HETATM    9  C   UNL     1       4.056  30.643  54.793  1.00  0.00     0.012 C 
HETATM   10  C   UNL     1       3.607  28.540  53.498  1.00  0.00     0.012 C 
ENDBRANCH   7   8
BRANCH   7  11
HETATM   11  C   UNL     1       6.135  27.345  54.672  1.00  0.00     0.128 A 
HETATM   12  N   UNL     1       6.801  27.217  53.537  1.00  0.00    -0.231 NA
HETATM   13  C   UNL     1       7.146  25.890  53.458  1.00  0.00     0.085 A 
HETATM   14  C   UNL     1       6.699  25.194  54.575  1.00  0.00     0.062 A 
HETATM   15  C   UNL     1       7.844  25.204  52.455  1.00  0.00     0.034 A 
HETATM   16  N   UNL     1       6.073  26.144  55.339  1.00  0.00    -0.341 N 
HETATM   17  C   UNL     1       6.908  23.826  54.758  1.00  0.00     0.032 A 
HETATM   18  H   UNL     1       5.633  25.987  56.233  1.00  0.00     0.167 HD
HETATM   19  C   UNL     1       7.606  23.156  53.746  1.00  0.00     0.002 A 
HETATM   20  C   UNL     1       8.067  23.830  52.612  1.00  0.00     0.002 A 
ENDBRANCH   7  11
ENDBRANCH   1   7
BRANCH   3  21
HETATM   21  C   UNL     1       8.999  29.902  58.430  1.00  0.00     0.162 C 
BRANCH  21  22
HETATM   22  C   UNL     1       8.393  30.673  59.573  1.00  0.00    -0.040 A 
HETATM   23  C   UNL     1       7.300  31.525  59.358  1.00  0.00     0.011 A 
HETATM   24  C   UNL     1       6.769  32.289  60.402  1.00  0.00     0.030 A 
HETATM   25  C   UNL     1       7.313  32.210  61.683  1.00  0.00     0.036 A 
HETATM   26  C   UNL     1       8.369  31.320  61.915  1.00  0.00     0.030 A 
HETATM   27  C   UNL     1       8.908  30.561  60.869  1.00  0.00     0.011 A 
BRANCH  25  28
HETATM   28  N   UNL     1       6.871  32.989  62.772  1.00  0.00    -0.309 N 
HETATM   29  C   UNL     1       5.816  32.714  63.619  1.00  0.00     0.321 C 
HETATM   30  N   UNL     1       5.661  33.735  64.537  1.00  0.00    -0.339 N 
HETATM   31  O   UNL     1       5.073  31.744  63.565  1.00  0.00    -0.247 OA
HETATM   32  H   UNL     1       6.513  34.203  64.804  1.00  0.00     0.164 HD
HETATM   33  H   UNL     1       7.215  33.935  62.815  1.00  0.00     0.170 HD
BRANCH  30  34
HETATM   34  C   UNL     1       4.576  33.780  65.513  1.00  0.00     0.078 C 
HETATM   35  C   UNL     1       5.055  34.199  66.901  1.00  0.00     0.032 C 
HETATM   36  C   UNL     1       3.402  34.632  65.038  1.00  0.00     0.032 C 
ENDBRANCH  30  34
ENDBRANCH  25  28
ENDBRANCH  21  22
ENDBRANCH   3  21
TORSDOF 7
ENDMDL
MODEL 3
REMARK VINA RESULT:      -9.4      4.006     12.609
REMARK  7 active torsions:
REMARK  status: ('A' for Active; 'I' for Inactive)
REMARK    1  A    between atoms: C_2  and  C_3 
REMARK    2  A    between atoms: C_3  and  N_4 
REMARK    3  A    between atoms: C_3  and  C_22 
REMARK       I    between atoms: N_4  and  C_5 
REMARK       I    between atoms: C_5  and  N_6 
REMARK    4  A    between atoms: N_6  and  C_7 
REMARK    5  A    between atoms: C_7  and  C_8 
REMARK    6  A    between atoms: C_11  and  N_12 
REMARK       I    between atoms: N_12  and  C_13 
REMARK       I    between atoms: C_13  and  N_14 
REMARK    7  A    between atoms: N_14  and  C_15 
ROOT
HETATM    1  N   UNL     1       7.469  29.137  58.001  1.00  0.00    -0.331 N 
HETATM    2  C   UNL     1       7.366  27.837  57.604  1.00  0.00     0.317 C 
HETATM    3  N   UNL     1       6.207  27.615  56.921  1.00  0.00    -0.339 N 
HETATM    4  O   UNL     1       8.211  26.980  57.827  1.00  0.00    -0.247 OA
HETATM    5  H   UNL     1       6.891  29.824  57.536  1.00  0.00     0.165 HD
HETATM    6  H   UNL     1       5.431  28.212  57.172  1.00  0.00     0.164 HD
ENDROOT
BRANCH   1   7
HETATM    7  C   UNL     1       8.661  29.662  58.643  1.00  0.00     0.159 C 
BRANCH   7   8
HETATM    8  C   UNL     1       9.613  30.368  57.640  1.00  0.00     0.008 C 
HETATM    9  C   UNL     1      10.587  29.380  56.990  1.00  0.00     0.012 C 
HETATM   10  C   UNL     1      10.387  31.548  58.238  1.00  0.00     0.012 C 
ENDBRANCH   7   8
BRANCH   7  11
HETATM   11  C   UNL     1       8.179  30.571  59.739  1.00  0.00     0.128 A 
HETATM   12  N   UNL     1       7.247  31.503  59.642  1.00  0.00    -0.231 NA
HETATM   13  C   UNL     1       7.157  32.069  60.890  1.00  0.00     0.085 A 
HETATM   14  C   UNL     1       8.038  31.459  61.775  1.00  0.00     0.062 A 
HETATM   15  C   UNL     1       6.342  33.114  61.344  1.00  0.00     0.034 A 
HETATM   16  N   UNL     1       8.666  30.500  61.023  1.00  0.00    -0.341 N 
HETATM   17  C   UNL     1       8.161  31.834  63.115  1.00  0.00     0.032 A 
HETATM   18  H   UNL     1       9.370  29.857  61.353  1.00  0.00     0.167 HD
HETATM   19  C   UNL     1       7.340  32.881  63.551  1.00  0.00     0.002 A 
HETATM   20  C   UNL     1       6.445  33.513  62.683  1.00  0.00     0.002 A 
ENDBRANCH   7  11
ENDBRANCH   1   7
BRANCH   3  21
HETATM   21  C   UNL     1       5.885  26.295  56.428  1.00  0.00     0.162 C 
BRANCH  21  22
HETATM   22  C   UNL     1       5.780  26.295  54.925  1.00  0.00    -0.040 A 
HETATM   23  C   UNL     1       5.328  25.157  54.242  1.00  0.00     0.011 A 
HETATM   24  C   UNL     1       5.285  25.128  52.845  1.00  0.00     0.030 A 
HETATM   25  C   UNL     1       5.682  26.239  52.102  1.00  0.00     0.036 A 
HETATM   26  C   UNL     1       6.082  27.397  52.780  1.00  0.00     0.030 A 
HETATM   27  C   UNL     1       6.135  27.424  54.179  1.00  0.00     0.011 A 
BRANCH  25  28
HETATM   28  N   UNL     1       5.720  26.267  50.693  1.00  0.00    -0.309 N 
HETATM   29  C   UNL     1       4.883  26.971  49.851  1.00  0.00     0.321 C 
HETATM   30  N   UNL     1       5.202  26.710  48.532  1.00  0.00    -0.339 N 
HETATM   31  O   UNL     1       3.952  27.690  50.185  1.00  0.00    -0.247 OA
HETATM   32  H   UNL     1       6.177  26.522  48.358  1.00  0.00     0.164 HD
HETATM   33  H   UNL     1       6.268  25.549  50.246  1.00  0.00     0.170 HD
BRANCH  30  34
HETATM   34  C   UNL     1       4.441  27.237  47.403  1.00  0.00     0.078 C 
HETATM   35  C   UNL     1       3.043  26.630  47.306  1.00  0.00     0.032 C 
HETATM   36  C   UNL     1       4.397  28.762  47.392  1.00  0.00     0.032 C 
ENDBRANCH  30  34
ENDBRANCH  25  28
ENDBRANCH  21  22
ENDBRANCH   3  21
TORSDOF 7
ENDMDL
MODEL 4
REMARK VINA RESULT:      -9.4      1.425      1.751
REMARK  7 active torsions:
REMARK  status: ('A' for Active; 'I' for Inactive)
REMARK    1  A    between atoms: C_2  and  C_3 
REMARK    2  A    between atoms: C_3  and  N_4 
REMARK    3  A    between atoms: C_3  and  C_22 
REMARK       I    between atoms: N_4  and  C_5 
REMARK       I    between atoms: C_5  and  N_6 
REMARK    4  A    between atoms: N_6  and  C_7 
REMARK    5  A    between atoms: C_7  and  C_8 
REMARK    6  A    between atoms: C_11  and  N_12 
REMARK       I    between atoms: N_12  and  C_13 
REMARK       I    between atoms: C_13  and  N_14 
REMARK    7  A    between atoms: N_14  and  C_15 
ROOT
HETATM    1  N   UNL     1       7.169  30.844  60.130  1.00  0.00    -0.331 N 
HETATM    2  C   UNL     1       6.429  31.945  60.441  1.00  0.00     0.317 C 
HETATM    3  N   UNL     1       5.920  31.863  61.705  1.00  0.00    -0.339 N 
HETATM    4  O   UNL     1       6.249  32.890  59.685  1.00  0.00    -0.247 OA
HETATM    5  H   UNL     1       7.504  30.266  60.890  1.00  0.00     0.165 HD
HETATM    6  H   UNL     1       5.747  30.928  62.045  1.00  0.00     0.164 HD
ENDROOT
BRANCH   1   7
HETATM    7  C   UNL     1       7.918  30.734  58.891  1.00  0.00     0.159 C 
BRANCH   7   8
HETATM    8  C   UNL     1       9.451  30.845  59.113  1.00  0.00     0.008 C 
HETATM    9  C   UNL     1       9.795  31.881  60.188  1.00  0.00     0.012 C 
HETATM   10  C   UNL     1      10.247  31.134  57.835  1.00  0.00     0.012 C 
ENDBRANCH   7   8
BRANCH   7  11
HETATM   11  C   UNL     1       7.504  29.431  58.267  1.00  0.00     0.128 A 
HETATM   12  N   UNL     1       8.241  28.340  58.150  1.00  0.00    -0.231 NA
HETATM   13  C   UNL     1       7.444  27.421  57.514  1.00  0.00     0.085 A 
HETATM   14  C   UNL     1       6.186  27.952  57.252  1.00  0.00     0.062 A 
HETATM   15  C   UNL     1       7.727  26.105  57.125  1.00  0.00     0.034 A 
HETATM   16  N   UNL     1       6.245  29.227  57.753  1.00  0.00    -0.341 N 
HETATM   17  C   UNL     1       5.172  27.239  56.610  1.00  0.00     0.032 A 
HETATM   18  H   UNL     1       5.496  29.903  57.740  1.00  0.00     0.167 HD
HETATM   19  C   UNL     1       5.473  25.927  56.227  1.00  0.00     0.002 A 
HETATM   20  C   UNL     1       6.728  25.366  56.478  1.00  0.00     0.002 A 
ENDBRANCH   7  11
ENDBRANCH   1   7
BRANCH   3  21
HETATM   21  C   UNL     1       5.082  32.917  62.230  1.00  0.00     0.162 C 
BRANCH  21  22
HETATM   22  C   UNL     1       5.539  33.330  63.605  1.00  0.00    -0.040 A 
HETATM   23  C   UNL     1       6.905  33.463  63.891  1.00  0.00     0.011 A 
HETATM   24  C   UNL     1       7.340  33.787  65.180  1.00  0.00     0.030 A 
HETATM   25  C   UNL     1       6.419  33.995  66.206  1.00  0.00     0.036 A 
HETATM   26  C   UNL     1       5.052  33.918  65.911  1.00  0.00     0.030 A 
HETATM   27  C   UNL     1       4.615  33.584  64.624  1.00  0.00     0.011 A 
BRANCH  25  28
HETATM   28  N   UNL     1       6.780  34.270  67.540  1.00  0.00    -0.309 N 
HETATM   29  C   UNL     1       5.988  34.134  68.662  1.00  0.00     0.321 C 
HETATM   30  N   UNL     1       6.678  34.545  69.787  1.00  0.00    -0.339 N 
HETATM   31  O   UNL     1       4.825  33.758  68.692  1.00  0.00    -0.247 OA
HETATM   32  H   UNL     1       7.674  34.392  69.757  1.00  0.00     0.164 HD
HETATM   33  H   UNL     1       7.618  34.813  67.674  1.00  0.00     0.170 HD
BRANCH  30  34
HETATM   34  C   UNL     1       6.081  34.605  71.118  1.00  0.00     0.078 C 
HETATM   35  C   UNL     1       6.133  33.262  71.843  1.00  0.00     0.032 C 
HETATM   36  C   UNL     1       6.667  35.729  71.968  1.00  0.00     0.032 C 
ENDBRANCH  30  34
ENDBRANCH  25  28
ENDBRANCH  21  22
ENDBRANCH   3  21
TORSDOF 7
ENDMDL
MODEL 5
REMARK VINA RESULT:      -9.2      2.087      3.776
REMARK  7 active torsions:
REMARK  status: ('A' for Active; 'I' for Inactive)
REMARK    1  A    between atoms: C_2  and  C_3 
REMARK    2  A    between atoms: C_3  and  N_4 
REMARK    3  A    between atoms: C_3  and  C_22 
REMARK       I    between atoms: N_4  and  C_5 
REMARK       I    between atoms: C_5  and  N_6 
REMARK    4  A    between atoms: N_6  and  C_7 
REMARK    5  A    between atoms: C_7  and  C_8 
REMARK    6  A    between atoms: C_11  and  N_12 
REMARK       I    between atoms: N_12  and  C_13 
REMARK       I    between atoms: C_13  and  N_14 
REMARK    7  A    between atoms: N_14  and  C_15 
ROOT
HETATM    1  N   UNL     1       7.475  28.074  57.719  1.00  0.00    -0.331 N 
HETATM    2  C   UNL     1       8.285  29.158  57.877  1.00  0.00     0.317 C 
HETATM    3  N   UNL     1       7.806  30.004  58.834  1.00  0.00    -0.339 N 
HETATM    4  O   UNL     1       9.316  29.344  57.245  1.00  0.00    -0.247 OA
HETATM    5  H   UNL     1       6.825  27.853  58.463  1.00  0.00     0.165 HD
HETATM    6  H   UNL     1       6.803  30.002  58.955  1.00  0.00     0.164 HD
ENDROOT
BRANCH   1   7
HETATM    7  C   UNL     1       7.820  26.964  56.848  1.00  0.00     0.159 C 
BRANCH   7   8
HETATM    8  C   UNL     1       7.576  25.585  57.519  1.00  0.00     0.008 C 
HETATM    9  C   UNL     1       8.743  24.622  57.276  1.00  0.00     0.012 C 
HETATM   10  C   UNL     1       6.255  24.919  57.115  1.00  0.00     0.012 C 
ENDBRANCH   7   8
BRANCH   7  11
HETATM   11  C   UNL     1       7.021  27.158  55.589  1.00  0.00     0.128 A 
HETATM   12  N   UNL     1       5.958  27.928  55.437  1.00  0.00    -0.231 NA
HETATM   13  C   UNL     1       5.575  27.777  54.127  1.00  0.00     0.085 A 
HETATM   14  C   UNL     1       6.432  26.911  53.457  1.00  0.00     0.062 A 
HETATM   15  C   UNL     1       4.500  28.350  53.435  1.00  0.00     0.034 A 
HETATM   16  N   UNL     1       7.352  26.543  54.405  1.00  0.00    -0.341 N 
HETATM   17  C   UNL     1       6.279  26.572  52.111  1.00  0.00     0.032 A 
HETATM   18  H   UNL     1       8.132  25.920  54.260  1.00  0.00     0.167 HD
HETATM   19  C   UNL     1       5.199  27.153  51.436  1.00  0.00     0.002 A 
HETATM   20  C   UNL     1       4.322  28.027  52.084  1.00  0.00     0.002 A 
ENDBRANCH   7  11
ENDBRANCH   1   7
BRANCH   3  21
HETATM   21  C   UNL     1       8.502  31.231  59.146  1.00  0.00     0.162 C 
BRANCH  21  22
HETATM   22  C   UNL     1       8.012  31.809  60.449  1.00  0.00    -0.040 A 
HETATM   23  C   UNL     1       6.854  32.599  60.487  1.00  0.00     0.011 A 
HETATM   24  C   UNL     1       6.427  33.188  61.681  1.00  0.00     0.030 A 
HETATM   25  C   UNL     1       7.141  32.992  62.862  1.00  0.00     0.036 A 
HETATM   26  C   UNL     1       8.267  32.159  62.839  1.00  0.00     0.030 A 
HETATM   27  C   UNL     1       8.702  31.576  61.643  1.00  0.00     0.011 A 
BRANCH  25  28
HETATM   28  N   UNL     1       6.806  33.595  64.091  1.00  0.00    -0.309 N 
HETATM   29  C   UNL     1       5.661  33.393  64.833  1.00  0.00     0.321 C 
HETATM   30  N   UNL     1       5.671  34.199  65.956  1.00  0.00    -0.339 N 
HETATM   31  O   UNL     1       4.728  32.657  64.547  1.00  0.00    -0.247 OA
HETATM   32  H   UNL     1       6.584  34.388  66.338  1.00  0.00     0.164 HD
HETATM   33  H   UNL     1       7.347  34.404  64.353  1.00  0.00     0.170 HD
BRANCH  30  34
HETATM   34  C   UNL     1       4.557  34.279  66.896  1.00  0.00     0.078 C 
HETATM   35  C   UNL     1       5.021  34.309  68.351  1.00  0.00     0.032 C 
HETATM   36  C   UNL     1       3.612  35.435  66.581  1.00  0.00     0.032 C 
ENDBRANCH  30  34
ENDBRANCH  25  28
ENDBRANCH  21  22
ENDBRANCH   3  21
TORSDOF 7
ENDMDL
MODEL 6
REMARK VINA RESULT:      -9.1      4.260      7.411
REMARK  7 active torsions:
REMARK  status: ('A' for Active; 'I' for Inactive)
REMARK    1  A    between atoms: C_2  and  C_3 
REMARK    2  A    between atoms: C_3  and  N_4 
REMARK    3  A    between atoms: C_3  and  C_22 
REMARK       I    between atoms: N_4  and  C_5 
REMARK       I    between atoms: C_5  and  N_6 
REMARK    4  A    between atoms: N_6  and  C_7 
REMARK    5  A    between atoms: C_7  and  C_8 
REMARK    6  A    between atoms: C_11  and  N_12 
REMARK       I    between atoms: N_12  and  C_13 
REMARK       I    between atoms: C_13  and  N_14 
REMARK    7  A    between atoms: N_14  and  C_15 
ROOT
HETATM    1  N   UNL     1       5.060  28.750  51.716  1.00  0.00    -0.331 N 
HETATM    2  C   UNL     1       4.150  29.322  52.553  1.00  0.00     0.317 C 
HETATM    3  N   UNL     1       4.551  30.563  52.953  1.00  0.00    -0.339 N 
HETATM    4  O   UNL     1       3.102  28.791  52.897  1.00  0.00    -0.247 OA
HETATM    5  H   UNL     1       5.733  29.353  51.261  1.00  0.00     0.165 HD
HETATM    6  H   UNL     1       5.549  30.707  52.991  1.00  0.00     0.164 HD
ENDROOT
BRANCH   1   7
HETATM    7  C   UNL     1       4.819  27.479  51.055  1.00  0.00     0.159 C 
BRANCH   7   8
HETATM    8  C   UNL     1       5.273  27.488  49.571  1.00  0.00     0.008 C 
HETATM    9  C   UNL     1       5.471  28.915  49.046  1.00  0.00     0.012 C 
HETATM   10  C   UNL     1       4.348  26.709  48.629  1.00  0.00     0.012 C 
ENDBRANCH   7   8
BRANCH   7  11
HETATM   11  C   UNL     1       5.520  26.439  51.882  1.00  0.00     0.128 A 
HETATM   12  N   UNL     1       5.252  26.109  53.133  1.00  0.00    -0.231 NA
HETATM   13  C   UNL     1       6.152  25.124  53.458  1.00  0.00     0.085 A 
HETATM   14  C   UNL     1       6.976  24.829  52.378  1.00  0.00     0.062 A 
HETATM   15  C   UNL     1       6.326  24.430  54.663  1.00  0.00     0.034 A 
HETATM   16  N   UNL     1       6.544  25.668  51.383  1.00  0.00    -0.341 N 
HETATM   17  C   UNL     1       7.986  23.866  52.425  1.00  0.00     0.032 A 
HETATM   18  H   UNL     1       6.920  25.719  50.448  1.00  0.00     0.167 HD
HETATM   19  C   UNL     1       8.146  23.184  53.637  1.00  0.00     0.002 A 
HETATM   20  C   UNL     1       7.333  23.459  54.739  1.00  0.00     0.002 A 
ENDBRANCH   7  11
ENDBRANCH   1   7
BRANCH   3  21
HETATM   21  C   UNL     1       3.741  31.340  53.864  1.00  0.00     0.162 C 
BRANCH  21  22
HETATM   22  C   UNL     1       4.327  31.318  55.252  1.00  0.00    -0.040 A 
HETATM   23  C   UNL     1       4.468  30.109  55.947  1.00  0.00     0.011 A 
HETATM   24  C   UNL     1       4.955  30.087  57.258  1.00  0.00     0.030 A 
HETATM   25  C   UNL     1       5.319  31.271  57.897  1.00  0.00     0.036 A 
HETATM   26  C   UNL     1       5.233  32.475  57.187  1.00  0.00     0.030 A 
HETATM   27  C   UNL     1       4.736  32.500  55.878  1.00  0.00     0.011 A 
BRANCH  25  28
HETATM   28  N   UNL     1       5.765  31.336  59.232  1.00  0.00    -0.309 N 
HETATM   29  C   UNL     1       7.017  31.711  59.676  1.00  0.00     0.321 C 
HETATM   30  N   UNL     1       7.088  31.605  61.052  1.00  0.00    -0.339 N 
HETATM   31  O   UNL     1       7.965  32.046  58.981  1.00  0.00    -0.247 OA
HETATM   32  H   UNL     1       6.223  31.779  61.540  1.00  0.00     0.164 HD
HETATM   33  H   UNL     1       5.193  30.868  59.918  1.00  0.00     0.170 HD
BRANCH  30  34
HETATM   34  C   UNL     1       8.310  31.847  61.814  1.00  0.00     0.078 C 
HETATM   35  C   UNL     1       8.030  32.426  63.199  1.00  0.00     0.032 C 
HETATM   36  C   UNL     1       9.204  30.612  61.887  1.00  0.00     0.032 C 
ENDBRANCH  30  34
ENDBRANCH  25  28
ENDBRANCH  21  22
ENDBRANCH   3  21
TORSDOF 7
ENDMDL
MODEL 7
REMARK VINA RESULT:      -8.9      3.832     12.424
REMARK  7 active torsions:
REMARK  status: ('A' for Active; 'I' for Inactive)
REMARK    1  A    between atoms: C_2  and  C_3 
REMARK    2  A    between atoms: C_3  and  N_4 
REMARK    3  A    between atoms: C_3  and  C_22 
REMARK       I    between atoms: N_4  and  C_5 
REMARK       I    between atoms: C_5  and  N_6 
REMARK    4  A    between atoms: N_6  and  C_7 
REMARK    5  A    between atoms: C_7  and  C_8 
REMARK    6  A    between atoms: C_11  and  N_12 
REMARK       I    between atoms: N_12  and  C_13 
REMARK       I    between atoms: C_13  and  N_14 
REMARK    7  A    between atoms: N_14  and  C_15 
ROOT
HETATM    1  N   UNL     1       5.607  30.494  58.200  1.00  0.00    -0.331 N 
HETATM    2  C   UNL     1       6.592  29.668  57.748  1.00  0.00     0.317 C 
HETATM    3  N   UNL     1       6.169  28.372  57.691  1.00  0.00    -0.339 N 
HETATM    4  O   UNL     1       7.712  30.043  57.428  1.00  0.00    -0.247 OA
HETATM    5  H   UNL     1       4.652  30.162  58.160  1.00  0.00     0.165 HD
HETATM    6  H   UNL     1       5.454  28.117  58.356  1.00  0.00     0.164 HD
ENDROOT
BRANCH   1   7
HETATM    7  C   UNL     1       5.761  31.937  58.242  1.00  0.00     0.159 C 
BRANCH   7   8
HETATM    8  C   UNL     1       4.488  32.683  57.757  1.00  0.00     0.008 C 
HETATM    9  C   UNL     1       3.549  31.756  56.979  1.00  0.00     0.012 C 
HETATM   10  C   UNL     1       4.779  33.943  56.934  1.00  0.00     0.012 C 
ENDBRANCH   7   8
BRANCH   7  11
HETATM   11  C   UNL     1       6.141  32.276  59.657  1.00  0.00     0.128 A 
HETATM   12  N   UNL     1       5.532  33.136  60.455  1.00  0.00    -0.231 NA
HETATM   13  C   UNL     1       6.237  33.109  61.633  1.00  0.00     0.085 A 
HETATM   14  C   UNL     1       7.287  32.202  61.563  1.00  0.00     0.062 A 
HETATM   15  C   UNL     1       6.038  33.838  62.814  1.00  0.00     0.034 A 
HETATM   16  N   UNL     1       7.195  31.674  60.301  1.00  0.00    -0.341 N 
HETATM   17  C   UNL     1       8.172  31.970  62.618  1.00  0.00     0.032 A 
HETATM   18  H   UNL     1       7.803  30.970  59.909  1.00  0.00     0.167 HD
HETATM   19  C   UNL     1       7.960  32.708  63.789  1.00  0.00     0.002 A 
HETATM   20  C   UNL     1       6.912  33.627  63.889  1.00  0.00     0.002 A 
ENDBRANCH   7  11
ENDBRANCH   1   7
BRANCH   3  21
HETATM   21  C   UNL     1       7.066  27.324  57.259  1.00  0.00     0.162 C 
BRANCH  21  22
HETATM   22  C   UNL     1       6.752  26.896  55.849  1.00  0.00    -0.040 A 
HETATM   23  C   UNL     1       7.467  27.429  54.768  1.00  0.00     0.011 A 
HETATM   24  C   UNL     1       7.142  27.083  53.452  1.00  0.00     0.030 A 
HETATM   25  C   UNL     1       6.103  26.191  53.192  1.00  0.00     0.036 A 
HETATM   26  C   UNL     1       5.422  25.614  54.271  1.00  0.00     0.030 A 
HETATM   27  C   UNL     1       5.740  25.967  55.588  1.00  0.00     0.011 A 
BRANCH  25  28
HETATM   28  N   UNL     1       5.681  25.837  51.895  1.00  0.00    -0.309 N 
HETATM   29  C   UNL     1       4.969  26.619  51.007  1.00  0.00     0.321 C 
HETATM   30  N   UNL     1       4.701  25.908  49.853  1.00  0.00    -0.339 N 
HETATM   31  O   UNL     1       4.573  27.760  51.198  1.00  0.00    -0.247 OA
HETATM   32  H   UNL     1       5.400  25.229  49.597  1.00  0.00     0.164 HD
HETATM   33  H   UNL     1       5.712  24.855  51.666  1.00  0.00     0.170 HD
BRANCH  30  34
HETATM   34  C   UNL     1       3.888  26.432  48.759  1.00  0.00     0.078 C 
HETATM   35  C   UNL     1       4.713  27.222  47.744  1.00  0.00     0.032 C 
HETATM   36  C   UNL     1       3.051  25.348  48.085  1.00  0.00     0.032 C 
ENDBRANCH  30  34
ENDBRANCH  25  28
ENDBRANCH  21  22
ENDBRANCH   3  21
TORSDOF 7
ENDMDL
MODEL 8
REMARK VINA RESULT:      -8.7      8.584     14.223
REMARK  7 active torsions:
REMARK  status: ('A' for Active; 'I' for Inactive)
REMARK    1  A    between atoms: C_2  and  C_3 
REMARK    2  A    between atoms: C_3  and  N_4 
REMARK    3  A    between atoms: C_3  and  C_22 
REMARK       I    between atoms: N_4  and  C_5 
REMARK       I    between atoms: C_5  and  N_6 
REMARK    4  A    between atoms: N_6  and  C_7 
REMARK    5  A    between atoms: C_7  and  C_8 
REMARK    6  A    between atoms: C_11  and  N_12 
REMARK       I    between atoms: N_12  and  C_13 
REMARK       I    between atoms: C_13  and  N_14 
REMARK    7  A    between atoms: N_14  and  C_15 
ROOT
HETATM    1  N   UNL     1       6.041  26.258  54.452  1.00  0.00    -0.331 N 
HETATM    2  C   UNL     1       6.143  27.422  53.750  1.00  0.00     0.317 C 
HETATM    3  N   UNL     1       5.006  27.677  53.041  1.00  0.00    -0.339 N 
HETATM    4  O   UNL     1       7.128  28.148  53.761  1.00  0.00    -0.247 OA
HETATM    5  H   UNL     1       5.116  25.883  54.619  1.00  0.00     0.165 HD
HETATM    6  H   UNL     1       4.481  26.865  52.750  1.00  0.00     0.164 HD
ENDROOT
BRANCH   1   7
HETATM    7  C   UNL     1       7.067  25.817  55.381  1.00  0.00     0.159 C 
BRANCH   7   8
HETATM    8  C   UNL     1       6.616  25.935  56.862  1.00  0.00     0.008 C 
HETATM    9  C   UNL     1       5.090  25.979  56.989  1.00  0.00     0.012 C 
HETATM   10  C   UNL     1       7.237  27.120  57.610  1.00  0.00     0.012 C 
ENDBRANCH   7   8
BRANCH   7  11
HETATM   11  C   UNL     1       7.416  24.411  54.980  1.00  0.00     0.128 A 
HETATM   12  N   UNL     1       7.512  23.940  53.749  1.00  0.00    -0.231 NA
HETATM   13  C   UNL     1       7.845  22.615  53.884  1.00  0.00     0.085 A 
HETATM   14  C   UNL     1       7.974  22.270  55.225  1.00  0.00     0.062 A 
HETATM   15  C   UNL     1       8.055  21.637  52.902  1.00  0.00     0.034 A 
HETATM   16  N   UNL     1       7.711  23.434  55.901  1.00  0.00    -0.341 N 
HETATM   17  C   UNL     1       8.305  20.984  55.657  1.00  0.00     0.032 A 
HETATM   18  H   UNL     1       7.723  23.550  56.903  1.00  0.00     0.167 HD
HETATM   19  C   UNL     1       8.509  20.021  54.662  1.00  0.00     0.002 A 
HETATM   20  C   UNL     1       8.386  20.338  53.307  1.00  0.00     0.002 A 
ENDBRANCH   7  11
ENDBRANCH   1   7
BRANCH   3  21
HETATM   21  C   UNL     1       4.909  28.853  52.206  1.00  0.00     0.162 C 
BRANCH  21  22
HETATM   22  C   UNL     1       3.939  28.629  51.075  1.00  0.00    -0.040 A 
HETATM   23  C   UNL     1       2.660  29.203  51.109  1.00  0.00     0.011 A 
HETATM   24  C   UNL     1       1.733  28.952  50.093  1.00  0.00     0.030 A 
HETATM   25  C   UNL     1       2.068  28.130  49.018  1.00  0.00     0.036 A 
HETATM   26  C   UNL     1       3.362  27.599  48.952  1.00  0.00     0.030 A 
HETATM   27  C   UNL     1       4.289  27.841  49.973  1.00  0.00     0.011 A 
BRANCH  25  28
HETATM   28  N   UNL     1       1.172  27.784  47.986  1.00  0.00    -0.309 N 
HETATM   29  C   UNL     1       0.878  28.521  46.857  1.00  0.00     0.321 C 
HETATM   30  N   UNL     1      -0.083  27.876  46.102  1.00  0.00    -0.339 N 
HETATM   31  O   UNL     1       1.340  29.613  46.559  1.00  0.00    -0.247 OA
HETATM   32  H   UNL     1      -0.058  26.869  46.148  1.00  0.00     0.164 HD
HETATM   33  H   UNL     1       0.529  27.035  48.185  1.00  0.00     0.170 HD
BRANCH  30  34
HETATM   34  C   UNL     1      -0.669  28.445  44.892  1.00  0.00     0.078 C 
HETATM   35  C   UNL     1      -0.956  27.388  43.828  1.00  0.00     0.032 C 
HETATM   36  C   UNL     1      -1.900  29.298  45.188  1.00  0.00     0.032 C 
ENDBRANCH  30  34
ENDBRANCH  25  28
ENDBRANCH  21  22
ENDBRANCH   3  21
TORSDOF 7
ENDMDL
MODEL 9
REMARK VINA RESULT:      -8.5      3.072      4.820
REMARK  7 active torsions:
REMARK  status: ('A' for Active; 'I' for Inactive)
REMARK    1  A    between atoms: C_2  and  C_3 
REMARK    2  A    between atoms: C_3  and  N_4 
REMARK    3  A    between atoms: C_3  and  C_22 
REMARK       I    between atoms: N_4  and  C_5 
REMARK       I    between atoms: C_5  and  N_6 
REMARK    4  A    between atoms: N_6  and  C_7 
REMARK    5  A    between atoms: C_7  and  C_8 
REMARK    6  A    between atoms: C_11  and  N_12 
REMARK       I    between atoms: N_12  and  C_13 
REMARK       I    between atoms: C_13  and  N_14 
REMARK    7  A    between atoms: N_14  and  C_15 
ROOT
HETATM    1  N   UNL     1       6.690  28.265  57.476  1.00  0.00    -0.331 N 
HETATM    2  C   UNL     1       7.660  29.212  57.609  1.00  0.00     0.317 C 
HETATM    3  N   UNL     1       7.965  29.432  58.921  1.00  0.00    -0.339 N 
HETATM    4  O   UNL     1       8.195  29.786  56.670  1.00  0.00    -0.247 OA
HETATM    5  H   UNL     1       6.518  27.646  58.258  1.00  0.00     0.165 HD
HETATM    6  H   UNL     1       7.214  29.270  59.576  1.00  0.00     0.164 HD
ENDROOT
BRANCH   1   7
HETATM    7  C   UNL     1       6.267  27.760  56.181  1.00  0.00     0.159 C 
BRANCH   7   8
HETATM    8  C   UNL     1       5.623  26.351  56.276  1.00  0.00     0.008 C 
HETATM    9  C   UNL     1       6.345  25.464  57.297  1.00  0.00     0.012 C 
HETATM   10  C   UNL     1       5.518  25.620  54.932  1.00  0.00     0.012 C 
ENDBRANCH   7   8
BRANCH   7  11
HETATM   11  C   UNL     1       5.339  28.796  55.612  1.00  0.00     0.128 A 
HETATM   12  N   UNL     1       5.239  29.157  54.344  1.00  0.00    -0.231 NA
HETATM   13  C   UNL     1       4.271  30.131  54.312  1.00  0.00     0.085 A 
HETATM   14  C   UNL     1       3.754  30.358  55.582  1.00  0.00     0.062 A 
HETATM   15  C   UNL     1       3.778  30.870  53.228  1.00  0.00     0.034 A 
HETATM   16  N   UNL     1       4.439  29.487  56.388  1.00  0.00    -0.341 N 
HETATM   17  C   UNL     1       2.755  31.298  55.845  1.00  0.00     0.032 A 
HETATM   18  H   UNL     1       4.311  29.377  57.383  1.00  0.00     0.167 HD
HETATM   19  C   UNL     1       2.276  32.028  54.751  1.00  0.00     0.002 A 
HETATM   20  C   UNL     1       2.777  31.821  53.463  1.00  0.00     0.002 A 
ENDBRANCH   7  11
ENDBRANCH   1   7
BRANCH   3  21
HETATM   21  C   UNL     1       8.956  30.417  59.290  1.00  0.00     0.162 C 
BRANCH  21  22
HETATM   22  C   UNL     1       8.523  31.180  60.515  1.00  0.00    -0.040 A 
HETATM   23  C   UNL     1       8.820  30.696  61.797  1.00  0.00     0.011 A 
HETATM   24  C   UNL     1       8.370  31.367  62.939  1.00  0.00     0.030 A 
HETATM   25  C   UNL     1       7.624  32.538  62.823  1.00  0.00     0.036 A 
HETATM   26  C   UNL     1       7.373  33.055  61.546  1.00  0.00     0.030 A 
HETATM   27  C   UNL     1       7.814  32.380  60.401  1.00  0.00     0.011 A 
BRANCH  25  28
HETATM   28  N   UNL     1       7.089  33.239  63.922  1.00  0.00    -0.309 N 
HETATM   29  C   UNL     1       5.829  33.099  64.467  1.00  0.00     0.321 C 
HETATM   30  N   UNL     1       5.655  33.992  65.507  1.00  0.00    -0.339 N 
HETATM   31  O   UNL     1       4.949  32.342  64.081  1.00  0.00    -0.247 OA
HETATM   32  H   UNL     1       6.491  34.211  66.027  1.00  0.00     0.164 HD
HETATM   33  H   UNL     1       7.588  34.067  64.211  1.00  0.00     0.170 HD
BRANCH  30  34
HETATM   34  C   UNL     1       4.396  34.149  66.229  1.00  0.00     0.078 C 
HETATM   35  C   UNL     1       4.576  34.069  67.744  1.00  0.00     0.032 C 
HETATM   36  C   UNL     1       3.641  35.409  65.815  1.00  0.00     0.032 C 
ENDBRANCH  30  34
ENDBRANCH  25  28
ENDBRANCH  21  22
ENDBRANCH   3  21
TORSDOF 7
ENDMDL
MODEL 10
REMARK VINA RESULT:      -8.4      5.363     10.137
REMARK  7 active torsions:
REMARK  status: ('A' for Active; 'I' for Inactive)
REMARK    1  A    between atoms: C_2  and  C_3 
REMARK    2  A    between atoms: C_3  and  N_4 
REMARK    3  A    between atoms: C_3  and  C_22 
REMARK       I    between atoms: N_4  and  C_5 
REMARK       I    between atoms: C_5  and  N_6 
REMARK    4  A    between atoms: N_6  and  C_7 
REMARK    5  A    between atoms: C_7  and  C_8 
REMARK    6  A    between atoms: C_11  and  N_12 
REMARK       I    between atoms: N_12  and  C_13 
REMARK       I    between atoms: C_13  and  N_14 
REMARK    7  A    between atoms: N_14  and  C_15 
ROOT
HETATM    1  N   UNL     1       4.443  26.092  50.938  1.00  0.00    -0.331 N 
HETATM    2  C   UNL     1       5.484  25.580  51.653  1.00  0.00     0.317 C 
HETATM    3  N   UNL     1       5.051  24.951  52.784  1.00  0.00    -0.339 N 
HETATM    4  O   UNL     1       6.658  25.668  51.319  1.00  0.00    -0.247 OA
HETATM    5  H   UNL     1       3.516  25.729  51.122  1.00  0.00     0.165 HD
HETATM    6  H   UNL     1       4.191  25.305  53.178  1.00  0.00     0.164 HD
ENDROOT
BRANCH   1   7
HETATM    7  C   UNL     1       4.621  26.706  49.635  1.00  0.00     0.159 C 
BRANCH   7   8
HETATM    8  C   UNL     1       3.444  26.401  48.670  1.00  0.00     0.008 C 
HETATM    9  C   UNL     1       3.304  24.899  48.401  1.00  0.00     0.012 C 
HETATM   10  C   UNL     1       3.510  27.166  47.342  1.00  0.00     0.012 C 
ENDBRANCH   7   8
BRANCH   7  11
HETATM   11  C   UNL     1       4.812  28.176  49.888  1.00  0.00     0.128 A 
HETATM   12  N   UNL     1       5.689  28.972  49.302  1.00  0.00    -0.231 NA
HETATM   13  C   UNL     1       5.492  30.212  49.858  1.00  0.00     0.085 A 
HETATM   14  C   UNL     1       4.462  30.180  50.791  1.00  0.00     0.062 A 
HETATM   15  C   UNL     1       6.160  31.420  49.616  1.00  0.00     0.034 A 
HETATM   16  N   UNL     1       4.036  28.877  50.780  1.00  0.00    -0.341 N 
HETATM   17  C   UNL     1       4.047  31.300  51.513  1.00  0.00     0.032 A 
HETATM   18  H   UNL     1       3.287  28.495  51.338  1.00  0.00     0.167 HD
HETATM   19  C   UNL     1       4.726  32.498  51.259  1.00  0.00     0.002 A 
HETATM   20  C   UNL     1       5.766  32.560  50.328  1.00  0.00     0.002 A 
ENDBRANCH   7  11
ENDBRANCH   1   7
BRANCH   3  21
HETATM   21  C   UNL     1       5.996  24.355  53.701  1.00  0.00     0.162 C 
BRANCH  21  22
HETATM   22  C   UNL     1       6.305  25.295  54.838  1.00  0.00    -0.040 A 
HETATM   23  C   UNL     1       5.337  25.579  55.811  1.00  0.00     0.011 A 
HETATM   24  C   UNL     1       5.595  26.495  56.835  1.00  0.00     0.030 A 
HETATM   25  C   UNL     1       6.829  27.139  56.912  1.00  0.00     0.036 A 
HETATM   26  C   UNL     1       7.818  26.818  55.975  1.00  0.00     0.030 A 
HETATM   27  C   UNL     1       7.558  25.907  54.943  1.00  0.00     0.011 A 
BRANCH  25  28
HETATM   28  N   UNL     1       7.145  28.115  57.879  1.00  0.00    -0.309 N 
HETATM   29  C   UNL     1       7.042  29.485  57.746  1.00  0.00     0.321 C 
HETATM   30  N   UNL     1       7.488  30.112  58.894  1.00  0.00    -0.339 N 
HETATM   31  O   UNL     1       6.665  30.093  56.754  1.00  0.00    -0.247 OA
HETATM   32  H   UNL     1       7.336  29.599  59.748  1.00  0.00     0.164 HD
HETATM   33  H   UNL     1       7.694  27.804  58.666  1.00  0.00     0.170 HD
BRANCH  30  34
HETATM   34  C   UNL     1       7.588  31.562  59.029  1.00  0.00     0.078 C 
HETATM   35  C   UNL     1       6.385  32.166  59.752  1.00  0.00     0.032 C 
HETATM   36  C   UNL     1       8.906  31.998  59.663  1.00  0.00     0.032 C 
ENDBRANCH  30  34
ENDBRANCH  25  28
ENDBRANCH  21  22
ENDBRANCH   3  21
TORSDOF 7
ENDMDL
