MODEL 1
REMARK VINA RESULT:      -8.7      0.000      0.000
REMARK  6 active torsions:
REMARK  status: ('A' for Active; 'I' for Inactive)
REMARK    1  A    between atoms: C_4  and  C_5 
REMARK    2  A    between atoms: C_5  and  N_6 
REMARK    3  A    between atoms: C_5  and  C_10 
REMARK    4  A    between atoms: C_10  and  N_11 
REMARK       I    between atoms: N_11  and  C_12 
REMARK       I    between atoms: C_12  and  N_13 
REMARK    5  A    between atoms: N_13  and  C_14 
REMARK    6  A    between atoms: C_17  and  N_18 
ROOT
HETATM    1  N   UNL     1       5.930  28.947  57.697  1.00  0.00    -0.340 N 
HETATM    2  C   UNL     1       6.391  28.099  56.709  1.00  0.00     0.320 C 
HETATM    3  N   UNL     1       6.238  26.787  57.073  1.00  0.00    -0.309 N 
HETATM    4  O   UNL     1       6.848  28.548  55.666  1.00  0.00    -0.247 OA
HETATM    5  H   UNL     1       5.980  28.576  58.637  1.00  0.00     0.164 HD
HETATM    6  H   UNL     1       5.627  26.611  57.859  1.00  0.00     0.170 HD
ENDROOT
BRANCH   1   7
HETATM    7  C   UNL     1       6.121  30.384  57.546  1.00  0.00     0.164 C 
BRANCH   7   8
HETATM    8  C   UNL     1       6.698  31.109  58.807  1.00  0.00     0.261 C 
BRANCH   8   9
HETATM    9  C   UNL     1       8.190  31.181  58.677  1.00  0.00     0.085 A 
HETATM   10  O   UNL     1       8.754  30.330  57.768  1.00  0.00    -0.318 OA
HETATM   11  C   UNL     1      10.100  30.532  57.819  1.00  0.00     0.049 A 
HETATM   12  C   UNL     1      10.934  29.685  56.940  1.00  0.00     0.076 C 
HETATM   13  C   UNL     1      10.396  31.529  58.725  1.00  0.00     0.035 A 
HETATM   14  C   UNL     1       9.163  31.948  59.280  1.00  0.00     0.037 A 
ENDBRANCH   8   9
BRANCH   8  15
HETATM   15  N   UNL     1       6.105  32.530  58.956  1.00  0.00    -0.067 N 
HETATM   16  H   UNL     1       6.894  33.169  58.793  1.00  0.00     0.280 HD
HETATM   17  C   UNL     1       5.010  32.841  57.977  1.00  0.00     0.270 C 
HETATM   18  C   UNL     1       5.635  32.794  60.366  1.00  0.00     0.270 C 
ENDBRANCH   8  15
ENDBRANCH   7   8
ENDBRANCH   1   7
BRANCH   3  19
HETATM   19  C   UNL     1       6.747  25.646  56.421  1.00  0.00     0.036 A 
HETATM   20  C   UNL     1       7.892  24.963  56.825  1.00  0.00     0.032 A 
HETATM   21  C   UNL     1       8.304  23.797  56.160  1.00  0.00     0.032 A 
HETATM   22  C   UNL     1       7.578  23.297  55.074  1.00  0.00     0.040 A 
HETATM   23  C   UNL     1       6.427  23.989  54.669  1.00  0.00     0.032 A 
HETATM   24  C   UNL     1       6.020  25.152  55.335  1.00  0.00     0.032 A 
BRANCH  22  25
HETATM   25  N   UNL     1       7.949  22.087  54.409  1.00  0.00    -0.309 N 
HETATM   26  C   UNL     1       8.101  20.793  54.912  1.00  0.00     0.106 A 
HETATM   27  C   UNL     1       8.079  20.399  56.345  1.00  0.00     0.091 C 
HETATM   28  N   UNL     1       8.373  19.932  53.948  1.00  0.00    -0.246 NA
HETATM   29  C   UNL     1       8.459  20.658  52.802  1.00  0.00     0.136 A 
HETATM   30  C   UNL     1       8.231  21.985  53.058  1.00  0.00     0.118 A 
ENDBRANCH  22  25
ENDBRANCH   3  19
TORSDOF 6
ENDMDL
MODEL 2
REMARK VINA RESULT:      -8.5      1.615      2.279
REMARK  6 active torsions:
REMARK  status: ('A' for Active; 'I' for Inactive)
REMARK    1  A    between atoms: C_4  and  C_5 
REMARK    2  A    between atoms: C_5  and  N_6 
REMARK    3  A    between atoms: C_5  and  C_10 
REMARK    4  A    between atoms: C_10  and  N_11 
REMARK       I    between atoms: N_11  and  C_12 
REMARK       I    between atoms: C_12  and  N_13 
REMARK    5  A    between atoms: N_13  and  C_14 
REMARK    6  A    between atoms: C_17  and  N_18 
ROOT
HETATM    1  N   UNL     1       7.233  28.903  58.401  1.00  0.00    -0.340 N 
HETATM    2  C   UNL     1       7.390  28.063  57.316  1.00  0.00     0.320 C 
HETATM    3  N   UNL     1       7.338  26.748  57.697  1.00  0.00    -0.309 N 
HETATM    4  O   UNL     1       7.538  28.520  56.190  1.00  0.00    -0.247 OA
HETATM    5  H   UNL     1       7.545  28.522  59.286  1.00  0.00     0.164 HD
HETATM    6  H   UNL     1       6.974  26.566  58.622  1.00  0.00     0.170 HD
ENDROOT
BRANCH   1   7
HETATM    7  C   UNL     1       7.383  30.341  58.215  1.00  0.00     0.164 C 
BRANCH   7   8
HETATM    8  C   UNL     1       6.665  31.224  59.288  1.00  0.00     0.261 C 
BRANCH   8   9
HETATM    9  C   UNL     1       7.667  31.621  60.329  1.00  0.00     0.085 A 
HETATM   10  O   UNL     1       7.167  31.876  61.576  1.00  0.00    -0.318 OA
HETATM   11  C   UNL     1       8.221  32.239  62.358  1.00  0.00     0.049 A 
HETATM   12  C   UNL     1       7.917  32.605  63.758  1.00  0.00     0.076 C 
HETATM   13  C   UNL     1       9.393  32.182  61.633  1.00  0.00     0.035 A 
HETATM   14  C   UNL     1       9.035  31.783  60.323  1.00  0.00     0.037 A 
ENDBRANCH   8   9
BRANCH   8  15
HETATM   15  N   UNL     1       6.034  32.481  58.646  1.00  0.00    -0.067 N 
HETATM   16  H   UNL     1       6.811  33.147  58.537  1.00  0.00     0.280 HD
HETATM   17  C   UNL     1       5.406  32.234  57.305  1.00  0.00     0.270 C 
HETATM   18  C   UNL     1       5.041  33.143  59.572  1.00  0.00     0.270 C 
ENDBRANCH   8  15
ENDBRANCH   7   8
ENDBRANCH   1   7
BRANCH   3  19
HETATM   19  C   UNL     1       7.635  25.612  56.918  1.00  0.00     0.036 A 
HETATM   20  C   UNL     1       8.817  24.883  57.022  1.00  0.00     0.032 A 
HETATM   21  C   UNL     1       9.016  23.724  56.252  1.00  0.00     0.032 A 
HETATM   22  C   UNL     1       8.034  23.280  55.362  1.00  0.00     0.040 A 
HETATM   23  C   UNL     1       6.847  24.018  55.258  1.00  0.00     0.032 A 
HETATM   24  C   UNL     1       6.653  25.173  56.027  1.00  0.00     0.032 A 
BRANCH  22  25
HETATM   25  N   UNL     1       8.192  22.078  54.601  1.00  0.00    -0.309 N 
HETATM   26  C   UNL     1       8.467  20.776  55.022  1.00  0.00     0.106 A 
HETATM   27  C   UNL     1       8.847  20.358  56.397  1.00  0.00     0.091 C 
HETATM   28  N   UNL     1       8.449  19.929  54.009  1.00  0.00    -0.246 NA
HETATM   29  C   UNL     1       8.215  20.674  52.895  1.00  0.00     0.136 A 
HETATM   30  C   UNL     1       8.081  21.998  53.225  1.00  0.00     0.118 A 
ENDBRANCH  22  25
ENDBRANCH   3  19
TORSDOF 6
ENDMDL
MODEL 3
REMARK VINA RESULT:      -8.5      4.015     11.050
REMARK  6 active torsions:
REMARK  status: ('A' for Active; 'I' for Inactive)
REMARK    1  A    between atoms: C_4  and  C_5 
REMARK    2  A    between atoms: C_5  and  N_6 
REMARK    3  A    between atoms: C_5  and  C_10 
REMARK    4  A    between atoms: C_10  and  N_11 
REMARK       I    between atoms: N_11  and  C_12 
REMARK       I    between atoms: C_12  and  N_13 
REMARK    5  A    between atoms: N_13  and  C_14 
REMARK    6  A    between atoms: C_17  and  N_18 
ROOT
HETATM    1  N   UNL     1       8.152  30.038  59.702  1.00  0.00    -0.340 N 
HETATM    2  C   UNL     1       8.028  31.165  60.489  1.00  0.00     0.320 C 
HETATM    3  N   UNL     1       7.550  30.849  61.735  1.00  0.00    -0.309 N 
HETATM    4  O   UNL     1       8.342  32.266  60.056  1.00  0.00    -0.247 OA
HETATM    5  H   UNL     1       7.510  29.287  59.926  1.00  0.00     0.164 HD
HETATM    6  H   UNL     1       7.576  29.871  61.987  1.00  0.00     0.170 HD
ENDROOT
BRANCH   1   7
HETATM    7  C   UNL     1       8.529  30.185  58.302  1.00  0.00     0.164 C 
BRANCH   7   8
HETATM    8  C   UNL     1       7.375  29.924  57.277  1.00  0.00     0.261 C 
BRANCH   8   9
HETATM    9  C   UNL     1       7.503  28.524  56.760  1.00  0.00     0.085 A 
HETATM   10  O   UNL     1       7.860  27.576  57.678  1.00  0.00    -0.318 OA
HETATM   11  C   UNL     1       7.945  26.391  57.010  1.00  0.00     0.049 A 
HETATM   12  C   UNL     1       8.360  25.211  57.799  1.00  0.00     0.076 C 
HETATM   13  C   UNL     1       7.609  26.568  55.684  1.00  0.00     0.035 A 
HETATM   14  C   UNL     1       7.325  27.945  55.522  1.00  0.00     0.037 A 
ENDBRANCH   8   9
BRANCH   8  15
HETATM   15  N   UNL     1       5.989  30.129  57.932  1.00  0.00    -0.067 N 
HETATM   16  H   UNL     1       6.103  29.817  58.906  1.00  0.00     0.280 HD
HETATM   17  C   UNL     1       5.512  31.552  57.924  1.00  0.00     0.270 C 
HETATM   18  C   UNL     1       4.944  29.225  57.321  1.00  0.00     0.270 C 
ENDBRANCH   8  15
ENDBRANCH   7   8
ENDBRANCH   1   7
BRANCH   3  19
HETATM   19  C   UNL     1       7.123  31.734  62.744  1.00  0.00     0.036 A 
HETATM   20  C   UNL     1       7.984  32.500  63.526  1.00  0.00     0.032 A 
HETATM   21  C   UNL     1       7.480  33.406  64.473  1.00  0.00     0.032 A 
HETATM   22  C   UNL     1       6.102  33.557  64.657  1.00  0.00     0.040 A 
HETATM   23  C   UNL     1       5.238  32.782  63.870  1.00  0.00     0.032 A 
HETATM   24  C   UNL     1       5.745  31.879  62.927  1.00  0.00     0.032 A 
BRANCH  22  25
HETATM   25  N   UNL     1       5.562  34.506  65.581  1.00  0.00    -0.309 N 
HETATM   26  C   UNL     1       4.933  35.731  65.349  1.00  0.00     0.106 A 
HETATM   27  C   UNL     1       4.836  36.436  64.045  1.00  0.00     0.091 C 
HETATM   28  N   UNL     1       4.499  36.268  66.475  1.00  0.00    -0.246 NA
HETATM   29  C   UNL     1       4.886  35.427  67.472  1.00  0.00     0.136 A 
HETATM   30  C   UNL     1       5.563  34.353  66.956  1.00  0.00     0.118 A 
ENDBRANCH  22  25
ENDBRANCH   3  19
TORSDOF 6
ENDMDL
MODEL 4
REMARK VINA RESULT:      -8.4      1.467      3.008
REMARK  6 active torsions:
REMARK  status: ('A' for Active; 'I' for Inactive)
REMARK    1  A    between atoms: C_4  and  C_5 
REMARK    2  A    between atoms: C_5  and  N_6 
REMARK    3  A    between atoms: C_5  and  C_10 
REMARK    4  A    between atoms: C_10  and  N_11 
REMARK       I    between atoms: N_11  and  C_12 
REMARK       I    between atoms: C_12  and  N_13 
REMARK    5  A    between atoms: N_13  and  C_14 
REMARK    6  A    between atoms: C_17  and  N_18 
ROOT
HETATM    1  N   UNL     1       7.849  28.964  58.480  1.00  0.00    -0.340 N 
HETATM    2  C   UNL     1       7.861  28.097  57.406  1.00  0.00     0.320 C 
HETATM    3  N   UNL     1       7.476  26.836  57.783  1.00  0.00    -0.309 N 
HETATM    4  O   UNL     1       8.174  28.491  56.290  1.00  0.00    -0.247 OA
HETATM    5  H   UNL     1       8.012  28.531  59.381  1.00  0.00     0.164 HD
HETATM    6  H   UNL     1       7.029  26.758  58.685  1.00  0.00     0.170 HD
ENDROOT
BRANCH   1   7
HETATM    7  C   UNL     1       8.346  30.322  58.304  1.00  0.00     0.164 C 
BRANCH   7   8
HETATM    8  C   UNL     1       7.762  31.375  59.303  1.00  0.00     0.261 C 
BRANCH   8   9
HETATM    9  C   UNL     1       6.368  31.719  58.874  1.00  0.00     0.085 A 
HETATM   10  O   UNL     1       5.688  30.741  58.204  1.00  0.00    -0.318 OA
HETATM   11  C   UNL     1       4.467  31.255  57.885  1.00  0.00     0.049 A 
HETATM   12  C   UNL     1       3.558  30.381  57.113  1.00  0.00     0.076 C 
HETATM   13  C   UNL     1       4.349  32.538  58.378  1.00  0.00     0.035 A 
HETATM   14  C   UNL     1       5.576  32.838  59.015  1.00  0.00     0.037 A 
ENDBRANCH   8   9
BRANCH   8  15
HETATM   15  N   UNL     1       7.757  30.828  60.750  1.00  0.00    -0.067 N 
HETATM   16  H   UNL     1       7.211  29.957  60.707  1.00  0.00     0.280 HD
HETATM   17  C   UNL     1       9.122  30.526  61.296  1.00  0.00     0.270 C 
HETATM   18  C   UNL     1       7.010  31.745  61.691  1.00  0.00     0.270 C 
ENDBRANCH   8  15
ENDBRANCH   7   8
ENDBRANCH   1   7
BRANCH   3  19
HETATM   19  C   UNL     1       7.537  25.653  57.021  1.00  0.00     0.036 A 
HETATM   20  C   UNL     1       6.538  25.239  56.143  1.00  0.00     0.032 A 
HETATM   21  C   UNL     1       6.697  24.076  55.371  1.00  0.00     0.032 A 
HETATM   22  C   UNL     1       7.859  23.304  55.471  1.00  0.00     0.040 A 
HETATM   23  C   UNL     1       8.861  23.722  56.359  1.00  0.00     0.032 A 
HETATM   24  C   UNL     1       8.697  24.882  57.126  1.00  0.00     0.032 A 
BRANCH  22  25
HETATM   25  N   UNL     1       8.066  22.141  54.664  1.00  0.00    -0.309 N 
HETATM   26  C   UNL     1       8.405  20.838  55.033  1.00  0.00     0.106 A 
HETATM   27  C   UNL     1       8.817  20.387  56.387  1.00  0.00     0.091 C 
HETATM   28  N   UNL     1       8.417  20.031  53.987  1.00  0.00    -0.246 NA
HETATM   29  C   UNL     1       8.138  20.806  52.905  1.00  0.00     0.136 A 
HETATM   30  C   UNL     1       7.945  22.108  53.286  1.00  0.00     0.118 A 
ENDBRANCH  22  25
ENDBRANCH   3  19
TORSDOF 6
ENDMDL
MODEL 5
REMARK VINA RESULT:      -8.3      5.461      7.613
REMARK  6 active torsions:
REMARK  status: ('A' for Active; 'I' for Inactive)
REMARK    1  A    between atoms: C_4  and  C_5 
REMARK    2  A    between atoms: C_5  and  N_6 
REMARK    3  A    between atoms: C_5  and  C_10 
REMARK    4  A    between atoms: C_10  and  N_11 
REMARK       I    between atoms: N_11  and  C_12 
REMARK       I    between atoms: C_12  and  N_13 
REMARK    5  A    between atoms: N_13  and  C_14 
REMARK    6  A    between atoms: C_17  and  N_18 
ROOT
HETATM    1  N   UNL     1       5.757  28.880  51.940  1.00  0.00    -0.340 N 
HETATM    2  C   UNL     1       5.635  27.573  52.366  1.00  0.00     0.320 C 
HETATM    3  N   UNL     1       6.809  27.118  52.910  1.00  0.00    -0.309 N 
HETATM    4  O   UNL     1       4.574  26.975  52.248  1.00  0.00    -0.247 OA
HETATM    5  H   UNL     1       6.692  29.155  51.665  1.00  0.00     0.164 HD
HETATM    6  H   UNL     1       7.496  27.823  53.138  1.00  0.00     0.170 HD
ENDROOT
BRANCH   1   7
HETATM    7  C   UNL     1       4.651  29.500  51.220  1.00  0.00     0.164 C 
BRANCH   7   8
HETATM    8  C   UNL     1       4.740  29.400  49.661  1.00  0.00     0.261 C 
BRANCH   8   9
HETATM    9  C   UNL     1       3.623  28.527  49.174  1.00  0.00     0.085 A 
HETATM   10  O   UNL     1       3.986  27.293  48.709  1.00  0.00    -0.318 OA
HETATM   11  C   UNL     1       2.844  26.675  48.296  1.00  0.00     0.049 A 
HETATM   12  C   UNL     1       2.992  25.326  47.711  1.00  0.00     0.076 C 
HETATM   13  C   UNL     1       1.754  27.488  48.528  1.00  0.00     0.035 A 
HETATM   14  C   UNL     1       2.257  28.684  49.093  1.00  0.00     0.037 A 
ENDBRANCH   8   9
BRANCH   8  15
HETATM   15  N   UNL     1       4.652  30.797  49.005  1.00  0.00    -0.067 N 
HETATM   16  H   UNL     1       3.710  31.143  49.234  1.00  0.00     0.280 HD
HETATM   17  C   UNL     1       5.672  31.777  49.511  1.00  0.00     0.270 C 
HETATM   18  C   UNL     1       4.713  30.712  47.499  1.00  0.00     0.270 C 
ENDBRANCH   8  15
ENDBRANCH   7   8
ENDBRANCH   1   7
BRANCH   3  19
HETATM   19  C   UNL     1       7.131  25.799  53.284  1.00  0.00     0.036 A 
HETATM   20  C   UNL     1       7.837  24.910  52.477  1.00  0.00     0.032 A 
HETATM   21  C   UNL     1       8.174  23.629  52.944  1.00  0.00     0.032 A 
HETATM   22  C   UNL     1       7.805  23.214  54.227  1.00  0.00     0.040 A 
HETATM   23  C   UNL     1       7.093  24.111  55.036  1.00  0.00     0.032 A 
HETATM   24  C   UNL     1       6.758  25.388  54.566  1.00  0.00     0.032 A 
BRANCH  22  25
HETATM   25  N   UNL     1       8.176  21.933  54.744  1.00  0.00    -0.309 N 
HETATM   26  C   UNL     1       8.393  20.723  54.080  1.00  0.00     0.106 A 
HETATM   27  C   UNL     1       8.106  20.442  52.650  1.00  0.00     0.091 C 
HETATM   28  N   UNL     1       8.808  19.786  54.913  1.00  0.00    -0.246 NA
HETATM   29  C   UNL     1       8.816  20.354  56.150  1.00  0.00     0.136 A 
HETATM   30  C   UNL     1       8.408  21.660  56.080  1.00  0.00     0.118 A 
ENDBRANCH  22  25
ENDBRANCH   3  19
TORSDOF 6
ENDMDL
MODEL 6
REMARK VINA RESULT:      -8.3      1.484      2.252
REMARK  6 active torsions:
REMARK  status: ('A' for Active; 'I' for Inactive)
REMARK    1  A    between atoms: C_4  and  C_5 
REMARK    2  A    between atoms: C_5  and  N_6 
REMARK    3  A    between atoms: C_5  and  C_10 
REMARK    4  A    between atoms: C_10  and  N_11 
REMARK       I    between atoms: N_11  and  C_12 
REMARK       I    between atoms: C_12  and  N_13 
REMARK    5  A    between atoms: N_13  and  C_14 
REMARK    6  A    between atoms: C_17  and  N_18 
ROOT
HETATM    1  N   UNL     1       4.961  30.309  58.152  1.00  0.00    -0.340 N 
HETATM    2  C   UNL     1       5.752  29.503  57.358  1.00  0.00     0.320 C 
HETATM    3  N   UNL     1       5.451  28.178  57.544  1.00  0.00    -0.309 N 
HETATM    4  O   UNL     1       6.582  29.992  56.604  1.00  0.00    -0.247 OA
HETATM    5  H   UNL     1       4.640  29.881  59.012  1.00  0.00     0.164 HD
HETATM    6  H   UNL     1       4.584  27.981  58.022  1.00  0.00     0.170 HD
ENDROOT
BRANCH   1   7
HETATM    7  C   UNL     1       5.217  31.743  58.187  1.00  0.00     0.164 C 
BRANCH   7   8
HETATM    8  C   UNL     1       5.443  32.339  59.616  1.00  0.00     0.261 C 
BRANCH   8   9
HETATM    9  C   UNL     1       6.907  32.286  59.930  1.00  0.00     0.085 A 
HETATM   10  O   UNL     1       7.729  31.927  58.898  1.00  0.00    -0.318 OA
HETATM   11  C   UNL     1       8.999  31.915  59.390  1.00  0.00     0.049 A 
HETATM   12  C   UNL     1      10.071  31.513  58.455  1.00  0.00     0.076 C 
HETATM   13  C   UNL     1       8.999  32.299  60.715  1.00  0.00     0.035 A 
HETATM   14  C   UNL     1       7.648  32.537  61.064  1.00  0.00     0.037 A 
ENDBRANCH   8   9
BRANCH   8  15
HETATM   15  N   UNL     1       4.929  33.795  59.702  1.00  0.00    -0.067 N 
HETATM   16  H   UNL     1       5.768  34.367  59.867  1.00  0.00     0.280 HD
HETATM   17  C   UNL     1       4.241  34.277  58.458  1.00  0.00     0.270 C 
HETATM   18  C   UNL     1       4.038  34.003  60.904  1.00  0.00     0.270 C 
ENDBRANCH   8  15
ENDBRANCH   7   8
ENDBRANCH   1   7
BRANCH   3  19
HETATM   19  C   UNL     1       6.154  27.058  57.058  1.00  0.00     0.036 A 
HETATM   20  C   UNL     1       7.477  26.765  57.384  1.00  0.00     0.032 A 
HETATM   21  C   UNL     1       8.092  25.596  56.908  1.00  0.00     0.032 A 
HETATM   22  C   UNL     1       7.394  24.702  56.091  1.00  0.00     0.040 A 
HETATM   23  C   UNL     1       6.064  25.001  55.762  1.00  0.00     0.032 A 
HETATM   24  C   UNL     1       5.455  26.169  56.239  1.00  0.00     0.032 A 
BRANCH  22  25
HETATM   25  N   UNL     1       7.982  23.482  55.630  1.00  0.00    -0.309 N 
HETATM   26  C   UNL     1       8.325  23.080  54.338  1.00  0.00     0.106 A 
HETATM   27  C   UNL     1       7.982  23.787  53.077  1.00  0.00     0.091 C 
HETATM   28  N   UNL     1       8.929  21.905  54.345  1.00  0.00    -0.246 NA
HETATM   29  C   UNL     1       8.942  21.492  55.641  1.00  0.00     0.136 A 
HETATM   30  C   UNL     1       8.344  22.425  56.446  1.00  0.00     0.118 A 
ENDBRANCH  22  25
ENDBRANCH   3  19
TORSDOF 6
ENDMDL
MODEL 7
REMARK VINA RESULT:      -8.2      1.598      2.953
REMARK  6 active torsions:
REMARK  status: ('A' for Active; 'I' for Inactive)
REMARK    1  A    between atoms: C_4  and  C_5 
REMARK    2  A    between atoms: C_5  and  N_6 
REMARK    3  A    between atoms: C_5  and  C_10 
REMARK    4  A    between atoms: C_10  and  N_11 
REMARK       I    between atoms: N_11  and  C_12 
REMARK       I    between atoms: C_12  and  N_13 
REMARK    5  A    between atoms: N_13  and  C_14 
REMARK    6  A    between atoms: C_17  and  N_18 
ROOT
HETATM    1  N   UNL     1       7.197  28.698  58.279  1.00  0.00    -0.340 N 
HETATM    2  C   UNL     1       7.046  27.756  57.281  1.00  0.00     0.320 C 
HETATM    3  N   UNL     1       7.352  26.500  57.737  1.00  0.00    -0.309 N 
HETATM    4  O   UNL     1       6.668  28.085  56.164  1.00  0.00    -0.247 OA
HETATM    5  H   UNL     1       7.885  28.467  58.985  1.00  0.00     0.164 HD
HETATM    6  H   UNL     1       7.411  26.392  58.739  1.00  0.00     0.170 HD
ENDROOT
BRANCH   1   7
HETATM    7  C   UNL     1       7.037  30.110  57.954  1.00  0.00     0.164 C 
BRANCH   7   8
HETATM    8  C   UNL     1       8.246  31.020  58.351  1.00  0.00     0.261 C 
BRANCH   8   9
HETATM    9  C   UNL     1       8.237  31.206  59.838  1.00  0.00     0.085 A 
HETATM   10  O   UNL     1       7.476  32.239  60.308  1.00  0.00    -0.318 OA
HETATM   11  C   UNL     1       7.620  32.252  61.663  1.00  0.00     0.049 A 
HETATM   12  C   UNL     1       6.912  33.322  62.398  1.00  0.00     0.076 C 
HETATM   13  C   UNL     1       8.435  31.214  62.064  1.00  0.00     0.035 A 
HETATM   14  C   UNL     1       8.834  30.539  60.886  1.00  0.00     0.037 A 
ENDBRANCH   8   9
BRANCH   8  15
HETATM   15  N   UNL     1       9.587  30.396  57.898  1.00  0.00    -0.067 N 
HETATM   16  H   UNL     1       9.728  29.584  58.514  1.00  0.00     0.280 HD
HETATM   17  C   UNL     1       9.598  29.938  56.469  1.00  0.00     0.270 C 
HETATM   18  C   UNL     1      10.750  31.325  58.157  1.00  0.00     0.270 C 
ENDBRANCH   8  15
ENDBRANCH   7   8
ENDBRANCH   1   7
BRANCH   3  19
HETATM   19  C   UNL     1       7.492  25.319  56.981  1.00  0.00     0.036 A 
HETATM   20  C   UNL     1       6.453  24.714  56.278  1.00  0.00     0.032 A 
HETATM   21  C   UNL     1       6.684  23.571  55.496  1.00  0.00     0.032 A 
HETATM   22  C   UNL     1       7.962  23.009  55.410  1.00  0.00     0.040 A 
HETATM   23  C   UNL     1       9.006  23.619  56.121  1.00  0.00     0.032 A 
HETATM   24  C   UNL     1       8.770  24.759  56.900  1.00  0.00     0.032 A 
BRANCH  22  25
HETATM   25  N   UNL     1       8.234  21.873  54.585  1.00  0.00    -0.309 N 
HETATM   26  C   UNL     1       8.692  20.599  54.930  1.00  0.00     0.106 A 
HETATM   27  C   UNL     1       9.186  20.174  56.265  1.00  0.00     0.091 C 
HETATM   28  N   UNL     1       8.732  19.802  53.877  1.00  0.00    -0.246 NA
HETATM   29  C   UNL     1       8.353  20.559  52.813  1.00  0.00     0.136 A 
HETATM   30  C   UNL     1       8.069  21.839  53.212  1.00  0.00     0.118 A 
ENDBRANCH  22  25
ENDBRANCH   3  19
TORSDOF 6
ENDMDL
MODEL 8
REMARK VINA RESULT:      -8.0      2.206      9.738
REMARK  6 active torsions:
REMARK  status: ('A' for Active; 'I' for Inactive)
REMARK    1  A    between atoms: C_4  and  C_5 
REMARK    2  A    between atoms: C_5  and  N_6 
REMARK    3  A    between atoms: C_5  and  C_10 
REMARK    4  A    between atoms: C_10  and  N_11 
REMARK       I    between atoms: N_11  and  C_12 
REMARK       I    between atoms: C_12  and  N_13 
REMARK    5  A    between atoms: N_13  and  C_14 
REMARK    6  A    between atoms: C_17  and  N_18 
ROOT
HETATM    1  N   UNL     1       7.459  26.440  55.070  1.00  0.00    -0.340 N 
HETATM    2  C   UNL     1       6.936  27.174  56.116  1.00  0.00     0.320 C 
HETATM    3  N   UNL     1       7.432  28.452  56.120  1.00  0.00    -0.309 N 
HETATM    4  O   UNL     1       6.126  26.674  56.885  1.00  0.00    -0.247 OA
HETATM    5  H   UNL     1       8.381  26.727  54.765  1.00  0.00     0.164 HD
HETATM    6  H   UNL     1       7.899  28.752  55.276  1.00  0.00     0.170 HD
ENDROOT
BRANCH   1   7
HETATM    7  C   UNL     1       7.145  25.020  54.971  1.00  0.00     0.164 C 
BRANCH   7   8
HETATM    8  C   UNL     1       7.390  24.387  53.561  1.00  0.00     0.261 C 
BRANCH   8   9
HETATM    9  C   UNL     1       7.633  22.918  53.732  1.00  0.00     0.085 A 
HETATM   10  O   UNL     1       7.563  22.444  55.012  1.00  0.00    -0.318 OA
HETATM   11  C   UNL     1       7.835  21.110  54.956  1.00  0.00     0.049 A 
HETATM   12  C   UNL     1       7.856  20.380  56.241  1.00  0.00     0.076 C 
HETATM   13  C   UNL     1       8.039  20.723  53.648  1.00  0.00     0.035 A 
HETATM   14  C   UNL     1       7.910  21.890  52.858  1.00  0.00     0.037 A 
ENDBRANCH   8   9
BRANCH   8  15
HETATM   15  N   UNL     1       6.183  24.625  52.624  1.00  0.00    -0.067 N 
HETATM   16  H   UNL     1       6.108  23.769  52.058  1.00  0.00     0.280 HD
HETATM   17  C   UNL     1       4.885  24.853  53.344  1.00  0.00     0.270 C 
HETATM   18  C   UNL     1       6.444  25.750  51.651  1.00  0.00     0.270 C 
ENDBRANCH   8  15
ENDBRANCH   7   8
ENDBRANCH   1   7
BRANCH   3  19
HETATM   19  C   UNL     1       7.281  29.432  57.120  1.00  0.00     0.036 A 
HETATM   20  C   UNL     1       6.297  30.419  57.104  1.00  0.00     0.032 A 
HETATM   21  C   UNL     1       6.170  31.325  58.169  1.00  0.00     0.032 A 
HETATM   22  C   UNL     1       7.032  31.263  59.268  1.00  0.00     0.040 A 
HETATM   23  C   UNL     1       8.023  30.270  59.280  1.00  0.00     0.032 A 
HETATM   24  C   UNL     1       8.146  29.369  58.216  1.00  0.00     0.032 A 
BRANCH  22  25
HETATM   25  N   UNL     1       6.896  32.144  60.387  1.00  0.00    -0.309 N 
HETATM   26  C   UNL     1       7.826  32.513  61.360  1.00  0.00     0.106 A 
HETATM   27  C   UNL     1       9.170  31.914  61.564  1.00  0.00     0.091 C 
HETATM   28  N   UNL     1       7.329  33.423  62.179  1.00  0.00    -0.246 NA
HETATM   29  C   UNL     1       6.043  33.625  61.786  1.00  0.00     0.136 A 
HETATM   30  C   UNL     1       5.741  32.835  60.708  1.00  0.00     0.118 A 
ENDBRANCH  22  25
ENDBRANCH   3  19
TORSDOF 6
ENDMDL
MODEL 9
REMARK VINA RESULT:      -7.8      2.699      9.864
REMARK  6 active torsions:
REMARK  status: ('A' for Active; 'I' for Inactive)
REMARK    1  A    between atoms: C_4  and  C_5 
REMARK    2  A    between atoms: C_5  and  N_6 
REMARK    3  A    between atoms: C_5  and  C_10 
REMARK    4  A    between atoms: C_10  and  N_11 
REMARK       I    between atoms: N_11  and  C_12 
REMARK       I    between atoms: C_12  and  N_13 
REMARK    5  A    between atoms: N_13  and  C_14 
REMARK    6  A    between atoms: C_17  and  N_18 
ROOT
HETATM    1  N   UNL     1       7.978  27.984  56.175  1.00  0.00    -0.340 N 
HETATM    2  C   UNL     1       7.344  28.670  57.192  1.00  0.00     0.320 C 
HETATM    3  N   UNL     1       8.095  29.738  57.611  1.00  0.00    -0.309 N 
HETATM    4  O   UNL     1       6.247  28.310  57.597  1.00  0.00    -0.247 OA
HETATM    5  H   UNL     1       8.989  28.039  56.187  1.00  0.00     0.164 HD
HETATM    6  H   UNL     1       8.852  30.016  57.003  1.00  0.00     0.170 HD
ENDROOT
BRANCH   1   7
HETATM    7  C   UNL     1       7.394  26.744  55.682  1.00  0.00     0.164 C 
BRANCH   7   8
HETATM    8  C   UNL     1       7.377  26.596  54.124  1.00  0.00     0.261 C 
BRANCH   8   9
HETATM    9  C   UNL     1       7.612  25.156  53.778  1.00  0.00     0.085 A 
HETATM   10  O   UNL     1       7.513  24.267  54.811  1.00  0.00    -0.318 OA
HETATM   11  C   UNL     1       7.782  23.034  54.299  1.00  0.00     0.049 A 
HETATM   12  C   UNL     1       7.773  21.902  55.250  1.00  0.00     0.076 C 
HETATM   13  C   UNL     1       8.015  23.123  52.943  1.00  0.00     0.035 A 
HETATM   14  C   UNL     1       7.907  24.494  52.606  1.00  0.00     0.037 A 
ENDBRANCH   8   9
BRANCH   8  15
HETATM   15  N   UNL     1       6.032  27.076  53.531  1.00  0.00    -0.067 N 
HETATM   16  H   UNL     1       5.790  26.379  52.814  1.00  0.00     0.280 HD
HETATM   17  C   UNL     1       4.916  27.160  54.533  1.00  0.00     0.270 C 
HETATM   18  C   UNL     1       6.180  28.391  52.804  1.00  0.00     0.270 C 
ENDBRANCH   8  15
ENDBRANCH   7   8
ENDBRANCH   1   7
BRANCH   3  19
HETATM   19  C   UNL     1       7.874  30.558  58.735  1.00  0.00     0.036 A 
HETATM   20  C   UNL     1       6.857  31.506  58.822  1.00  0.00     0.032 A 
HETATM   21  C   UNL     1       6.663  32.245  60.000  1.00  0.00     0.032 A 
HETATM   22  C   UNL     1       7.488  32.050  61.112  1.00  0.00     0.040 A 
HETATM   23  C   UNL     1       8.513  31.097  61.020  1.00  0.00     0.032 A 
HETATM   24  C   UNL     1       8.703  30.363  59.842  1.00  0.00     0.032 A 
BRANCH  22  25
HETATM   25  N   UNL     1       7.282  32.756  62.339  1.00  0.00    -0.309 N 
HETATM   26  C   UNL     1       6.348  33.742  62.665  1.00  0.00     0.106 A 
HETATM   27  C   UNL     1       5.433  34.432  61.719  1.00  0.00     0.091 C 
HETATM   28  N   UNL     1       6.432  34.080  63.939  1.00  0.00    -0.246 NA
HETATM   29  C   UNL     1       7.462  33.359  64.457  1.00  0.00     0.136 A 
HETATM   30  C   UNL     1       8.019  32.560  63.493  1.00  0.00     0.118 A 
ENDBRANCH  22  25
ENDBRANCH   3  19
TORSDOF 6
ENDMDL
MODEL 10
REMARK VINA RESULT:      -7.7      3.201      5.514
REMARK  6 active torsions:
REMARK  status: ('A' for Active; 'I' for Inactive)
REMARK    1  A    between atoms: C_4  and  C_5 
REMARK    2  A    between atoms: C_5  and  N_6 
REMARK    3  A    between atoms: C_5  and  C_10 
REMARK    4  A    between atoms: C_10  and  N_11 
REMARK       I    between atoms: N_11  and  C_12 
REMARK       I    between atoms: C_12  and  N_13 
REMARK    5  A    between atoms: N_13  and  C_14 
REMARK    6  A    between atoms: C_17  and  N_18 
ROOT
HETATM    1  N   UNL     1       6.632  32.385  59.952  1.00  0.00    -0.340 N 
HETATM    2  C   UNL     1       7.283  31.204  59.658  1.00  0.00     0.320 C 
HETATM    3  N   UNL     1       6.921  30.735  58.421  1.00  0.00    -0.309 N 
HETATM    4  O   UNL     1       8.077  30.715  60.451  1.00  0.00    -0.247 OA
HETATM    5  H   UNL     1       5.729  32.498  59.508  1.00  0.00     0.164 HD
HETATM    6  H   UNL     1       6.442  31.389  57.819  1.00  0.00     0.170 HD
ENDROOT
BRANCH   1   7
HETATM    7  C   UNL     1       6.792  32.975  61.275  1.00  0.00     0.164 C 
BRANCH   7   8
HETATM    8  C   UNL     1       5.678  32.597  62.306  1.00  0.00     0.261 C 
BRANCH   8   9
HETATM    9  C   UNL     1       6.107  33.060  63.665  1.00  0.00     0.085 A 
HETATM   10  O   UNL     1       5.102  33.322  64.554  1.00  0.00    -0.318 OA
HETATM   11  C   UNL     1       5.693  33.747  65.706  1.00  0.00     0.049 A 
HETATM   12  C   UNL     1       4.793  34.132  66.814  1.00  0.00     0.076 C 
HETATM   13  C   UNL     1       7.065  33.724  65.572  1.00  0.00     0.035 A 
HETATM   14  C   UNL     1       7.333  33.281  64.254  1.00  0.00     0.037 A 
ENDBRANCH   8   9
BRANCH   8  15
HETATM   15  N   UNL     1       4.323  33.239  61.925  1.00  0.00    -0.067 N 
HETATM   16  H   UNL     1       3.800  33.309  62.808  1.00  0.00     0.280 HD
HETATM   17  C   UNL     1       4.442  34.605  61.314  1.00  0.00     0.270 C 
HETATM   18  C   UNL     1       3.511  32.336  61.027  1.00  0.00     0.270 C 
ENDBRANCH   8  15
ENDBRANCH   7   8
ENDBRANCH   1   7
BRANCH   3  19
HETATM   19  C   UNL     1       7.226  29.483  57.852  1.00  0.00     0.036 A 
HETATM   20  C   UNL     1       8.522  29.014  57.646  1.00  0.00     0.032 A 
HETATM   21  C   UNL     1       8.746  27.729  57.127  1.00  0.00     0.032 A 
HETATM   22  C   UNL     1       7.675  26.891  56.801  1.00  0.00     0.040 A 
HETATM   23  C   UNL     1       6.373  27.367  57.007  1.00  0.00     0.032 A 
HETATM   24  C   UNL     1       6.153  28.650  57.523  1.00  0.00     0.032 A 
BRANCH  22  25
HETATM   25  N   UNL     1       7.877  25.561  56.315  1.00  0.00    -0.309 N 
HETATM   26  C   UNL     1       7.677  25.028  55.039  1.00  0.00     0.106 A 
HETATM   27  C   UNL     1       7.017  25.710  53.896  1.00  0.00     0.091 C 
HETATM   28  N   UNL     1       8.066  23.767  54.979  1.00  0.00    -0.246 NA
HETATM   29  C   UNL     1       8.477  23.436  56.233  1.00  0.00     0.136 A 
HETATM   30  C   UNL     1       8.347  24.507  57.078  1.00  0.00     0.118 A 
ENDBRANCH  22  25
ENDBRANCH   3  19
TORSDOF 6
ENDMDL
