MODEL 1
REMARK VINA RESULT:      -8.5      0.000      0.000
REMARK  10 active torsions:
REMARK  status: ('A' for Active; 'I' for Inactive)
REMARK    1  A    between atoms: O_2  and  C_3 
REMARK    2  A    between atoms: C_6  and  N_7 
REMARK    3  A    between atoms: N_7  and  C_8 
REMARK    4  A    between atoms: C_8  and  N_9 
REMARK    5  A    between atoms: N_9  and  N_10 
REMARK       I    between atoms: N_10  and  C_11 
REMARK    6  A    between atoms: C_11  and  C_12 
REMARK    7  A    between atoms: C_12  and  S_13 
REMARK    8  A    between atoms: S_13  and  C_14 
REMARK    9  A    between atoms: C_14  and  C_15 
REMARK       I    between atoms: C_15  and  N_16 
REMARK   10  A    between atoms: N_16  and  C_17 
ROOT
HETATM    1  N   UNL     1       6.465  29.220  55.369  1.00  0.00    -0.267 N 
HETATM    2  C   UNL     1       7.235  29.182  56.500  1.00  0.00     0.245 C 
HETATM    3  O   UNL     1       6.771  29.617  57.556  1.00  0.00    -0.271 OA
HETATM    4  H   UNL     1       5.523  29.597  55.459  1.00  0.00     0.190 HD
ENDROOT
BRANCH   1   5
HETATM    5  N   UNL     1       6.879  28.833  54.098  1.00  0.00    -0.274 N 
HETATM    6  H   UNL     1       7.510  29.446  53.585  1.00  0.00     0.189 HD
BRANCH   5   7
HETATM    7  C   UNL     1       6.500  27.633  53.552  1.00  0.00     0.191 C 
HETATM    8  S   UNL     1       4.927  27.225  53.149  1.00  0.00    -0.039 SA
BRANCH   7   9
HETATM    9  N   UNL     1       7.476  26.692  53.377  1.00  0.00    -0.332 N 
HETATM   10  H   UNL     1       8.382  27.094  53.155  1.00  0.00     0.168 HD
BRANCH   9  11
HETATM   11  C   UNL     1       7.474  25.305  53.634  1.00  0.00     0.034 A 
HETATM   12  C   UNL     1       7.824  24.459  52.580  1.00  0.00     0.032 A 
HETATM   13  C   UNL     1       7.884  23.076  52.771  1.00  0.00     0.039 A 
HETATM   14  C   UNL     1       7.623  22.517  54.023  1.00  0.00     0.068 A 
HETATM   15  C   UNL     1       7.296  23.359  55.083  1.00  0.00     0.039 A 
HETATM   16  C   UNL     1       7.231  24.747  54.892  1.00  0.00     0.032 A 
BRANCH  14  17
HETATM   17  O   UNL     1       7.730  21.156  54.077  1.00  0.00    -0.356 OA
HETATM   18  C   UNL     1       8.399  20.519  52.995  1.00  0.00     0.210 C 
ENDBRANCH  14  17
ENDBRANCH   9  11
ENDBRANCH   7   9
ENDBRANCH   5   7
ENDBRANCH   1   5
BRANCH   2  19
HETATM   19  C   UNL     1       8.611  28.548  56.468  1.00  0.00     0.178 C 
BRANCH  19  20
HETATM   20  S   UNL     1       9.987  29.620  55.935  1.00  0.00    -0.150 SA
BRANCH  20  21
HETATM   21  C   UNL     1      10.794  30.014  57.519  1.00  0.00     0.177 C 
BRANCH  21  22
HETATM   22  C   UNL     1      10.090  31.060  58.366  1.00  0.00     0.231 C 
HETATM   23  N   UNL     1       9.303  30.538  59.376  1.00  0.00    -0.327 N 
HETATM   24  H   UNL     1       9.189  29.530  59.378  1.00  0.00     0.169 HD
HETATM   25  O   UNL     1      10.335  32.249  58.173  1.00  0.00    -0.272 OA
BRANCH  23  26
HETATM   26  C   UNL     1       8.636  31.252  60.393  1.00  0.00     0.034 A 
HETATM   27  C   UNL     1       9.123  31.395  61.694  1.00  0.00     0.029 A 
HETATM   28  C   UNL     1       8.392  32.098  62.656  1.00  0.00     0.002 A 
HETATM   29  C   UNL     1       7.166  32.668  62.325  1.00  0.00     0.000 A 
HETATM   30  C   UNL     1       6.673  32.539  61.031  1.00  0.00     0.002 A 
HETATM   31  C   UNL     1       7.404  31.835  60.068  1.00  0.00     0.029 A 
ENDBRANCH  23  26
ENDBRANCH  21  22
ENDBRANCH  20  21
ENDBRANCH  19  20
ENDBRANCH   2  19
TORSDOF 10
ENDMDL
MODEL 2
REMARK VINA RESULT:      -8.2      3.035     11.091
REMARK  10 active torsions:
REMARK  status: ('A' for Active; 'I' for Inactive)
REMARK    1  A    between atoms: O_2  and  C_3 
REMARK    2  A    between atoms: C_6  and  N_7 
REMARK    3  A    between atoms: N_7  and  C_8 
REMARK    4  A    between atoms: C_8  and  N_9 
REMARK    5  A    between atoms: N_9  and  N_10 
REMARK       I    between atoms: N_10  and  C_11 
REMARK    6  A    between atoms: C_11  and  C_12 
REMARK    7  A    between atoms: C_12  and  S_13 
REMARK    8  A    between atoms: S_13  and  C_14 
REMARK    9  A    between atoms: C_14  and  C_15 
REMARK       I    between atoms: C_15  and  N_16 
REMARK   10  A    between atoms: N_16  and  C_17 
ROOT
HETATM    1  N   UNL     1       7.442  30.402  58.399  1.00  0.00    -0.267 N 
HETATM    2  C   UNL     1       7.280  29.521  57.365  1.00  0.00     0.245 C 
HETATM    3  O   UNL     1       6.941  29.948  56.260  1.00  0.00    -0.271 OA
HETATM    4  H   UNL     1       7.288  31.389  58.198  1.00  0.00     0.190 HD
ENDROOT
BRANCH   1   5
HETATM    5  N   UNL     1       7.750  30.059  59.712  1.00  0.00    -0.274 N 
HETATM    6  H   UNL     1       7.696  29.079  59.984  1.00  0.00     0.189 HD
BRANCH   5   7
HETATM    7  C   UNL     1       8.171  30.996  60.621  1.00  0.00     0.191 C 
HETATM    8  S   UNL     1       9.245  32.236  60.282  1.00  0.00    -0.039 SA
BRANCH   7   9
HETATM    9  N   UNL     1       7.714  30.871  61.903  1.00  0.00    -0.332 N 
HETATM   10  H   UNL     1       7.897  29.956  62.305  1.00  0.00     0.168 HD
BRANCH   9  11
HETATM   11  C   UNL     1       7.213  31.837  62.800  1.00  0.00     0.034 A 
HETATM   12  C   UNL     1       5.827  31.987  62.870  1.00  0.00     0.032 A 
HETATM   13  C   UNL     1       5.256  32.896  63.766  1.00  0.00     0.039 A 
HETATM   14  C   UNL     1       6.058  33.649  64.625  1.00  0.00     0.068 A 
HETATM   15  C   UNL     1       7.441  33.487  64.574  1.00  0.00     0.039 A 
HETATM   16  C   UNL     1       8.014  32.578  63.672  1.00  0.00     0.032 A 
BRANCH  14  17
HETATM   17  O   UNL     1       5.375  34.488  65.459  1.00  0.00    -0.356 OA
HETATM   18  C   UNL     1       3.980  34.250  65.611  1.00  0.00     0.210 C 
ENDBRANCH  14  17
ENDBRANCH   9  11
ENDBRANCH   7   9
ENDBRANCH   5   7
ENDBRANCH   1   5
BRANCH   2  19
HETATM   19  C   UNL     1       7.585  28.049  57.560  1.00  0.00     0.178 C 
BRANCH  19  20
HETATM   20  S   UNL     1       6.787  26.893  56.394  1.00  0.00    -0.150 SA
BRANCH  20  21
HETATM   21  C   UNL     1       6.839  25.326  57.320  1.00  0.00     0.177 C 
BRANCH  21  22
HETATM   22  C   UNL     1       7.694  24.233  56.703  1.00  0.00     0.231 C 
HETATM   23  N   UNL     1       7.002  23.369  55.875  1.00  0.00    -0.327 N 
HETATM   24  H   UNL     1       5.994  23.483  55.852  1.00  0.00     0.169 HD
HETATM   25  O   UNL     1       8.908  24.247  56.890  1.00  0.00    -0.272 OA
BRANCH  23  26
HETATM   26  C   UNL     1       7.540  22.346  55.068  1.00  0.00     0.034 A 
HETATM   27  C   UNL     1       7.981  21.115  55.558  1.00  0.00     0.029 A 
HETATM   28  C   UNL     1       8.526  20.158  54.697  1.00  0.00     0.002 A 
HETATM   29  C   UNL     1       8.634  20.422  53.335  1.00  0.00     0.000 A 
HETATM   30  C   UNL     1       8.192  21.642  52.832  1.00  0.00     0.002 A 
HETATM   31  C   UNL     1       7.647  22.600  53.694  1.00  0.00     0.029 A 
ENDBRANCH  23  26
ENDBRANCH  21  22
ENDBRANCH  20  21
ENDBRANCH  19  20
ENDBRANCH   2  19
TORSDOF 10
ENDMDL
MODEL 3
REMARK VINA RESULT:      -8.0      2.553     10.561
REMARK  10 active torsions:
REMARK  status: ('A' for Active; 'I' for Inactive)
REMARK    1  A    between atoms: O_2  and  C_3 
REMARK    2  A    between atoms: C_6  and  N_7 
REMARK    3  A    between atoms: N_7  and  C_8 
REMARK    4  A    between atoms: C_8  and  N_9 
REMARK    5  A    between atoms: N_9  and  N_10 
REMARK       I    between atoms: N_10  and  C_11 
REMARK    6  A    between atoms: C_11  and  C_12 
REMARK    7  A    between atoms: C_12  and  S_13 
REMARK    8  A    between atoms: S_13  and  C_14 
REMARK    9  A    between atoms: C_14  and  C_15 
REMARK       I    between atoms: C_15  and  N_16 
REMARK   10  A    between atoms: N_16  and  C_17 
ROOT
HETATM    1  N   UNL     1       6.020  30.159  58.165  1.00  0.00    -0.267 N 
HETATM    2  C   UNL     1       6.053  29.073  57.334  1.00  0.00     0.245 C 
HETATM    3  O   UNL     1       5.170  28.217  57.430  1.00  0.00    -0.271 OA
HETATM    4  H   UNL     1       5.245  30.218  58.824  1.00  0.00     0.190 HD
ENDROOT
BRANCH   1   5
HETATM    5  N   UNL     1       6.982  31.163  58.220  1.00  0.00    -0.274 N 
HETATM    6  H   UNL     1       6.905  31.946  57.573  1.00  0.00     0.189 HD
BRANCH   5   7
HETATM    7  C   UNL     1       7.988  31.144  59.153  1.00  0.00     0.191 C 
HETATM    8  S   UNL     1       9.607  31.401  58.811  1.00  0.00    -0.039 SA
BRANCH   7   9
HETATM    9  N   UNL     1       7.639  30.845  60.440  1.00  0.00    -0.332 N 
HETATM   10  H   UNL     1       7.721  29.856  60.657  1.00  0.00     0.168 HD
BRANCH   9  11
HETATM   11  C   UNL     1       7.374  31.687  61.540  1.00  0.00     0.034 A 
HETATM   12  C   UNL     1       6.101  32.256  61.617  1.00  0.00     0.032 A 
HETATM   13  C   UNL     1       5.752  33.067  62.701  1.00  0.00     0.039 A 
HETATM   14  C   UNL     1       6.657  33.302  63.737  1.00  0.00     0.068 A 
HETATM   15  C   UNL     1       7.920  32.717  63.675  1.00  0.00     0.039 A 
HETATM   16  C   UNL     1       8.273  31.907  62.587  1.00  0.00     0.032 A 
BRANCH  14  17
HETATM   17  O   UNL     1       6.186  34.100  64.741  1.00  0.00    -0.356 OA
HETATM   18  C   UNL     1       4.974  33.697  65.369  1.00  0.00     0.210 C 
ENDBRANCH  14  17
ENDBRANCH   9  11
ENDBRANCH   7   9
ENDBRANCH   5   7
ENDBRANCH   1   5
BRANCH   2  19
HETATM   19  C   UNL     1       7.119  28.961  56.262  1.00  0.00     0.178 C 
BRANCH  19  20
HETATM   20  S   UNL     1       7.616  27.272  55.784  1.00  0.00    -0.150 SA
BRANCH  20  21
HETATM   21  C   UNL     1       6.359  26.847  54.537  1.00  0.00     0.177 C 
BRANCH  21  22
HETATM   22  C   UNL     1       6.291  25.379  54.155  1.00  0.00     0.231 C 
HETATM   23  N   UNL     1       7.448  24.669  54.416  1.00  0.00    -0.327 N 
HETATM   24  H   UNL     1       8.246  25.213  54.726  1.00  0.00     0.169 HD
HETATM   25  O   UNL     1       5.227  24.915  53.751  1.00  0.00    -0.272 OA
BRANCH  23  26
HETATM   26  C   UNL     1       7.642  23.278  54.290  1.00  0.00     0.034 A 
HETATM   27  C   UNL     1       7.867  22.627  53.075  1.00  0.00     0.029 A 
HETATM   28  C   UNL     1       8.027  21.239  53.029  1.00  0.00     0.002 A 
HETATM   29  C   UNL     1       7.966  20.487  54.198  1.00  0.00     0.000 A 
HETATM   30  C   UNL     1       7.750  21.124  55.417  1.00  0.00     0.002 A 
HETATM   31  C   UNL     1       7.589  22.513  55.463  1.00  0.00     0.029 A 
ENDBRANCH  23  26
ENDBRANCH  21  22
ENDBRANCH  20  21
ENDBRANCH  19  20
ENDBRANCH   2  19
TORSDOF 10
ENDMDL
MODEL 4
REMARK VINA RESULT:      -8.0      2.873     10.560
REMARK  10 active torsions:
REMARK  status: ('A' for Active; 'I' for Inactive)
REMARK    1  A    between atoms: O_2  and  C_3 
REMARK    2  A    between atoms: C_6  and  N_7 
REMARK    3  A    between atoms: N_7  and  C_8 
REMARK    4  A    between atoms: C_8  and  N_9 
REMARK    5  A    between atoms: N_9  and  N_10 
REMARK       I    between atoms: N_10  and  C_11 
REMARK    6  A    between atoms: C_11  and  C_12 
REMARK    7  A    between atoms: C_12  and  S_13 
REMARK    8  A    between atoms: S_13  and  C_14 
REMARK    9  A    between atoms: C_14  and  C_15 
REMARK       I    between atoms: C_15  and  N_16 
REMARK   10  A    between atoms: N_16  and  C_17 
ROOT
HETATM    1  N   UNL     1       8.377  29.377  58.618  1.00  0.00    -0.267 N 
HETATM    2  C   UNL     1       7.928  28.517  57.654  1.00  0.00     0.245 C 
HETATM    3  O   UNL     1       8.747  27.866  57.002  1.00  0.00    -0.271 OA
HETATM    4  H   UNL     1       9.384  29.428  58.766  1.00  0.00     0.190 HD
ENDROOT
BRANCH   1   5
HETATM    5  N   UNL     1       7.577  30.225  59.380  1.00  0.00    -0.274 N 
HETATM    6  H   UNL     1       6.573  30.232  59.207  1.00  0.00     0.189 HD
BRANCH   5   7
HETATM    7  C   UNL     1       8.102  31.002  60.381  1.00  0.00     0.191 C 
HETATM    8  S   UNL     1       9.379  32.068  60.189  1.00  0.00    -0.039 SA
BRANCH   7   9
HETATM    9  N   UNL     1       7.571  30.850  61.631  1.00  0.00    -0.332 N 
HETATM   10  H   UNL     1       7.632  29.897  61.978  1.00  0.00     0.168 HD
BRANCH   9  11
HETATM   11  C   UNL     1       7.137  31.810  62.569  1.00  0.00     0.034 A 
HETATM   12  C   UNL     1       5.766  32.074  62.626  1.00  0.00     0.032 A 
HETATM   13  C   UNL     1       5.258  32.982  63.559  1.00  0.00     0.039 A 
HETATM   14  C   UNL     1       6.103  33.621  64.466  1.00  0.00     0.068 A 
HETATM   15  C   UNL     1       7.468  33.345  64.427  1.00  0.00     0.039 A 
HETATM   16  C   UNL     1       7.980  32.437  63.490  1.00  0.00     0.032 A 
BRANCH  14  17
HETATM   17  O   UNL     1       5.477  34.473  65.332  1.00  0.00    -0.356 OA
HETATM   18  C   UNL     1       4.643  33.885  66.323  1.00  0.00     0.210 C 
ENDBRANCH  14  17
ENDBRANCH   9  11
ENDBRANCH   7   9
ENDBRANCH   5   7
ENDBRANCH   1   5
BRANCH   2  19
HETATM   19  C   UNL     1       6.441  28.314  57.442  1.00  0.00     0.178 C 
BRANCH  19  20
HETATM   20  S   UNL     1       5.684  29.240  56.063  1.00  0.00    -0.150 SA
BRANCH  20  21
HETATM   21  C   UNL     1       5.303  27.910  54.879  1.00  0.00     0.177 C 
BRANCH  21  22
HETATM   22  C   UNL     1       6.456  26.977  54.554  1.00  0.00     0.231 C 
HETATM   23  N   UNL     1       6.235  25.657  54.899  1.00  0.00    -0.327 N 
HETATM   24  H   UNL     1       5.388  25.468  55.424  1.00  0.00     0.169 HD
HETATM   25  O   UNL     1       7.427  27.418  53.942  1.00  0.00    -0.272 OA
BRANCH  23  26
HETATM   26  C   UNL     1       7.059  24.550  54.608  1.00  0.00     0.034 A 
HETATM   27  C   UNL     1       8.032  24.051  55.477  1.00  0.00     0.029 A 
HETATM   28  C   UNL     1       8.827  22.962  55.107  1.00  0.00     0.002 A 
HETATM   29  C   UNL     1       8.656  22.359  53.865  1.00  0.00     0.000 A 
HETATM   30  C   UNL     1       7.685  22.842  52.992  1.00  0.00     0.002 A 
HETATM   31  C   UNL     1       6.890  23.932  53.362  1.00  0.00     0.029 A 
ENDBRANCH  23  26
ENDBRANCH  21  22
ENDBRANCH  20  21
ENDBRANCH  19  20
ENDBRANCH   2  19
TORSDOF 10
ENDMDL
MODEL 5
REMARK VINA RESULT:      -7.9      1.953      2.555
REMARK  10 active torsions:
REMARK  status: ('A' for Active; 'I' for Inactive)
REMARK    1  A    between atoms: O_2  and  C_3 
REMARK    2  A    between atoms: C_6  and  N_7 
REMARK    3  A    between atoms: N_7  and  C_8 
REMARK    4  A    between atoms: C_8  and  N_9 
REMARK    5  A    between atoms: N_9  and  N_10 
REMARK       I    between atoms: N_10  and  C_11 
REMARK    6  A    between atoms: C_11  and  C_12 
REMARK    7  A    between atoms: C_12  and  S_13 
REMARK    8  A    between atoms: S_13  and  C_14 
REMARK    9  A    between atoms: C_14  and  C_15 
REMARK       I    between atoms: C_15  and  N_16 
REMARK   10  A    between atoms: N_16  and  C_17 
ROOT
HETATM    1  N   UNL     1       3.888  27.671  53.765  1.00  0.00    -0.267 N 
HETATM    2  C   UNL     1       4.234  28.368  54.891  1.00  0.00     0.245 C 
HETATM    3  O   UNL     1       3.877  29.542  55.002  1.00  0.00    -0.271 OA
HETATM    4  H   UNL     1       3.330  28.160  53.068  1.00  0.00     0.190 HD
ENDROOT
BRANCH   1   5
HETATM    5  N   UNL     1       4.279  26.367  53.471  1.00  0.00    -0.274 N 
HETATM    6  H   UNL     1       3.748  25.598  53.876  1.00  0.00     0.189 HD
BRANCH   5   7
HETATM    7  C   UNL     1       5.319  26.104  52.616  1.00  0.00     0.191 C 
HETATM    8  S   UNL     1       5.214  26.154  50.945  1.00  0.00    -0.039 SA
BRANCH   7   9
HETATM    9  N   UNL     1       6.506  25.727  53.177  1.00  0.00    -0.332 N 
HETATM   10  H   UNL     1       7.115  26.512  53.391  1.00  0.00     0.168 HD
BRANCH   9  11
HETATM   11  C   UNL     1       6.935  24.476  53.669  1.00  0.00     0.034 A 
HETATM   12  C   UNL     1       7.529  23.600  52.758  1.00  0.00     0.032 A 
HETATM   13  C   UNL     1       8.016  22.360  53.181  1.00  0.00     0.039 A 
HETATM   14  C   UNL     1       7.942  21.985  54.524  1.00  0.00     0.068 A 
HETATM   15  C   UNL     1       7.370  22.866  55.440  1.00  0.00     0.039 A 
HETATM   16  C   UNL     1       6.878  24.108  55.016  1.00  0.00     0.032 A 
BRANCH  14  17
HETATM   17  O   UNL     1       8.466  20.756  54.806  1.00  0.00    -0.356 OA
HETATM   18  C   UNL     1       8.770  20.482  56.169  1.00  0.00     0.210 C 
ENDBRANCH  14  17
ENDBRANCH   9  11
ENDBRANCH   7   9
ENDBRANCH   5   7
ENDBRANCH   1   5
BRANCH   2  19
HETATM   19  C   UNL     1       4.981  27.681  56.017  1.00  0.00     0.178 C 
BRANCH  19  20
HETATM   20  S   UNL     1       6.786  27.940  56.069  1.00  0.00    -0.150 SA
BRANCH  20  21
HETATM   21  C   UNL     1       6.904  29.654  56.673  1.00  0.00     0.177 C 
BRANCH  21  22
HETATM   22  C   UNL     1       7.552  29.821  58.036  1.00  0.00     0.231 C 
HETATM   23  N   UNL     1       7.328  31.050  58.627  1.00  0.00    -0.327 N 
HETATM   24  H   UNL     1       6.857  31.742  58.053  1.00  0.00     0.169 HD
HETATM   25  O   UNL     1       8.123  28.860  58.548  1.00  0.00    -0.272 OA
BRANCH  23  26
HETATM   26  C   UNL     1       7.688  31.450  59.930  1.00  0.00     0.034 A 
HETATM   27  C   UNL     1       6.824  32.100  60.814  1.00  0.00     0.029 A 
HETATM   28  C   UNL     1       7.262  32.487  62.084  1.00  0.00     0.002 A 
HETATM   29  C   UNL     1       8.569  32.225  62.484  1.00  0.00     0.000 A 
HETATM   30  C   UNL     1       9.438  31.571  61.616  1.00  0.00     0.002 A 
HETATM   31  C   UNL     1       9.000  31.185  60.345  1.00  0.00     0.029 A 
ENDBRANCH  23  26
ENDBRANCH  21  22
ENDBRANCH  20  21
ENDBRANCH  19  20
ENDBRANCH   2  19
TORSDOF 10
ENDMDL
MODEL 6
REMARK VINA RESULT:      -7.8      2.266      9.788
REMARK  10 active torsions:
REMARK  status: ('A' for Active; 'I' for Inactive)
REMARK    1  A    between atoms: O_2  and  C_3 
REMARK    2  A    between atoms: C_6  and  N_7 
REMARK    3  A    between atoms: N_7  and  C_8 
REMARK    4  A    between atoms: C_8  and  N_9 
REMARK    5  A    between atoms: N_9  and  N_10 
REMARK       I    between atoms: N_10  and  C_11 
REMARK    6  A    between atoms: C_11  and  C_12 
REMARK    7  A    between atoms: C_12  and  S_13 
REMARK    8  A    between atoms: S_13  and  C_14 
REMARK    9  A    between atoms: C_14  and  C_15 
REMARK       I    between atoms: C_15  and  N_16 
REMARK   10  A    between atoms: N_16  and  C_17 
ROOT
HETATM    1  N   UNL     1       7.719  27.716  57.906  1.00  0.00    -0.267 N 
HETATM    2  C   UNL     1       7.132  26.840  57.033  1.00  0.00     0.245 C 
HETATM    3  O   UNL     1       7.140  25.636  57.296  1.00  0.00    -0.271 OA
HETATM    4  H   UNL     1       8.127  27.326  58.753  1.00  0.00     0.190 HD
ENDROOT
BRANCH   1   5
HETATM    5  N   UNL     1       7.849  29.088  57.707  1.00  0.00    -0.274 N 
HETATM    6  H   UNL     1       7.003  29.644  57.598  1.00  0.00     0.189 HD
BRANCH   5   7
HETATM    7  C   UNL     1       9.075  29.702  57.710  1.00  0.00     0.191 C 
HETATM    8  S   UNL     1      10.143  29.702  56.421  1.00  0.00    -0.039 SA
BRANCH   7   9
HETATM    9  N   UNL     1       9.464  30.311  58.871  1.00  0.00    -0.332 N 
HETATM   10  H   UNL     1      10.455  30.534  58.893  1.00  0.00     0.168 HD
BRANCH   9  11
HETATM   11  C   UNL     1       8.700  30.838  59.933  1.00  0.00     0.034 A 
HETATM   12  C   UNL     1       9.121  30.542  61.231  1.00  0.00     0.032 A 
HETATM   13  C   UNL     1       8.439  31.064  62.334  1.00  0.00     0.039 A 
HETATM   14  C   UNL     1       7.344  31.911  62.160  1.00  0.00     0.068 A 
HETATM   15  C   UNL     1       6.934  32.227  60.866  1.00  0.00     0.039 A 
HETATM   16  C   UNL     1       7.615  31.701  59.759  1.00  0.00     0.032 A 
BRANCH  14  17
HETATM   17  O   UNL     1       6.777  32.362  63.318  1.00  0.00    -0.356 OA
HETATM   18  C   UNL     1       5.356  32.353  63.386  1.00  0.00     0.210 C 
ENDBRANCH  14  17
ENDBRANCH   9  11
ENDBRANCH   7   9
ENDBRANCH   5   7
ENDBRANCH   1   5
BRANCH   2  19
HETATM   19  C   UNL     1       6.418  27.353  55.798  1.00  0.00     0.178 C 
BRANCH  19  20
HETATM   20  S   UNL     1       7.442  27.581  54.305  1.00  0.00    -0.150 SA
BRANCH  20  21
HETATM   21  C   UNL     1       6.483  26.679  53.048  1.00  0.00     0.177 C 
BRANCH  21  22
HETATM   22  C   UNL     1       6.317  25.190  53.299  1.00  0.00     0.231 C 
HETATM   23  N   UNL     1       7.505  24.507  53.479  1.00  0.00    -0.327 N 
HETATM   24  H   UNL     1       8.354  25.038  53.317  1.00  0.00     0.169 HD
HETATM   25  O   UNL     1       5.185  24.728  53.423  1.00  0.00    -0.272 OA
BRANCH  23  26
HETATM   26  C   UNL     1       7.666  23.157  53.852  1.00  0.00     0.034 A 
HETATM   27  C   UNL     1       7.848  22.112  52.945  1.00  0.00     0.029 A 
HETATM   28  C   UNL     1       7.976  20.793  53.392  1.00  0.00     0.002 A 
HETATM   29  C   UNL     1       7.925  20.507  54.753  1.00  0.00     0.000 A 
HETATM   30  C   UNL     1       7.752  21.540  55.669  1.00  0.00     0.002 A 
HETATM   31  C   UNL     1       7.623  22.860  55.221  1.00  0.00     0.029 A 
ENDBRANCH  23  26
ENDBRANCH  21  22
ENDBRANCH  20  21
ENDBRANCH  19  20
ENDBRANCH   2  19
TORSDOF 10
ENDMDL
MODEL 7
REMARK VINA RESULT:      -7.7      4.927      8.414
REMARK  10 active torsions:
REMARK  status: ('A' for Active; 'I' for Inactive)
REMARK    1  A    between atoms: O_2  and  C_3 
REMARK    2  A    between atoms: C_6  and  N_7 
REMARK    3  A    between atoms: N_7  and  C_8 
REMARK    4  A    between atoms: C_8  and  N_9 
REMARK    5  A    between atoms: N_9  and  N_10 
REMARK       I    between atoms: N_10  and  C_11 
REMARK    6  A    between atoms: C_11  and  C_12 
REMARK    7  A    between atoms: C_12  and  S_13 
REMARK    8  A    between atoms: S_13  and  C_14 
REMARK    9  A    between atoms: C_14  and  C_15 
REMARK       I    between atoms: C_15  and  N_16 
REMARK   10  A    between atoms: N_16  and  C_17 
ROOT
HETATM    1  N   UNL     1       4.050  27.710  53.865  1.00  0.00    -0.267 N 
HETATM    2  C   UNL     1       4.512  28.097  55.093  1.00  0.00     0.245 C 
HETATM    3  O   UNL     1       4.395  29.275  55.434  1.00  0.00    -0.271 OA
HETATM    4  H   UNL     1       3.609  28.424  53.287  1.00  0.00     0.190 HD
ENDROOT
BRANCH   1   5
HETATM    5  N   UNL     1       4.177  26.436  53.319  1.00  0.00    -0.274 N 
HETATM    6  H   UNL     1       3.559  25.700  53.656  1.00  0.00     0.189 HD
BRANCH   5   7
HETATM    7  C   UNL     1       5.070  26.170  52.312  1.00  0.00     0.191 C 
HETATM    8  S   UNL     1       6.729  26.074  52.513  1.00  0.00    -0.039 SA
BRANCH   7   9
HETATM    9  N   UNL     1       4.562  26.026  51.052  1.00  0.00    -0.332 N 
HETATM   10  H   UNL     1       3.966  25.209  50.952  1.00  0.00     0.168 HD
BRANCH   9  11
HETATM   11  C   UNL     1       4.576  26.904  49.948  1.00  0.00     0.034 A 
HETATM   12  C   UNL     1       4.667  28.271  50.220  1.00  0.00     0.032 A 
HETATM   13  C   UNL     1       4.727  29.199  49.176  1.00  0.00     0.039 A 
HETATM   14  C   UNL     1       4.725  28.777  47.846  1.00  0.00     0.068 A 
HETATM   15  C   UNL     1       4.656  27.413  47.570  1.00  0.00     0.039 A 
HETATM   16  C   UNL     1       4.592  26.482  48.616  1.00  0.00     0.032 A 
BRANCH  14  17
HETATM   17  O   UNL     1       4.802  29.783  46.925  1.00  0.00    -0.356 OA
HETATM   18  C   UNL     1       4.482  31.094  47.375  1.00  0.00     0.210 C 
ENDBRANCH  14  17
ENDBRANCH   9  11
ENDBRANCH   7   9
ENDBRANCH   5   7
ENDBRANCH   1   5
BRANCH   2  19
HETATM   19  C   UNL     1       5.092  27.074  56.050  1.00  0.00     0.178 C 
BRANCH  19  20
HETATM   20  S   UNL     1       6.908  27.064  56.225  1.00  0.00    -0.150 SA
BRANCH  20  21
HETATM   21  C   UNL     1       7.170  25.668  57.364  1.00  0.00     0.177 C 
BRANCH  21  22
HETATM   22  C   UNL     1       7.892  24.471  56.771  1.00  0.00     0.231 C 
HETATM   23  N   UNL     1       7.097  23.659  55.983  1.00  0.00    -0.327 N 
HETATM   24  H   UNL     1       6.107  23.880  55.972  1.00  0.00     0.169 HD
HETATM   25  O   UNL     1       9.105  24.360  56.939  1.00  0.00    -0.272 OA
BRANCH  23  26
HETATM   26  C   UNL     1       7.509  22.559  55.204  1.00  0.00     0.034 A 
HETATM   27  C   UNL     1       7.782  21.292  55.724  1.00  0.00     0.029 A 
HETATM   28  C   UNL     1       8.210  20.255  54.889  1.00  0.00     0.002 A 
HETATM   29  C   UNL     1       8.366  20.475  53.524  1.00  0.00     0.000 A 
HETATM   30  C   UNL     1       8.090  21.730  52.991  1.00  0.00     0.002 A 
HETATM   31  C   UNL     1       7.663  22.768  53.827  1.00  0.00     0.029 A 
ENDBRANCH  23  26
ENDBRANCH  21  22
ENDBRANCH  20  21
ENDBRANCH  19  20
ENDBRANCH   2  19
TORSDOF 10
ENDMDL
MODEL 8
REMARK VINA RESULT:      -7.6      1.676      2.267
REMARK  10 active torsions:
REMARK  status: ('A' for Active; 'I' for Inactive)
REMARK    1  A    between atoms: O_2  and  C_3 
REMARK    2  A    between atoms: C_6  and  N_7 
REMARK    3  A    between atoms: N_7  and  C_8 
REMARK    4  A    between atoms: C_8  and  N_9 
REMARK    5  A    between atoms: N_9  and  N_10 
REMARK       I    between atoms: N_10  and  C_11 
REMARK    6  A    between atoms: C_11  and  C_12 
REMARK    7  A    between atoms: C_12  and  S_13 
REMARK    8  A    between atoms: S_13  and  C_14 
REMARK    9  A    between atoms: C_14  and  C_15 
REMARK       I    between atoms: C_15  and  N_16 
REMARK   10  A    between atoms: N_16  and  C_17 
ROOT
HETATM    1  N   UNL     1       5.347  27.187  54.978  1.00  0.00    -0.267 N 
HETATM    2  C   UNL     1       5.866  27.343  56.234  1.00  0.00     0.245 C 
HETATM    3  O   UNL     1       5.187  27.014  57.209  1.00  0.00    -0.271 OA
HETATM    4  H   UNL     1       4.414  26.785  54.906  1.00  0.00     0.190 HD
ENDROOT
BRANCH   1   5
HETATM    5  N   UNL     1       5.966  27.579  53.794  1.00  0.00    -0.274 N 
HETATM    6  H   UNL     1       6.096  28.574  53.620  1.00  0.00     0.189 HD
BRANCH   5   7
HETATM    7  C   UNL     1       6.445  26.660  52.896  1.00  0.00     0.191 C 
HETATM    8  S   UNL     1       5.753  26.334  51.406  1.00  0.00    -0.039 SA
BRANCH   7   9
HETATM    9  N   UNL     1       7.536  25.928  53.274  1.00  0.00    -0.332 N 
HETATM   10  H   UNL     1       8.360  26.497  53.444  1.00  0.00     0.168 HD
BRANCH   9  11
HETATM   11  C   UNL     1       7.650  24.571  53.643  1.00  0.00     0.034 A 
HETATM   12  C   UNL     1       7.315  24.235  54.956  1.00  0.00     0.032 A 
HETATM   13  C   UNL     1       7.364  22.905  55.382  1.00  0.00     0.039 A 
HETATM   14  C   UNL     1       7.722  21.886  54.499  1.00  0.00     0.068 A 
HETATM   15  C   UNL     1       8.036  22.214  53.181  1.00  0.00     0.039 A 
HETATM   16  C   UNL     1       7.991  23.549  52.754  1.00  0.00     0.032 A 
BRANCH  14  17
HETATM   17  O   UNL     1       7.717  20.631  55.038  1.00  0.00    -0.356 OA
HETATM   18  C   UNL     1       8.937  19.899  54.979  1.00  0.00     0.210 C 
ENDBRANCH  14  17
ENDBRANCH   9  11
ENDBRANCH   7   9
ENDBRANCH   5   7
ENDBRANCH   1   5
BRANCH   2  19
HETATM   19  C   UNL     1       7.285  27.844  56.420  1.00  0.00     0.178 C 
BRANCH  19  20
HETATM   20  S   UNL     1       7.482  29.635  56.706  1.00  0.00    -0.150 SA
BRANCH  20  21
HETATM   21  C   UNL     1       8.020  29.683  58.445  1.00  0.00     0.177 C 
BRANCH  21  22
HETATM   22  C   UNL     1       7.604  30.920  59.221  1.00  0.00     0.231 C 
HETATM   23  N   UNL     1       7.530  30.735  60.589  1.00  0.00    -0.327 N 
HETATM   24  H   UNL     1       7.650  29.783  60.919  1.00  0.00     0.169 HD
HETATM   25  O   UNL     1       7.465  31.983  58.621  1.00  0.00    -0.272 OA
BRANCH  23  26
HETATM   26  C   UNL     1       7.298  31.719  61.572  1.00  0.00     0.034 A 
HETATM   27  C   UNL     1       6.247  32.638  61.525  1.00  0.00     0.029 A 
HETATM   28  C   UNL     1       6.097  33.601  62.527  1.00  0.00     0.002 A 
HETATM   29  C   UNL     1       6.996  33.654  63.588  1.00  0.00     0.000 A 
HETATM   30  C   UNL     1       8.043  32.740  63.651  1.00  0.00     0.002 A 
HETATM   31  C   UNL     1       8.194  31.776  62.648  1.00  0.00     0.029 A 
ENDBRANCH  23  26
ENDBRANCH  21  22
ENDBRANCH  20  21
ENDBRANCH  19  20
ENDBRANCH   2  19
TORSDOF 10
ENDMDL
MODEL 9
REMARK VINA RESULT:      -7.5      2.356      2.890
REMARK  10 active torsions:
REMARK  status: ('A' for Active; 'I' for Inactive)
REMARK    1  A    between atoms: O_2  and  C_3 
REMARK    2  A    between atoms: C_6  and  N_7 
REMARK    3  A    between atoms: N_7  and  C_8 
REMARK    4  A    between atoms: C_8  and  N_9 
REMARK    5  A    between atoms: N_9  and  N_10 
REMARK       I    between atoms: N_10  and  C_11 
REMARK    6  A    between atoms: C_11  and  C_12 
REMARK    7  A    between atoms: C_12  and  S_13 
REMARK    8  A    between atoms: S_13  and  C_14 
REMARK    9  A    between atoms: C_14  and  C_15 
REMARK       I    between atoms: C_15  and  N_16 
REMARK   10  A    between atoms: N_16  and  C_17 
ROOT
HETATM    1  N   UNL     1       4.958  27.331  56.072  1.00  0.00    -0.267 N 
HETATM    2  C   UNL     1       4.470  28.601  56.220  1.00  0.00     0.245 C 
HETATM    3  O   UNL     1       3.589  28.998  55.454  1.00  0.00    -0.271 OA
HETATM    4  H   UNL     1       4.551  26.759  55.334  1.00  0.00     0.190 HD
ENDROOT
BRANCH   1   5
HETATM    5  N   UNL     1       5.997  26.774  56.813  1.00  0.00    -0.274 N 
HETATM    6  H   UNL     1       5.779  26.354  57.715  1.00  0.00     0.189 HD
BRANCH   5   7
HETATM    7  C   UNL     1       7.281  26.735  56.333  1.00  0.00     0.191 C 
HETATM    8  S   UNL     1       8.577  27.550  57.011  1.00  0.00    -0.039 SA
BRANCH   7   9
HETATM    9  N   UNL     1       7.497  26.016  55.190  1.00  0.00    -0.332 N 
HETATM   10  H   UNL     1       7.816  26.588  54.413  1.00  0.00     0.168 HD
BRANCH   9  11
HETATM   11  C   UNL     1       7.532  24.623  54.972  1.00  0.00     0.034 A 
HETATM   12  C   UNL     1       7.617  24.185  53.649  1.00  0.00     0.032 A 
HETATM   13  C   UNL     1       7.697  22.820  53.358  1.00  0.00     0.039 A 
HETATM   14  C   UNL     1       7.721  21.873  54.382  1.00  0.00     0.068 A 
HETATM   15  C   UNL     1       7.659  22.307  55.705  1.00  0.00     0.039 A 
HETATM   16  C   UNL     1       7.574  23.675  55.998  1.00  0.00     0.032 A 
BRANCH  14  17
HETATM   17  O   UNL     1       7.816  20.576  53.962  1.00  0.00    -0.356 OA
HETATM   18  C   UNL     1       8.426  20.352  52.696  1.00  0.00     0.210 C 
ENDBRANCH  14  17
ENDBRANCH   9  11
ENDBRANCH   7   9
ENDBRANCH   5   7
ENDBRANCH   1   5
BRANCH   2  19
HETATM   19  C   UNL     1       4.955  29.480  57.355  1.00  0.00     0.178 C 
BRANCH  19  20
HETATM   20  S   UNL     1       6.215  30.730  56.932  1.00  0.00    -0.150 SA
BRANCH  20  21
HETATM   21  C   UNL     1       7.275  30.715  58.413  1.00  0.00     0.177 C 
BRANCH  21  22
HETATM   22  C   UNL     1       6.827  31.623  59.544  1.00  0.00     0.231 C 
HETATM   23  N   UNL     1       7.107  31.139  60.808  1.00  0.00    -0.327 N 
HETATM   24  H   UNL     1       7.476  30.196  60.854  1.00  0.00     0.169 HD
HETATM   25  O   UNL     1       6.356  32.726  59.274  1.00  0.00    -0.272 OA
BRANCH  23  26
HETATM   26  C   UNL     1       6.930  31.809  62.037  1.00  0.00     0.034 A 
HETATM   27  C   UNL     1       5.686  32.049  62.624  1.00  0.00     0.029 A 
HETATM   28  C   UNL     1       5.590  32.742  63.834  1.00  0.00     0.002 A 
HETATM   29  C   UNL     1       6.739  33.199  64.472  1.00  0.00     0.000 A 
HETATM   30  C   UNL     1       7.986  32.959  63.903  1.00  0.00     0.002 A 
HETATM   31  C   UNL     1       8.082  32.267  62.691  1.00  0.00     0.029 A 
ENDBRANCH  23  26
ENDBRANCH  21  22
ENDBRANCH  20  21
ENDBRANCH  19  20
ENDBRANCH   2  19
TORSDOF 10
ENDMDL
MODEL 10
REMARK VINA RESULT:      -7.4      3.650     10.941
REMARK  10 active torsions:
REMARK  status: ('A' for Active; 'I' for Inactive)
REMARK    1  A    between atoms: O_2  and  C_3 
REMARK    2  A    between atoms: C_6  and  N_7 
REMARK    3  A    between atoms: N_7  and  C_8 
REMARK    4  A    between atoms: C_8  and  N_9 
REMARK    5  A    between atoms: N_9  and  N_10 
REMARK       I    between atoms: N_10  and  C_11 
REMARK    6  A    between atoms: C_11  and  C_12 
REMARK    7  A    between atoms: C_12  and  S_13 
REMARK    8  A    between atoms: S_13  and  C_14 
REMARK    9  A    between atoms: C_14  and  C_15 
REMARK       I    between atoms: C_15  and  N_16 
REMARK   10  A    between atoms: N_16  and  C_17 
ROOT
HETATM    1  N   UNL     1       6.849  30.816  59.039  1.00  0.00    -0.267 N 
HETATM    2  C   UNL     1       7.625  29.793  58.567  1.00  0.00     0.245 C 
HETATM    3  O   UNL     1       8.811  29.738  58.897  1.00  0.00    -0.271 OA
HETATM    4  H   UNL     1       7.292  31.486  59.665  1.00  0.00     0.190 HD
ENDROOT
BRANCH   1   5
HETATM    5  N   UNL     1       5.519  31.045  58.696  1.00  0.00    -0.274 N 
HETATM    6  H   UNL     1       5.065  30.398  58.053  1.00  0.00     0.189 HD
BRANCH   5   7
HETATM    7  C   UNL     1       4.804  32.080  59.242  1.00  0.00     0.191 C 
HETATM    8  S   UNL     1       4.680  33.609  58.572  1.00  0.00    -0.039 SA
BRANCH   7   9
HETATM    9  N   UNL     1       4.195  31.851  60.444  1.00  0.00    -0.332 N 
HETATM   10  H   UNL     1       3.591  31.034  60.436  1.00  0.00     0.168 HD
BRANCH   9  11
HETATM   11  C   UNL     1       4.409  32.434  61.710  1.00  0.00     0.034 A 
HETATM   12  C   UNL     1       3.424  33.301  62.189  1.00  0.00     0.032 A 
HETATM   13  C   UNL     1       3.548  33.884  63.453  1.00  0.00     0.039 A 
HETATM   14  C   UNL     1       4.641  33.592  64.270  1.00  0.00     0.068 A 
HETATM   15  C   UNL     1       5.614  32.710  63.805  1.00  0.00     0.039 A 
HETATM   16  C   UNL     1       5.493  32.127  62.536  1.00  0.00     0.032 A 
BRANCH  14  17
HETATM   17  O   UNL     1       4.633  34.216  65.485  1.00  0.00    -0.356 OA
HETATM   18  C   UNL     1       3.668  35.245  65.674  1.00  0.00     0.210 C 
ENDBRANCH  14  17
ENDBRANCH   9  11
ENDBRANCH   7   9
ENDBRANCH   5   7
ENDBRANCH   1   5
BRANCH   2  19
HETATM   19  C   UNL     1       7.015  28.702  57.709  1.00  0.00     0.178 C 
BRANCH  19  20
HETATM   20  S   UNL     1       8.172  27.475  57.011  1.00  0.00    -0.150 SA
BRANCH  20  21
HETATM   21  C   UNL     1       7.389  25.903  57.491  1.00  0.00     0.177 C 
BRANCH  21  22
HETATM   22  C   UNL     1       7.994  24.658  56.867  1.00  0.00     0.231 C 
HETATM   23  N   UNL     1       7.166  24.009  55.971  1.00  0.00    -0.327 N 
HETATM   24  H   UNL     1       6.216  24.360  55.905  1.00  0.00     0.169 HD
HETATM   25  O   UNL     1       9.166  24.376  57.111  1.00  0.00    -0.272 OA
BRANCH  23  26
HETATM   26  C   UNL     1       7.492  22.912  55.146  1.00  0.00     0.034 A 
HETATM   27  C   UNL     1       7.646  22.995  53.761  1.00  0.00     0.029 A 
HETATM   28  C   UNL     1       7.946  21.857  53.007  1.00  0.00     0.002 A 
HETATM   29  C   UNL     1       8.098  20.623  53.633  1.00  0.00     0.000 A 
HETATM   30  C   UNL     1       7.955  20.527  55.014  1.00  0.00     0.002 A 
HETATM   31  C   UNL     1       7.653  21.667  55.768  1.00  0.00     0.029 A 
ENDBRANCH  23  26
ENDBRANCH  21  22
ENDBRANCH  20  21
ENDBRANCH  19  20
ENDBRANCH   2  19
TORSDOF 10
ENDMDL
