MODEL 1
REMARK VINA RESULT:      -9.7      0.000      0.000
REMARK  6 active torsions:
REMARK  status: ('A' for Active; 'I' for Inactive)
REMARK    1  A    between atoms: C_2  and  C_3 
REMARK       I    between atoms: C_3  and  N_4 
REMARK    2  A    between atoms: N_4  and  C_5 
REMARK    3  A    between atoms: C_8  and  N_9 
REMARK       I    between atoms: N_9  and  C_10 
REMARK    4  A    between atoms: C_10  and  C_11 
REMARK    5  A    between atoms: C_16  and  C_17 
REMARK    6  A    between atoms: C_23  and  C_24 
ROOT
HETATM    1  C   UNL     1       7.975  31.022  58.534  1.00  0.00     0.148 A 
HETATM    2  N   UNL     1       6.782  30.919  57.902  1.00  0.00    -0.165 NA
HETATM    3  N   UNL     1       7.007  29.991  56.952  1.00  0.00    -0.240 N 
HETATM    4  C   UNL     1       8.289  29.514  56.938  1.00  0.00     0.123 A 
HETATM    5  N   UNL     1       8.701  28.610  56.024  1.00  0.00    -0.364 N 
HETATM    6  C   UNL     1       7.747  27.914  55.159  1.00  0.00     0.143 C 
HETATM    7  C   UNL     1       6.590  28.864  54.800  1.00  0.00     0.068 C 
HETATM    8  C   UNL     1       5.978  29.604  56.006  1.00  0.00     0.221 C 
HETATM    9  C   UNL     1       8.942  30.157  57.955  1.00  0.00     0.089 A 
HETATM   10  H   UNL     1       9.600  28.143  56.132  1.00  0.00     0.162 HD
ENDROOT
BRANCH   1  11
HETATM   11  C   UNL     1       8.181  31.943  59.667  1.00  0.00     0.276 C 
HETATM   12  N   UNL     1       7.217  31.774  60.643  1.00  0.00    -0.322 N 
HETATM   13  H   UNL     1       6.560  31.026  60.433  1.00  0.00     0.169 HD
HETATM   14  O   UNL     1       9.120  32.730  59.688  1.00  0.00    -0.266 OA
BRANCH  12  15
HETATM   15  C   UNL     1       7.047  32.492  61.836  1.00  0.00     0.035 A 
HETATM   16  C   UNL     1       6.147  33.545  61.990  1.00  0.00     0.032 A 
HETATM   17  C   UNL     1       6.006  34.191  63.228  1.00  0.00     0.032 A 
HETATM   18  C   UNL     1       6.765  33.796  64.328  1.00  0.00     0.034 A 
HETATM   19  C   UNL     1       7.679  32.749  64.168  1.00  0.00     0.032 A 
HETATM   20  C   UNL     1       7.818  32.103  62.934  1.00  0.00     0.032 A 
BRANCH  18  21
HETATM   21  N   UNL     1       6.661  34.369  65.613  1.00  0.00    -0.327 N 
HETATM   22  C   UNL     1       5.595  34.284  66.490  1.00  0.00     0.221 C 
HETATM   23  O   UNL     1       4.534  33.700  66.294  1.00  0.00    -0.273 OA
HETATM   24  H   UNL     1       7.465  34.897  65.920  1.00  0.00     0.169 HD
BRANCH  22  25
HETATM   25  C   UNL     1       5.860  34.952  67.831  1.00  0.00     0.098 C 
HETATM   26  C   UNL     1       7.194  34.577  68.452  1.00  0.00     0.014 C 
ENDBRANCH  22  25
ENDBRANCH  18  21
ENDBRANCH  12  15
ENDBRANCH   1  11
BRANCH   8  27
HETATM   27  C   UNL     1       4.882  28.833  56.707  1.00  0.00     0.409 C 
HETATM   28  F   UNL     1       5.351  28.163  57.788  1.00  0.00    -0.169 F 
HETATM   29  F   UNL     1       3.935  29.684  57.178  1.00  0.00    -0.169 F 
HETATM   30  F   UNL     1       4.259  27.936  55.922  1.00  0.00    -0.169 F 
ENDBRANCH   8  27
BRANCH   6  31
HETATM   31  C   UNL     1       7.283  26.589  55.669  1.00  0.00     0.075 A 
HETATM   32  O   UNL     1       6.426  25.896  54.863  1.00  0.00    -0.325 OA
HETATM   33  C   UNL     1       6.143  24.727  55.492  1.00  0.00     0.142 A 
HETATM   34  C   UNL     1       6.808  24.653  56.693  1.00  0.00     0.027 A 
HETATM   35  C   UNL     1       7.553  25.851  56.805  1.00  0.00     0.037 A 
ENDBRANCH   6  31
TORSDOF 6
ENDMDL
MODEL 2
REMARK VINA RESULT:      -9.1      5.319      8.003
REMARK  6 active torsions:
REMARK  status: ('A' for Active; 'I' for Inactive)
REMARK    1  A    between atoms: C_2  and  C_3 
REMARK       I    between atoms: C_3  and  N_4 
REMARK    2  A    between atoms: N_4  and  C_5 
REMARK    3  A    between atoms: C_8  and  N_9 
REMARK       I    between atoms: N_9  and  C_10 
REMARK    4  A    between atoms: C_10  and  C_11 
REMARK    5  A    between atoms: C_16  and  C_17 
REMARK    6  A    between atoms: C_23  and  C_24 
ROOT
HETATM    1  C   UNL     1       5.757  27.726  52.504  1.00  0.00     0.148 A 
HETATM    2  N   UNL     1       5.740  28.883  51.801  1.00  0.00    -0.165 NA
HETATM    3  N   UNL     1       5.443  28.488  50.548  1.00  0.00    -0.240 N 
HETATM    4  C   UNL     1       5.290  27.134  50.418  1.00  0.00     0.123 A 
HETATM    5  N   UNL     1       5.032  26.560  49.223  1.00  0.00    -0.364 N 
HETATM    6  C   UNL     1       4.665  27.364  48.057  1.00  0.00     0.143 C 
HETATM    7  C   UNL     1       5.427  28.702  48.093  1.00  0.00     0.068 C 
HETATM    8  C   UNL     1       5.365  29.431  49.450  1.00  0.00     0.221 C 
HETATM    9  C   UNL     1       5.481  26.610  51.668  1.00  0.00     0.089 A 
HETATM   10  H   UNL     1       4.756  25.581  49.172  1.00  0.00     0.162 HD
ENDROOT
BRANCH   1  11
HETATM   11  C   UNL     1       6.044  27.695  53.950  1.00  0.00     0.276 C 
HETATM   12  N   UNL     1       6.771  28.800  54.349  1.00  0.00    -0.322 N 
HETATM   13  H   UNL     1       6.949  29.458  53.593  1.00  0.00     0.169 HD
HETATM   14  O   UNL     1       5.647  26.779  54.661  1.00  0.00    -0.266 OA
BRANCH  12  15
HETATM   15  C   UNL     1       7.275  29.101  55.623  1.00  0.00     0.035 A 
HETATM   16  C   UNL     1       8.549  28.746  56.061  1.00  0.00     0.032 A 
HETATM   17  C   UNL     1       8.996  29.115  57.339  1.00  0.00     0.032 A 
HETATM   18  C   UNL     1       8.174  29.844  58.198  1.00  0.00     0.034 A 
HETATM   19  C   UNL     1       6.890  30.187  57.763  1.00  0.00     0.032 A 
HETATM   20  C   UNL     1       6.445  29.820  56.487  1.00  0.00     0.032 A 
BRANCH  18  21
HETATM   21  N   UNL     1       8.558  30.283  59.482  1.00  0.00    -0.327 N 
HETATM   22  C   UNL     1       9.160  31.482  59.818  1.00  0.00     0.221 C 
HETATM   23  O   UNL     1       9.483  32.378  59.044  1.00  0.00    -0.273 OA
HETATM   24  H   UNL     1       8.362  29.642  60.238  1.00  0.00     0.169 HD
BRANCH  22  25
HETATM   25  C   UNL     1       9.353  31.663  61.316  1.00  0.00     0.098 C 
HETATM   26  C   UNL     1       9.281  30.369  62.108  1.00  0.00     0.014 C 
ENDBRANCH  22  25
ENDBRANCH  18  21
ENDBRANCH  12  15
ENDBRANCH   1  11
BRANCH   8  27
HETATM   27  C   UNL     1       4.156  30.326  49.611  1.00  0.00     0.409 C 
HETATM   28  F   UNL     1       4.426  31.402  50.390  1.00  0.00    -0.169 F 
HETATM   29  F   UNL     1       3.776  30.825  48.406  1.00  0.00    -0.169 F 
HETATM   30  F   UNL     1       3.086  29.706  50.142  1.00  0.00    -0.169 F 
ENDBRANCH   8  27
BRANCH   6  31
HETATM   31  C   UNL     1       3.197  27.529  47.841  1.00  0.00     0.075 A 
HETATM   32  O   UNL     1       2.821  28.466  46.922  1.00  0.00    -0.325 OA
HETATM   33  C   UNL     1       1.465  28.447  46.863  1.00  0.00     0.142 A 
HETATM   34  C   UNL     1       0.958  27.507  47.729  1.00  0.00     0.027 A 
HETATM   35  C   UNL     1       2.076  26.906  48.355  1.00  0.00     0.037 A 
ENDBRANCH   6  31
TORSDOF 6
ENDMDL
MODEL 3
REMARK VINA RESULT:      -8.8      1.254      1.804
REMARK  6 active torsions:
REMARK  status: ('A' for Active; 'I' for Inactive)
REMARK    1  A    between atoms: C_2  and  C_3 
REMARK       I    between atoms: C_3  and  N_4 
REMARK    2  A    between atoms: N_4  and  C_5 
REMARK    3  A    between atoms: C_8  and  N_9 
REMARK       I    between atoms: N_9  and  C_10 
REMARK    4  A    between atoms: C_10  and  C_11 
REMARK    5  A    between atoms: C_16  and  C_17 
REMARK    6  A    between atoms: C_23  and  C_24 
ROOT
HETATM    1  C   UNL     1       7.910  30.078  57.661  1.00  0.00     0.148 A 
HETATM    2  N   UNL     1       6.638  30.033  57.200  1.00  0.00    -0.165 NA
HETATM    3  N   UNL     1       6.752  29.398  56.017  1.00  0.00    -0.240 N 
HETATM    4  C   UNL     1       8.037  29.056  55.697  1.00  0.00     0.123 A 
HETATM    5  N   UNL     1       8.340  28.451  54.528  1.00  0.00    -0.364 N 
HETATM    6  C   UNL     1       7.295  27.916  53.655  1.00  0.00     0.143 C 
HETATM    7  C   UNL     1       6.051  28.821  53.726  1.00  0.00     0.068 C 
HETATM    8  C   UNL     1       5.605  29.175  55.159  1.00  0.00     0.221 C 
HETATM    9  C   UNL     1       8.813  29.475  56.743  1.00  0.00     0.089 A 
HETATM   10  H   UNL     1       9.267  28.054  54.380  1.00  0.00     0.162 HD
ENDROOT
BRANCH   1  11
HETATM   11  C   UNL     1       8.251  30.697  58.955  1.00  0.00     0.276 C 
HETATM   12  N   UNL     1       7.119  31.073  59.653  1.00  0.00    -0.322 N 
HETATM   13  H   UNL     1       6.254  30.827  59.177  1.00  0.00     0.169 HD
HETATM   14  O   UNL     1       9.415  30.821  59.318  1.00  0.00    -0.266 OA
BRANCH  12  15
HETATM   15  C   UNL     1       7.033  31.734  60.887  1.00  0.00     0.035 A 
HETATM   16  C   UNL     1       7.809  31.412  61.999  1.00  0.00     0.032 A 
HETATM   17  C   UNL     1       7.692  32.146  63.190  1.00  0.00     0.032 A 
HETATM   18  C   UNL     1       6.797  33.210  63.287  1.00  0.00     0.034 A 
HETATM   19  C   UNL     1       6.008  33.522  62.175  1.00  0.00     0.032 A 
HETATM   20  C   UNL     1       6.126  32.792  60.986  1.00  0.00     0.032 A 
BRANCH  18  21
HETATM   21  N   UNL     1       6.643  34.017  64.433  1.00  0.00    -0.327 N 
HETATM   22  C   UNL     1       5.636  33.953  65.380  1.00  0.00     0.221 C 
HETATM   23  O   UNL     1       4.681  33.183  65.378  1.00  0.00    -0.273 OA
HETATM   24  H   UNL     1       7.358  34.717  64.572  1.00  0.00     0.169 HD
BRANCH  22  25
HETATM   25  C   UNL     1       5.833  34.921  66.537  1.00  0.00     0.098 C 
HETATM   26  C   UNL     1       6.258  34.253  67.833  1.00  0.00     0.014 C 
ENDBRANCH  22  25
ENDBRANCH  18  21
ENDBRANCH  12  15
ENDBRANCH   1  11
BRANCH   8  27
HETATM   27  C   UNL     1       4.674  28.158  55.781  1.00  0.00     0.409 C 
HETATM   28  F   UNL     1       4.159  27.314  54.854  1.00  0.00    -0.169 F 
HETATM   29  F   UNL     1       5.351  27.376  56.661  1.00  0.00    -0.169 F 
HETATM   30  F   UNL     1       3.638  28.702  56.445  1.00  0.00    -0.169 F 
ENDBRANCH   8  27
BRANCH   6  31
HETATM   31  C   UNL     1       6.983  26.470  53.858  1.00  0.00     0.075 A 
HETATM   32  O   UNL     1       6.205  25.878  52.905  1.00  0.00    -0.325 OA
HETATM   33  C   UNL     1       6.056  24.577  53.262  1.00  0.00     0.142 A 
HETATM   34  C   UNL     1       6.730  24.318  54.432  1.00  0.00     0.027 A 
HETATM   35  C   UNL     1       7.338  25.538  54.814  1.00  0.00     0.037 A 
ENDBRANCH   6  31
TORSDOF 6
ENDMDL
MODEL 4
REMARK VINA RESULT:      -8.6      3.269     10.419
REMARK  6 active torsions:
REMARK  status: ('A' for Active; 'I' for Inactive)
REMARK    1  A    between atoms: C_2  and  C_3 
REMARK       I    between atoms: C_3  and  N_4 
REMARK    2  A    between atoms: N_4  and  C_5 
REMARK    3  A    between atoms: C_8  and  N_9 
REMARK       I    between atoms: N_9  and  C_10 
REMARK    4  A    between atoms: C_10  and  C_11 
REMARK    5  A    between atoms: C_16  and  C_17 
REMARK    6  A    between atoms: C_23  and  C_24 
ROOT
HETATM    1  C   UNL     1       8.059  29.654  58.238  1.00  0.00     0.148 A 
HETATM    2  N   UNL     1       8.867  30.101  59.228  1.00  0.00    -0.165 NA
HETATM    3  N   UNL     1       8.211  31.173  59.713  1.00  0.00    -0.240 N 
HETATM    4  C   UNL     1       7.036  31.439  59.065  1.00  0.00     0.123 A 
HETATM    5  N   UNL     1       6.270  32.502  59.392  1.00  0.00    -0.364 N 
HETATM    6  C   UNL     1       6.528  33.282  60.604  1.00  0.00     0.143 C 
HETATM    7  C   UNL     1       8.045  33.347  60.861  1.00  0.00     0.068 C 
HETATM    8  C   UNL     1       8.762  31.985  60.780  1.00  0.00     0.221 C 
HETATM    9  C   UNL     1       6.903  30.471  58.108  1.00  0.00     0.089 A 
HETATM   10  H   UNL     1       5.326  32.589  59.020  1.00  0.00     0.162 HD
ENDROOT
BRANCH   1  11
HETATM   11  C   UNL     1       8.399  28.470  57.427  1.00  0.00     0.276 C 
HETATM   12  N   UNL     1       7.303  27.650  57.239  1.00  0.00    -0.322 N 
HETATM   13  H   UNL     1       6.450  28.018  57.655  1.00  0.00     0.169 HD
HETATM   14  O   UNL     1       9.531  28.298  56.990  1.00  0.00    -0.266 OA
BRANCH  12  15
HETATM   15  C   UNL     1       7.239  26.417  56.574  1.00  0.00     0.035 A 
HETATM   16  C   UNL     1       6.712  26.247  55.295  1.00  0.00     0.032 A 
HETATM   17  C   UNL     1       6.717  24.986  54.680  1.00  0.00     0.032 A 
HETATM   18  C   UNL     1       7.247  23.876  55.335  1.00  0.00     0.034 A 
HETATM   19  C   UNL     1       7.761  24.044  56.625  1.00  0.00     0.032 A 
HETATM   20  C   UNL     1       7.758  25.303  57.238  1.00  0.00     0.032 A 
BRANCH  18  21
HETATM   21  N   UNL     1       7.321  22.583  54.776  1.00  0.00    -0.327 N 
HETATM   22  C   UNL     1       7.736  22.238  53.503  1.00  0.00     0.221 C 
HETATM   23  O   UNL     1       8.103  23.008  52.622  1.00  0.00    -0.273 OA
HETATM   24  H   UNL     1       7.039  21.828  55.386  1.00  0.00     0.169 HD
BRANCH  22  25
HETATM   25  C   UNL     1       7.774  20.735  53.266  1.00  0.00     0.098 C 
HETATM   26  C   UNL     1       8.789  20.001  54.124  1.00  0.00     0.014 C 
ENDBRANCH  22  25
ENDBRANCH  18  21
ENDBRANCH  12  15
ENDBRANCH   1  11
BRANCH   8  27
HETATM   27  C   UNL     1       8.761  31.214  62.081  1.00  0.00     0.409 C 
HETATM   28  F   UNL     1       8.785  32.039  63.156  1.00  0.00    -0.169 F 
HETATM   29  F   UNL     1       7.621  30.485  62.196  1.00  0.00    -0.169 F 
HETATM   30  F   UNL     1       9.794  30.361  62.210  1.00  0.00    -0.169 F 
ENDBRANCH   8  27
BRANCH   6  31
HETATM   31  C   UNL     1       5.746  32.859  61.804  1.00  0.00     0.075 A 
HETATM   32  O   UNL     1       6.118  33.414  62.995  1.00  0.00    -0.325 OA
HETATM   33  C   UNL     1       5.282  32.919  63.944  1.00  0.00     0.142 A 
HETATM   34  C   UNL     1       4.372  32.055  63.382  1.00  0.00     0.027 A 
HETATM   35  C   UNL     1       4.664  32.022  61.997  1.00  0.00     0.037 A 
ENDBRANCH   6  31
TORSDOF 6
ENDMDL
MODEL 5
REMARK VINA RESULT:      -8.4      3.664     10.614
REMARK  6 active torsions:
REMARK  status: ('A' for Active; 'I' for Inactive)
REMARK    1  A    between atoms: C_2  and  C_3 
REMARK       I    between atoms: C_3  and  N_4 
REMARK    2  A    between atoms: N_4  and  C_5 
REMARK    3  A    between atoms: C_8  and  N_9 
REMARK       I    between atoms: N_9  and  C_10 
REMARK    4  A    between atoms: C_10  and  C_11 
REMARK    5  A    between atoms: C_16  and  C_17 
REMARK    6  A    between atoms: C_23  and  C_24 
ROOT
HETATM    1  C   UNL     1       4.584  32.816  59.784  1.00  0.00     0.148 A 
HETATM    2  N   UNL     1       4.723  34.142  60.017  1.00  0.00    -0.165 NA
HETATM    3  N   UNL     1       4.076  34.328  61.184  1.00  0.00    -0.240 N 
HETATM    4  C   UNL     1       3.517  33.188  61.692  1.00  0.00     0.123 A 
HETATM    5  N   UNL     1       2.795  33.199  62.834  1.00  0.00    -0.364 N 
HETATM    6  C   UNL     1       2.774  34.371  63.709  1.00  0.00     0.143 C 
HETATM    7  C   UNL     1       2.842  35.652  62.857  1.00  0.00     0.068 C 
HETATM    8  C   UNL     1       3.949  35.642  61.783  1.00  0.00     0.221 C 
HETATM    9  C   UNL     1       3.833  32.187  60.814  1.00  0.00     0.089 A 
HETATM   10  H   UNL     1       2.533  32.324  63.284  1.00  0.00     0.162 HD
ENDROOT
BRANCH   1  11
HETATM   11  C   UNL     1       5.156  32.169  58.588  1.00  0.00     0.276 C 
HETATM   12  N   UNL     1       4.788  30.840  58.503  1.00  0.00    -0.322 N 
HETATM   13  H   UNL     1       4.161  30.548  59.250  1.00  0.00     0.169 HD
HETATM   14  O   UNL     1       5.854  32.792  57.797  1.00  0.00    -0.266 OA
BRANCH  12  15
HETATM   15  C   UNL     1       5.170  29.887  57.547  1.00  0.00     0.035 A 
HETATM   16  C   UNL     1       6.422  29.277  57.512  1.00  0.00     0.032 A 
HETATM   17  C   UNL     1       6.717  28.304  56.544  1.00  0.00     0.032 A 
HETATM   18  C   UNL     1       5.765  27.929  55.598  1.00  0.00     0.034 A 
HETATM   19  C   UNL     1       4.514  28.552  55.625  1.00  0.00     0.032 A 
HETATM   20  C   UNL     1       4.218  29.522  56.591  1.00  0.00     0.032 A 
BRANCH  18  21
HETATM   21  N   UNL     1       5.970  26.937  54.616  1.00  0.00    -0.327 N 
HETATM   22  C   UNL     1       5.887  25.566  54.772  1.00  0.00     0.221 C 
HETATM   23  O   UNL     1       5.632  24.964  55.810  1.00  0.00    -0.273 OA
HETATM   24  H   UNL     1       6.199  27.280  53.693  1.00  0.00     0.169 HD
BRANCH  22  25
HETATM   25  C   UNL     1       6.081  24.796  53.474  1.00  0.00     0.098 C 
HETATM   26  C   UNL     1       4.884  24.850  52.540  1.00  0.00     0.014 C 
ENDBRANCH  22  25
ENDBRANCH  18  21
ENDBRANCH  12  15
ENDBRANCH   1  11
BRANCH   8  27
HETATM   27  C   UNL     1       5.292  36.125  62.284  1.00  0.00     0.409 C 
HETATM   28  F   UNL     1       5.851  37.025  61.438  1.00  0.00    -0.169 F 
HETATM   29  F   UNL     1       5.149  36.768  63.471  1.00  0.00    -0.169 F 
HETATM   30  F   UNL     1       6.190  35.140  62.468  1.00  0.00    -0.169 F 
ENDBRANCH   8  27
BRANCH   6  31
HETATM   31  C   UNL     1       3.775  34.349  64.817  1.00  0.00     0.075 A 
HETATM   32  O   UNL     1       3.588  35.255  65.821  1.00  0.00    -0.325 OA
HETATM   33  C   UNL     1       4.582  35.060  66.726  1.00  0.00     0.142 A 
HETATM   34  C   UNL     1       5.406  34.037  66.323  1.00  0.00     0.027 A 
HETATM   35  C   UNL     1       4.882  33.569  65.094  1.00  0.00     0.037 A 
ENDBRANCH   6  31
TORSDOF 6
ENDMDL
MODEL 6
REMARK VINA RESULT:      -8.4     10.304     12.322
REMARK  6 active torsions:
REMARK  status: ('A' for Active; 'I' for Inactive)
REMARK    1  A    between atoms: C_2  and  C_3 
REMARK       I    between atoms: C_3  and  N_4 
REMARK    2  A    between atoms: N_4  and  C_5 
REMARK    3  A    between atoms: C_8  and  N_9 
REMARK       I    between atoms: N_9  and  C_10 
REMARK    4  A    between atoms: C_10  and  C_11 
REMARK    5  A    between atoms: C_16  and  C_17 
REMARK    6  A    between atoms: C_23  and  C_24 
ROOT
HETATM    1  C   UNL     1       4.939  28.409  50.363  1.00  0.00     0.148 A 
HETATM    2  N   UNL     1       4.065  28.757  49.389  1.00  0.00    -0.165 NA
HETATM    3  N   UNL     1       4.111  30.104  49.391  1.00  0.00    -0.240 N 
HETATM    4  C   UNL     1       4.956  30.626  50.331  1.00  0.00     0.123 A 
HETATM    5  N   UNL     1       5.093  31.959  50.502  1.00  0.00    -0.364 N 
HETATM    6  C   UNL     1       4.535  32.910  49.539  1.00  0.00     0.143 C 
HETATM    7  C   UNL     1       3.208  32.360  48.983  1.00  0.00     0.068 C 
HETATM    8  C   UNL     1       3.277  30.895  48.508  1.00  0.00     0.221 C 
HETATM    9  C   UNL     1       5.515  29.555  50.975  1.00  0.00     0.089 A 
HETATM   10  H   UNL     1       5.843  32.328  51.082  1.00  0.00     0.162 HD
ENDROOT
BRANCH   1  11
HETATM   11  C   UNL     1       5.207  26.999  50.703  1.00  0.00     0.276 C 
HETATM   12  N   UNL     1       5.993  26.888  51.834  1.00  0.00    -0.322 N 
HETATM   13  H   UNL     1       6.218  27.787  52.256  1.00  0.00     0.169 HD
HETATM   14  O   UNL     1       4.749  26.082  50.032  1.00  0.00    -0.266 OA
BRANCH  12  15
HETATM   15  C   UNL     1       6.499  25.727  52.436  1.00  0.00     0.035 A 
HETATM   16  C   UNL     1       7.594  25.012  51.953  1.00  0.00     0.032 A 
HETATM   17  C   UNL     1       8.065  23.879  52.633  1.00  0.00     0.032 A 
HETATM   18  C   UNL     1       7.448  23.442  53.804  1.00  0.00     0.034 A 
HETATM   19  C   UNL     1       6.339  24.151  54.279  1.00  0.00     0.032 A 
HETATM   20  C   UNL     1       5.870  25.283  53.602  1.00  0.00     0.032 A 
BRANCH  18  21
HETATM   21  N   UNL     1       7.878  22.335  54.564  1.00  0.00    -0.327 N 
HETATM   22  C   UNL     1       7.936  21.011  54.167  1.00  0.00     0.221 C 
HETATM   23  O   UNL     1       7.604  20.562  53.075  1.00  0.00    -0.273 OA
HETATM   24  H   UNL     1       8.181  22.544  55.505  1.00  0.00     0.169 HD
BRANCH  22  25
HETATM   25  C   UNL     1       8.538  20.091  55.218  1.00  0.00     0.098 C 
HETATM   26  C   UNL     1       8.407  20.609  56.640  1.00  0.00     0.014 C 
ENDBRANCH  22  25
ENDBRANCH  18  21
ENDBRANCH  12  15
ENDBRANCH   1  11
BRANCH   8  27
HETATM   27  C   UNL     1       3.731  30.737  47.074  1.00  0.00     0.409 C 
HETATM   28  F   UNL     1       3.111  29.699  46.461  1.00  0.00    -0.169 F 
HETATM   29  F   UNL     1       3.409  31.841  46.353  1.00  0.00    -0.169 F 
HETATM   30  F   UNL     1       5.056  30.545  46.940  1.00  0.00    -0.169 F 
ENDBRANCH   8  27
BRANCH   6  31
HETATM   31  C   UNL     1       5.480  33.356  48.473  1.00  0.00     0.075 A 
HETATM   32  O   UNL     1       4.971  34.197  47.525  1.00  0.00    -0.325 OA
HETATM   33  C   UNL     1       5.983  34.494  46.670  1.00  0.00     0.142 A 
HETATM   34  C   UNL     1       7.140  33.860  47.054  1.00  0.00     0.027 A 
HETATM   35  C   UNL     1       6.820  33.131  48.224  1.00  0.00     0.037 A 
ENDBRANCH   6  31
TORSDOF 6
ENDMDL
MODEL 7
REMARK VINA RESULT:      -8.3      2.066      2.868
REMARK  6 active torsions:
REMARK  status: ('A' for Active; 'I' for Inactive)
REMARK    1  A    between atoms: C_2  and  C_3 
REMARK       I    between atoms: C_3  and  N_4 
REMARK    2  A    between atoms: N_4  and  C_5 
REMARK    3  A    between atoms: C_8  and  N_9 
REMARK       I    between atoms: N_9  and  C_10 
REMARK    4  A    between atoms: C_10  and  C_11 
REMARK    5  A    between atoms: C_16  and  C_17 
REMARK    6  A    between atoms: C_23  and  C_24 
ROOT
HETATM    1  C   UNL     1       7.384  29.313  57.069  1.00  0.00     0.148 A 
HETATM    2  N   UNL     1       6.297  28.509  57.131  1.00  0.00    -0.165 NA
HETATM    3  N   UNL     1       6.438  27.703  56.060  1.00  0.00    -0.240 N 
HETATM    4  C   UNL     1       7.552  27.971  55.313  1.00  0.00     0.123 A 
HETATM    5  N   UNL     1       7.828  27.288  54.180  1.00  0.00    -0.364 N 
HETATM    6  C   UNL     1       7.089  26.076  53.824  1.00  0.00     0.143 C 
HETATM    7  C   UNL     1       5.623  26.216  54.273  1.00  0.00     0.068 C 
HETATM    8  C   UNL     1       5.447  26.699  55.726  1.00  0.00     0.221 C 
HETATM    9  C   UNL     1       8.192  29.004  55.941  1.00  0.00     0.089 A 
HETATM   10  H   UNL     1       8.738  27.382  53.732  1.00  0.00     0.162 HD
ENDROOT
BRANCH   1  11
HETATM   11  C   UNL     1       7.635  30.365  58.072  1.00  0.00     0.276 C 
HETATM   12  N   UNL     1       6.488  30.682  58.776  1.00  0.00    -0.322 N 
HETATM   13  H   UNL     1       5.685  30.115  58.511  1.00  0.00     0.169 HD
HETATM   14  O   UNL     1       8.750  30.849  58.225  1.00  0.00    -0.266 OA
BRANCH  12  15
HETATM   15  C   UNL     1       6.313  31.660  59.766  1.00  0.00     0.035 A 
HETATM   16  C   UNL     1       5.290  32.605  59.756  1.00  0.00     0.032 A 
HETATM   17  C   UNL     1       5.158  33.529  60.804  1.00  0.00     0.032 A 
HETATM   18  C   UNL     1       6.049  33.522  61.876  1.00  0.00     0.034 A 
HETATM   19  C   UNL     1       7.085  32.582  61.878  1.00  0.00     0.032 A 
HETATM   20  C   UNL     1       7.216  31.659  60.833  1.00  0.00     0.032 A 
BRANCH  18  21
HETATM   21  N   UNL     1       5.968  34.392  62.983  1.00  0.00    -0.327 N 
HETATM   22  C   UNL     1       5.172  34.255  64.106  1.00  0.00     0.221 C 
HETATM   23  O   UNL     1       4.378  33.348  64.331  1.00  0.00    -0.273 OA
HETATM   24  H   UNL     1       6.566  35.205  62.943  1.00  0.00     0.169 HD
BRANCH  22  25
HETATM   25  C   UNL     1       5.406  35.340  65.148  1.00  0.00     0.098 C 
HETATM   26  C   UNL     1       4.130  35.980  65.667  1.00  0.00     0.014 C 
ENDBRANCH  22  25
ENDBRANCH  18  21
ENDBRANCH  12  15
ENDBRANCH   1  11
BRANCH   8  27
HETATM   27  C   UNL     1       5.461  25.585  56.749  1.00  0.00     0.409 C 
HETATM   28  F   UNL     1       4.383  25.640  57.568  1.00  0.00    -0.169 F 
HETATM   29  F   UNL     1       5.399  24.378  56.131  1.00  0.00    -0.169 F 
HETATM   30  F   UNL     1       6.556  25.578  57.531  1.00  0.00    -0.169 F 
ENDBRANCH   8  27
BRANCH   6  31
HETATM   31  C   UNL     1       7.721  24.798  54.269  1.00  0.00     0.075 A 
HETATM   32  O   UNL     1       8.440  24.850  55.429  1.00  0.00    -0.325 OA
HETATM   33  C   UNL     1       8.910  23.598  55.664  1.00  0.00     0.142 A 
HETATM   34  C   UNL     1       8.501  22.736  54.674  1.00  0.00     0.027 A 
HETATM   35  C   UNL     1       7.725  23.508  53.777  1.00  0.00     0.037 A 
ENDBRANCH   6  31
TORSDOF 6
ENDMDL
MODEL 8
REMARK VINA RESULT:      -8.3      9.991     12.073
REMARK  6 active torsions:
REMARK  status: ('A' for Active; 'I' for Inactive)
REMARK    1  A    between atoms: C_2  and  C_3 
REMARK       I    between atoms: C_3  and  N_4 
REMARK    2  A    between atoms: N_4  and  C_5 
REMARK    3  A    between atoms: C_8  and  N_9 
REMARK       I    between atoms: N_9  and  C_10 
REMARK    4  A    between atoms: C_10  and  C_11 
REMARK    5  A    between atoms: C_16  and  C_17 
REMARK    6  A    between atoms: C_23  and  C_24 
ROOT
HETATM    1  C   UNL     1       4.988  28.407  50.388  1.00  0.00     0.148 A 
HETATM    2  N   UNL     1       4.142  29.440  50.615  1.00  0.00    -0.165 NA
HETATM    3  N   UNL     1       3.693  29.756  49.384  1.00  0.00    -0.240 N 
HETATM    4  C   UNL     1       4.227  28.987  48.387  1.00  0.00     0.123 A 
HETATM    5  N   UNL     1       3.921  29.194  47.089  1.00  0.00    -0.364 N 
HETATM    6  C   UNL     1       2.826  30.084  46.698  1.00  0.00     0.143 C 
HETATM    7  C   UNL     1       2.748  31.266  47.682  1.00  0.00     0.068 C 
HETATM    8  C   UNL     1       2.777  30.858  49.168  1.00  0.00     0.221 C 
HETATM    9  C   UNL     1       5.066  28.098  49.003  1.00  0.00     0.089 A 
HETATM   10  H   UNL     1       4.192  28.513  46.382  1.00  0.00     0.162 HD
ENDROOT
BRANCH   1  11
HETATM   11  C   UNL     1       5.714  27.738  51.484  1.00  0.00     0.276 C 
HETATM   12  N   UNL     1       5.853  26.383  51.250  1.00  0.00    -0.322 N 
HETATM   13  H   UNL     1       5.469  26.089  50.355  1.00  0.00     0.169 HD
HETATM   14  O   UNL     1       6.131  28.365  52.451  1.00  0.00    -0.266 OA
BRANCH  12  15
HETATM   15  C   UNL     1       6.433  25.409  52.076  1.00  0.00     0.035 A 
HETATM   16  C   UNL     1       7.660  24.800  51.821  1.00  0.00     0.032 A 
HETATM   17  C   UNL     1       8.193  23.860  52.716  1.00  0.00     0.032 A 
HETATM   18  C   UNL     1       7.506  23.514  53.878  1.00  0.00     0.034 A 
HETATM   19  C   UNL     1       6.267  24.115  54.126  1.00  0.00     0.032 A 
HETATM   20  C   UNL     1       5.736  25.054  53.234  1.00  0.00     0.032 A 
BRANCH  18  21
HETATM   21  N   UNL     1       7.986  22.605  54.844  1.00  0.00    -0.327 N 
HETATM   22  C   UNL     1       8.039  21.226  54.752  1.00  0.00     0.221 C 
HETATM   23  O   UNL     1       7.658  20.544  53.806  1.00  0.00    -0.273 OA
HETATM   24  H   UNL     1       8.333  23.020  55.697  1.00  0.00     0.169 HD
BRANCH  22  25
HETATM   25  C   UNL     1       8.703  20.565  55.950  1.00  0.00     0.098 C 
HETATM   26  C   UNL     1       8.302  21.165  57.286  1.00  0.00     0.014 C 
ENDBRANCH  22  25
ENDBRANCH  18  21
ENDBRANCH  12  15
ENDBRANCH   1  11
BRANCH   8  27
HETATM   27  C   UNL     1       1.415  30.531  49.741  1.00  0.00     0.409 C 
HETATM   28  F   UNL     1       1.181  29.196  49.751  1.00  0.00    -0.169 F 
HETATM   29  F   UNL     1       1.341  30.932  51.036  1.00  0.00    -0.169 F 
HETATM   30  F   UNL     1       0.394  31.110  49.083  1.00  0.00    -0.169 F 
ENDBRANCH   8  27
BRANCH   6  31
HETATM   31  C   UNL     1       1.511  29.409  46.484  1.00  0.00     0.075 A 
HETATM   32  O   UNL     1       1.462  28.074  46.764  1.00  0.00    -0.325 OA
HETATM   33  C   UNL     1       0.191  27.662  46.524  1.00  0.00     0.142 A 
HETATM   34  C   UNL     1      -0.583  28.713  46.095  1.00  0.00     0.027 A 
HETATM   35  C   UNL     1       0.265  29.846  46.077  1.00  0.00     0.037 A 
ENDBRANCH   6  31
TORSDOF 6
ENDMDL
MODEL 9
REMARK VINA RESULT:      -8.2      7.733     13.619
REMARK  6 active torsions:
REMARK  status: ('A' for Active; 'I' for Inactive)
REMARK    1  A    between atoms: C_2  and  C_3 
REMARK       I    between atoms: C_3  and  N_4 
REMARK    2  A    between atoms: N_4  and  C_5 
REMARK    3  A    between atoms: C_8  and  N_9 
REMARK       I    between atoms: N_9  and  C_10 
REMARK    4  A    between atoms: C_10  and  C_11 
REMARK    5  A    between atoms: C_16  and  C_17 
REMARK    6  A    between atoms: C_23  and  C_24 
ROOT
HETATM    1  C   UNL     1       4.266  28.325  51.176  1.00  0.00     0.148 A 
HETATM    2  N   UNL     1       4.708  27.047  51.105  1.00  0.00    -0.165 NA
HETATM    3  N   UNL     1       5.695  27.002  52.021  1.00  0.00    -0.240 N 
HETATM    4  C   UNL     1       5.914  28.195  52.654  1.00  0.00     0.123 A 
HETATM    5  N   UNL     1       6.894  28.342  53.571  1.00  0.00    -0.364 N 
HETATM    6  C   UNL     1       7.612  27.186  54.110  1.00  0.00     0.143 C 
HETATM    7  C   UNL     1       7.774  26.122  53.009  1.00  0.00     0.068 C 
HETATM    8  C   UNL     1       6.476  25.801  52.240  1.00  0.00     0.221 C 
HETATM    9  C   UNL     1       5.001  29.072  52.136  1.00  0.00     0.089 A 
HETATM   10  H   UNL     1       6.934  29.179  54.151  1.00  0.00     0.162 HD
ENDROOT
BRANCH   1  11
HETATM   11  C   UNL     1       3.164  28.818  50.329  1.00  0.00     0.276 C 
HETATM   12  N   UNL     1       2.979  28.018  49.217  1.00  0.00    -0.322 N 
HETATM   13  H   UNL     1       3.602  27.214  49.192  1.00  0.00     0.169 HD
HETATM   14  O   UNL     1       2.519  29.814  50.635  1.00  0.00    -0.266 OA
BRANCH  12  15
HETATM   15  C   UNL     1       2.073  28.188  48.160  1.00  0.00     0.035 A 
HETATM   16  C   UNL     1       1.039  27.301  47.869  1.00  0.00     0.032 A 
HETATM   17  C   UNL     1       0.148  27.559  46.816  1.00  0.00     0.032 A 
HETATM   18  C   UNL     1       0.280  28.707  46.037  1.00  0.00     0.034 A 
HETATM   19  C   UNL     1       1.327  29.590  46.320  1.00  0.00     0.032 A 
HETATM   20  C   UNL     1       2.215  29.333  47.372  1.00  0.00     0.032 A 
BRANCH  18  21
HETATM   21  N   UNL     1      -0.591  29.057  44.984  1.00  0.00    -0.327 N 
HETATM   22  C   UNL     1      -1.108  28.227  44.006  1.00  0.00     0.221 C 
HETATM   23  O   UNL     1      -0.883  27.028  43.874  1.00  0.00    -0.273 OA
HETATM   24  H   UNL     1      -0.866  30.029  44.952  1.00  0.00     0.169 HD
BRANCH  22  25
HETATM   25  C   UNL     1      -2.090  28.925  43.078  1.00  0.00     0.098 C 
HETATM   26  C   UNL     1      -1.525  30.160  42.398  1.00  0.00     0.014 C 
ENDBRANCH  22  25
ENDBRANCH  18  21
ENDBRANCH  12  15
ENDBRANCH   1  11
BRANCH   8  27
HETATM   27  C   UNL     1       5.626  24.733  52.891  1.00  0.00     0.409 C 
HETATM   28  F   UNL     1       4.862  24.075  51.985  1.00  0.00    -0.169 F 
HETATM   29  F   UNL     1       6.415  23.790  53.468  1.00  0.00    -0.169 F 
HETATM   30  F   UNL     1       4.800  25.200  53.845  1.00  0.00    -0.169 F 
ENDBRANCH   8  27
BRANCH   6  31
HETATM   31  C   UNL     1       7.057  26.636  55.382  1.00  0.00     0.075 A 
HETATM   32  O   UNL     1       5.967  27.278  55.896  1.00  0.00    -0.325 OA
HETATM   33  C   UNL     1       5.612  26.620  57.029  1.00  0.00     0.142 A 
HETATM   34  C   UNL     1       6.456  25.557  57.253  1.00  0.00     0.027 A 
HETATM   35  C   UNL     1       7.384  25.560  56.185  1.00  0.00     0.037 A 
ENDBRANCH   6  31
TORSDOF 6
ENDMDL
MODEL 10
REMARK VINA RESULT:      -8.1      7.387     12.833
REMARK  6 active torsions:
REMARK  status: ('A' for Active; 'I' for Inactive)
REMARK    1  A    between atoms: C_2  and  C_3 
REMARK       I    between atoms: C_3  and  N_4 
REMARK    2  A    between atoms: N_4  and  C_5 
REMARK    3  A    between atoms: C_8  and  N_9 
REMARK       I    between atoms: N_9  and  C_10 
REMARK    4  A    between atoms: C_10  and  C_11 
REMARK    5  A    between atoms: C_16  and  C_17 
REMARK    6  A    between atoms: C_23  and  C_24 
ROOT
HETATM    1  C   UNL     1       4.924  27.357  52.123  1.00  0.00     0.148 A 
HETATM    2  N   UNL     1       5.533  28.140  53.045  1.00  0.00    -0.165 NA
HETATM    3  N   UNL     1       5.607  27.348  54.133  1.00  0.00    -0.240 N 
HETATM    4  C   UNL     1       5.057  26.109  53.951  1.00  0.00     0.123 A 
HETATM    5  N   UNL     1       5.006  25.201  54.950  1.00  0.00    -0.364 N 
HETATM    6  C   UNL     1       5.744  25.402  56.198  1.00  0.00     0.143 C 
HETATM    7  C   UNL     1       5.762  26.900  56.551  1.00  0.00     0.068 C 
HETATM    8  C   UNL     1       6.165  27.823  55.384  1.00  0.00     0.221 C 
HETATM    9  C   UNL     1       4.611  26.078  52.658  1.00  0.00     0.089 A 
HETATM   10  H   UNL     1       4.751  24.235  54.754  1.00  0.00     0.162 HD
ENDROOT
BRANCH   1  11
HETATM   11  C   UNL     1       4.642  27.835  50.757  1.00  0.00     0.276 C 
HETATM   12  N   UNL     1       3.300  27.723  50.445  1.00  0.00    -0.322 N 
HETATM   13  H   UNL     1       2.737  27.370  51.216  1.00  0.00     0.169 HD
HETATM   14  O   UNL     1       5.530  28.280  50.039  1.00  0.00    -0.266 OA
BRANCH  12  15
HETATM   15  C   UNL     1       2.656  28.023  49.235  1.00  0.00     0.035 A 
HETATM   16  C   UNL     1       2.691  27.202  48.110  1.00  0.00     0.032 A 
HETATM   17  C   UNL     1       1.990  27.553  46.946  1.00  0.00     0.032 A 
HETATM   18  C   UNL     1       1.245  28.730  46.890  1.00  0.00     0.034 A 
HETATM   19  C   UNL     1       1.223  29.560  48.016  1.00  0.00     0.032 A 
HETATM   20  C   UNL     1       1.922  29.209  49.178  1.00  0.00     0.032 A 
BRANCH  18  21
HETATM   21  N   UNL     1       0.486  29.138  45.774  1.00  0.00    -0.327 N 
HETATM   22  C   UNL     1      -0.764  28.685  45.393  1.00  0.00     0.221 C 
HETATM   23  O   UNL     1      -1.433  27.827  45.961  1.00  0.00    -0.273 OA
HETATM   24  H   UNL     1       0.913  29.846  45.193  1.00  0.00     0.169 HD
BRANCH  22  25
HETATM   25  C   UNL     1      -1.327  29.412  44.181  1.00  0.00     0.098 C 
HETATM   26  C   UNL     1      -1.381  28.562  42.924  1.00  0.00     0.014 C 
ENDBRANCH  22  25
ENDBRANCH  18  21
ENDBRANCH  12  15
ENDBRANCH   1  11
BRANCH   8  27
HETATM   27  C   UNL     1       7.658  28.026  55.250  1.00  0.00     0.409 C 
HETATM   28  F   UNL     1       8.176  27.294  54.233  1.00  0.00    -0.169 F 
HETATM   29  F   UNL     1       7.932  29.322  54.953  1.00  0.00    -0.169 F 
HETATM   30  F   UNL     1       8.351  27.715  56.360  1.00  0.00    -0.169 F 
ENDBRANCH   8  27
BRANCH   6  31
HETATM   31  C   UNL     1       7.098  24.772  56.238  1.00  0.00     0.075 A 
HETATM   32  O   UNL     1       7.803  24.925  57.397  1.00  0.00    -0.325 OA
HETATM   33  C   UNL     1       8.982  24.272  57.236  1.00  0.00     0.142 A 
HETATM   34  C   UNL     1       9.048  23.696  55.990  1.00  0.00     0.027 A 
HETATM   35  C   UNL     1       7.828  24.010  55.346  1.00  0.00     0.037 A 
ENDBRANCH   6  31
TORSDOF 6
ENDMDL
