MODEL 1
REMARK VINA RESULT:      -9.2      0.000      0.000
REMARK  7 active torsions:
REMARK  status: ('A' for Active; 'I' for Inactive)
REMARK    1  A    between atoms: O_2  and  C_3 
REMARK    2  A    between atoms: C_4  and  O_5 
REMARK    3  A    between atoms: C_9  and  C_10 
REMARK    4  A    between atoms: C_11  and  C_12 
REMARK       I    between atoms: C_12  and  N_13 
REMARK    5  A    between atoms: N_13  and  C_14 
REMARK    6  A    between atoms: C_14  and  C_15 
REMARK    7  A    between atoms: C_15  and  C_16 
ROOT
HETATM    1  C   UNL     1       9.397  31.343  59.062  1.00  0.00     0.040 C 
HETATM    2  C   UNL     1       9.524  30.316  58.197  1.00  0.00     0.113 C 
HETATM    3  C   UNL     1      10.777  30.102  57.555  1.00  0.00     0.105 C 
HETATM    4  N   UNL     1      11.779  29.937  56.995  1.00  0.00    -0.191 NA
ENDROOT
BRANCH   2   5
HETATM    5  C   UNL     1       8.411  29.366  57.890  1.00  0.00     0.262 C 
HETATM    6  N   UNL     1       7.893  29.464  56.615  1.00  0.00    -0.356 N 
HETATM    7  H   UNL     1       8.354  30.032  55.914  1.00  0.00     0.162 HD
HETATM    8  O   UNL     1       7.981  28.576  58.722  1.00  0.00    -0.267 OA
BRANCH   6   9
HETATM    9  C   UNL     1       6.841  28.562  56.170  1.00  0.00     0.127 C 
BRANCH   9  10
HETATM   10  C   UNL     1       7.347  27.562  55.130  1.00  0.00     0.060 C 
BRANCH  10  11
HETATM   11  C   UNL     1       7.327  26.156  55.633  1.00  0.00    -0.029 A 
HETATM   12  C   UNL     1       7.508  24.963  54.860  1.00  0.00    -0.002 A 
HETATM   13  C   UNL     1       7.422  23.881  55.736  1.00  0.00     0.042 A 
HETATM   14  C   UNL     1       7.739  24.704  53.494  1.00  0.00     0.014 A 
HETATM   15  C   UNL     1       7.556  22.552  55.316  1.00  0.00     0.030 A 
HETATM   16  N   UNL     1       7.194  24.392  56.992  1.00  0.00    -0.365 N 
HETATM   17  C   UNL     1       7.787  22.322  53.957  1.00  0.00     0.002 A 
HETATM   18  C   UNL     1       7.877  23.381  53.056  1.00  0.00     0.001 A 
HETATM   19  H   UNL     1       7.087  23.833  57.826  1.00  0.00     0.165 HD
HETATM   20  C   UNL     1       7.135  25.759  56.943  1.00  0.00     0.096 A 
ENDBRANCH  10  11
ENDBRANCH   9  10
ENDBRANCH   6   9
ENDBRANCH   2   5
BRANCH   1  21
HETATM   21  C   UNL     1       8.207  31.780  59.814  1.00  0.00    -0.030 A 
HETATM   22  C   UNL     1       8.350  32.079  61.176  1.00  0.00     0.033 A 
HETATM   23  C   UNL     1       7.262  32.546  61.919  1.00  0.00     0.047 A 
HETATM   24  C   UNL     1       6.025  32.712  61.302  1.00  0.00     0.116 A 
HETATM   25 BR   UNL     1       7.518  32.940  63.754  1.00  0.00    -0.048 Br
HETATM   26  C   UNL     1       5.862  32.410  59.945  1.00  0.00     0.103 A 
HETATM   27  C   UNL     1       6.961  31.980  59.198  1.00  0.00     0.051 A 
BRANCH  24  28
HETATM   28  O   UNL     1       4.943  33.165  62.013  1.00  0.00    -0.357 OA
HETATM   29  H   UNL     1       4.286  32.443  61.975  1.00  0.00     0.218 HD
ENDBRANCH  24  28
BRANCH  26  30
HETATM   30  O   UNL     1       4.595  32.600  59.447  1.00  0.00    -0.353 OA
HETATM   31  C   UNL     1       4.230  31.742  58.368  1.00  0.00     0.210 C 
ENDBRANCH  26  30
ENDBRANCH   1  21
TORSDOF 7
ENDMDL
MODEL 2
REMARK VINA RESULT:      -9.1      1.320      2.103
REMARK  7 active torsions:
REMARK  status: ('A' for Active; 'I' for Inactive)
REMARK    1  A    between atoms: O_2  and  C_3 
REMARK    2  A    between atoms: C_4  and  O_5 
REMARK    3  A    between atoms: C_9  and  C_10 
REMARK    4  A    between atoms: C_11  and  C_12 
REMARK       I    between atoms: C_12  and  N_13 
REMARK    5  A    between atoms: N_13  and  C_14 
REMARK    6  A    between atoms: C_14  and  C_15 
REMARK    7  A    between atoms: C_15  and  C_16 
ROOT
HETATM    1  C   UNL     1       9.301  31.317  58.983  1.00  0.00     0.040 C 
HETATM    2  C   UNL     1       9.473  30.275  58.143  1.00  0.00     0.113 C 
HETATM    3  C   UNL     1      10.741  30.088  57.521  1.00  0.00     0.105 C 
HETATM    4  N   UNL     1      11.756  29.943  56.978  1.00  0.00    -0.191 NA
ENDROOT
BRANCH   2   5
HETATM    5  C   UNL     1       8.395  29.284  57.842  1.00  0.00     0.262 C 
HETATM    6  N   UNL     1       7.852  29.375  56.577  1.00  0.00    -0.356 N 
HETATM    7  H   UNL     1       8.276  29.971  55.876  1.00  0.00     0.162 HD
HETATM    8  O   UNL     1       8.013  28.466  58.671  1.00  0.00    -0.267 OA
BRANCH   6   9
HETATM    9  C   UNL     1       6.830  28.436  56.139  1.00  0.00     0.127 C 
BRANCH   9  10
HETATM   10  C   UNL     1       7.368  27.451  55.101  1.00  0.00     0.060 C 
BRANCH  10  11
HETATM   11  C   UNL     1       7.348  26.039  55.589  1.00  0.00    -0.029 A 
HETATM   12  C   UNL     1       7.525  24.855  54.803  1.00  0.00    -0.002 A 
HETATM   13  C   UNL     1       7.441  23.764  55.668  1.00  0.00     0.042 A 
HETATM   14  C   UNL     1       7.751  24.610  53.433  1.00  0.00     0.014 A 
HETATM   15  C   UNL     1       7.573  22.439  55.233  1.00  0.00     0.030 A 
HETATM   16  N   UNL     1       7.218  24.262  56.930  1.00  0.00    -0.365 N 
HETATM   17  C   UNL     1       7.798  22.223  53.871  1.00  0.00     0.002 A 
HETATM   18  C   UNL     1       7.886  23.291  52.981  1.00  0.00     0.001 A 
HETATM   19  H   UNL     1       7.114  23.694  57.759  1.00  0.00     0.165 HD
HETATM   20  C   UNL     1       7.160  25.629  56.895  1.00  0.00     0.096 A 
ENDBRANCH  10  11
ENDBRANCH   9  10
ENDBRANCH   6   9
ENDBRANCH   2   5
BRANCH   1  21
HETATM   21  C   UNL     1       8.088  31.731  59.709  1.00  0.00    -0.030 A 
HETATM   22  C   UNL     1       6.943  32.054  58.968  1.00  0.00     0.033 A 
HETATM   23  C   UNL     1       5.754  32.403  59.613  1.00  0.00     0.047 A 
HETATM   24  C   UNL     1       5.706  32.434  61.005  1.00  0.00     0.116 A 
HETATM   25 BR   UNL     1       4.237  32.825  58.558  1.00  0.00    -0.048 Br
HETATM   26  C   UNL     1       6.843  32.122  61.761  1.00  0.00     0.103 A 
HETATM   27  C   UNL     1       8.018  31.737  61.112  1.00  0.00     0.051 A 
BRANCH  24  28
HETATM   28  O   UNL     1       4.551  32.777  61.659  1.00  0.00    -0.357 OA
HETATM   29  H   UNL     1       3.826  32.513  61.061  1.00  0.00     0.218 HD
ENDBRANCH  24  28
BRANCH  26  30
HETATM   30  O   UNL     1       6.682  32.197  63.124  1.00  0.00    -0.353 OA
HETATM   31  C   UNL     1       7.744  32.838  63.828  1.00  0.00     0.210 C 
ENDBRANCH  26  30
ENDBRANCH   1  21
TORSDOF 7
ENDMDL
MODEL 3
REMARK VINA RESULT:      -8.9      4.854      8.850
REMARK  7 active torsions:
REMARK  status: ('A' for Active; 'I' for Inactive)
REMARK    1  A    between atoms: O_2  and  C_3 
REMARK    2  A    between atoms: C_4  and  O_5 
REMARK    3  A    between atoms: C_9  and  C_10 
REMARK    4  A    between atoms: C_11  and  C_12 
REMARK       I    between atoms: C_12  and  N_13 
REMARK    5  A    between atoms: N_13  and  C_14 
REMARK    6  A    between atoms: C_14  and  C_15 
REMARK    7  A    between atoms: C_15  and  C_16 
ROOT
HETATM    1  C   UNL     1       6.944  25.285  51.904  1.00  0.00     0.040 C 
HETATM    2  C   UNL     1       5.915  26.156  51.956  1.00  0.00     0.113 C 
HETATM    3  C   UNL     1       5.603  26.929  50.802  1.00  0.00     0.105 C 
HETATM    4  N   UNL     1       5.359  27.593  49.882  1.00  0.00    -0.191 NA
ENDROOT
BRANCH   2   5
HETATM    5  C   UNL     1       5.063  26.340  53.171  1.00  0.00     0.262 C 
HETATM    6  N   UNL     1       5.274  27.516  53.861  1.00  0.00    -0.356 N 
HETATM    7  H   UNL     1       5.852  28.248  53.467  1.00  0.00     0.162 HD
HETATM    8  O   UNL     1       4.254  25.494  53.532  1.00  0.00    -0.267 OA
BRANCH   6   9
HETATM    9  C   UNL     1       4.474  27.842  55.032  1.00  0.00     0.127 C 
BRANCH   9  10
HETATM   10  C   UNL     1       5.173  27.441  56.331  1.00  0.00     0.060 C 
BRANCH  10  11
HETATM   11  C   UNL     1       5.758  28.613  57.050  1.00  0.00    -0.029 A 
HETATM   12  C   UNL     1       7.148  28.918  57.208  1.00  0.00    -0.002 A 
HETATM   13  C   UNL     1       7.235  30.105  57.936  1.00  0.00     0.042 A 
HETATM   14  C   UNL     1       8.344  28.295  56.797  1.00  0.00     0.014 A 
HETATM   15  C   UNL     1       8.456  30.701  58.274  1.00  0.00     0.030 A 
HETATM   16  N   UNL     1       5.949  30.505  58.215  1.00  0.00    -0.365 N 
HETATM   17  C   UNL     1       9.626  30.064  57.852  1.00  0.00     0.002 A 
HETATM   18  C   UNL     1       9.574  28.878  57.125  1.00  0.00     0.001 A 
HETATM   19  H   UNL     1       5.709  31.337  58.734  1.00  0.00     0.165 HD
HETATM   20  C   UNL     1       5.052  29.616  57.687  1.00  0.00     0.096 A 
ENDBRANCH  10  11
ENDBRANCH   9  10
ENDBRANCH   6   9
ENDBRANCH   2   5
BRANCH   1  21
HETATM   21  C   UNL     1       7.473  24.411  52.966  1.00  0.00    -0.030 A 
HETATM   22  C   UNL     1       7.703  23.061  52.666  1.00  0.00     0.033 A 
HETATM   23  C   UNL     1       8.251  22.204  53.624  1.00  0.00     0.047 A 
HETATM   24  C   UNL     1       8.568  22.694  54.889  1.00  0.00     0.116 A 
HETATM   25 BR   UNL     1       8.546  20.391  53.160  1.00  0.00    -0.048 Br
HETATM   26  C   UNL     1       8.336  24.038  55.208  1.00  0.00     0.103 A 
HETATM   27  C   UNL     1       7.824  24.898  54.235  1.00  0.00     0.051 A 
BRANCH  24  28
HETATM   28  O   UNL     1       9.103  21.870  55.846  1.00  0.00    -0.357 OA
HETATM   29  H   UNL     1       8.545  21.995  56.638  1.00  0.00     0.218 HD
ENDBRANCH  24  28
BRANCH  26  30
HETATM   30  O   UNL     1       8.676  24.406  56.488  1.00  0.00    -0.353 OA
HETATM   31  C   UNL     1       7.587  24.816  57.312  1.00  0.00     0.210 C 
ENDBRANCH  26  30
ENDBRANCH   1  21
TORSDOF 7
ENDMDL
MODEL 4
REMARK VINA RESULT:      -8.9      4.358      9.203
REMARK  7 active torsions:
REMARK  status: ('A' for Active; 'I' for Inactive)
REMARK    1  A    between atoms: O_2  and  C_3 
REMARK    2  A    between atoms: C_4  and  O_5 
REMARK    3  A    between atoms: C_9  and  C_10 
REMARK    4  A    between atoms: C_11  and  C_12 
REMARK       I    between atoms: C_12  and  N_13 
REMARK    5  A    between atoms: N_13  and  C_14 
REMARK    6  A    between atoms: C_14  and  C_15 
REMARK    7  A    between atoms: C_15  and  C_16 
ROOT
HETATM    1  C   UNL     1       6.749  25.324  52.289  1.00  0.00     0.040 C 
HETATM    2  C   UNL     1       6.268  26.558  52.546  1.00  0.00     0.113 C 
HETATM    3  C   UNL     1       5.716  27.323  51.480  1.00  0.00     0.105 C 
HETATM    4  N   UNL     1       5.297  27.973  50.615  1.00  0.00    -0.191 NA
ENDROOT
BRANCH   2   5
HETATM    5  C   UNL     1       6.268  27.164  53.913  1.00  0.00     0.262 C 
HETATM    6  N   UNL     1       7.203  28.158  54.114  1.00  0.00    -0.356 N 
HETATM    7  H   UNL     1       7.729  28.536  53.334  1.00  0.00     0.162 HD
HETATM    8  O   UNL     1       5.502  26.786  54.792  1.00  0.00    -0.267 OA
BRANCH   6   9
HETATM    9  C   UNL     1       7.273  28.866  55.383  1.00  0.00     0.127 C 
BRANCH   9  10
HETATM   10  C   UNL     1       8.330  28.269  56.312  1.00  0.00     0.060 C 
BRANCH  10  11
HETATM   11  C   UNL     1       9.186  29.315  56.950  1.00  0.00    -0.029 A 
HETATM   12  C   UNL     1       8.814  30.195  58.017  1.00  0.00    -0.002 A 
HETATM   13  C   UNL     1       9.920  30.997  58.301  1.00  0.00     0.042 A 
HETATM   14  C   UNL     1       7.638  30.383  58.772  1.00  0.00     0.014 A 
HETATM   15  C   UNL     1       9.911  31.976  59.301  1.00  0.00     0.030 A 
HETATM   16  N   UNL     1      10.924  30.624  57.438  1.00  0.00    -0.365 N 
HETATM   17  C   UNL     1       8.734  32.141  60.036  1.00  0.00     0.002 A 
HETATM   18  C   UNL     1       7.612  31.358  59.777  1.00  0.00     0.001 A 
HETATM   19  H   UNL     1      11.844  31.040  57.417  1.00  0.00     0.165 HD
HETATM   20  C   UNL     1      10.494  29.613  56.621  1.00  0.00     0.096 A 
ENDBRANCH  10  11
ENDBRANCH   9  10
ENDBRANCH   6   9
ENDBRANCH   2   5
BRANCH   1  21
HETATM   21  C   UNL     1       7.391  24.369  53.209  1.00  0.00    -0.030 A 
HETATM   22  C   UNL     1       7.539  23.038  52.794  1.00  0.00     0.033 A 
HETATM   23  C   UNL     1       8.187  22.107  53.610  1.00  0.00     0.047 A 
HETATM   24  C   UNL     1       8.686  22.503  54.849  1.00  0.00     0.116 A 
HETATM   25 BR   UNL     1       8.363  20.325  52.993  1.00  0.00    -0.048 Br
HETATM   26  C   UNL     1       8.538  23.826  55.283  1.00  0.00     0.103 A 
HETATM   27  C   UNL     1       7.924  24.762  54.447  1.00  0.00     0.051 A 
BRANCH  24  28
HETATM   28  O   UNL     1       9.321  21.606  55.668  1.00  0.00    -0.357 OA
HETATM   29  H   UNL     1       8.632  20.967  55.937  1.00  0.00     0.218 HD
ENDBRANCH  24  28
BRANCH  26  30
HETATM   30  O   UNL     1       9.058  24.099  56.525  1.00  0.00    -0.353 OA
HETATM   31  C   UNL     1       8.173  24.768  57.422  1.00  0.00     0.210 C 
ENDBRANCH  26  30
ENDBRANCH   1  21
TORSDOF 7
ENDMDL
MODEL 5
REMARK VINA RESULT:      -8.7      2.866      4.657
REMARK  7 active torsions:
REMARK  status: ('A' for Active; 'I' for Inactive)
REMARK    1  A    between atoms: O_2  and  C_3 
REMARK    2  A    between atoms: C_4  and  O_5 
REMARK    3  A    between atoms: C_9  and  C_10 
REMARK    4  A    between atoms: C_11  and  C_12 
REMARK       I    between atoms: C_12  and  N_13 
REMARK    5  A    between atoms: N_13  and  C_14 
REMARK    6  A    between atoms: C_14  and  C_15 
REMARK    7  A    between atoms: C_15  and  C_16 
ROOT
HETATM    1  C   UNL     1       5.339  30.076  55.155  1.00  0.00     0.040 C 
HETATM    2  C   UNL     1       4.736  28.970  54.675  1.00  0.00     0.113 C 
HETATM    3  C   UNL     1       3.798  29.098  53.611  1.00  0.00     0.105 C 
HETATM    4  N   UNL     1       3.005  29.190  52.770  1.00  0.00    -0.191 NA
ENDROOT
BRANCH   2   5
HETATM    5  C   UNL     1       5.018  27.597  55.195  1.00  0.00     0.262 C 
HETATM    6  N   UNL     1       5.516  26.708  54.264  1.00  0.00    -0.356 N 
HETATM    7  H   UNL     1       5.805  27.030  53.347  1.00  0.00     0.162 HD
HETATM    8  O   UNL     1       4.802  27.284  56.360  1.00  0.00    -0.267 OA
BRANCH   6   9
HETATM    9  C   UNL     1       5.882  25.354  54.651  1.00  0.00     0.127 C 
BRANCH   9  10
HETATM   10  C   UNL     1       7.395  25.141  54.623  1.00  0.00     0.060 C 
BRANCH  10  11
HETATM   11  C   UNL     1       7.806  23.871  55.294  1.00  0.00    -0.029 A 
HETATM   12  C   UNL     1       8.058  22.609  54.665  1.00  0.00    -0.002 A 
HETATM   13  C   UNL     1       8.422  21.709  55.667  1.00  0.00     0.042 A 
HETATM   14  C   UNL     1       8.013  22.148  53.333  1.00  0.00     0.014 A 
HETATM   15  C   UNL     1       8.744  20.372  55.405  1.00  0.00     0.030 A 
HETATM   16  N   UNL     1       8.388  22.393  56.859  1.00  0.00    -0.365 N 
HETATM   17  C   UNL     1       8.693  19.941  54.076  1.00  0.00     0.002 A 
HETATM   18  C   UNL     1       8.332  20.814  53.053  1.00  0.00     0.001 A 
HETATM   19  H   UNL     1       8.607  21.987  57.758  1.00  0.00     0.165 HD
HETATM   20  C   UNL     1       8.019  23.694  56.647  1.00  0.00     0.096 A 
ENDBRANCH  10  11
ENDBRANCH   9  10
ENDBRANCH   6   9
ENDBRANCH   2   5
BRANCH   1  21
HETATM   21  C   UNL     1       6.307  30.199  56.260  1.00  0.00    -0.030 A 
HETATM   22  C   UNL     1       5.965  30.994  57.363  1.00  0.00     0.033 A 
HETATM   23  C   UNL     1       6.828  31.100  58.457  1.00  0.00     0.047 A 
HETATM   24  C   UNL     1       8.040  30.413  58.450  1.00  0.00     0.116 A 
HETATM   25 BR   UNL     1       6.308  32.184  59.922  1.00  0.00    -0.048 Br
HETATM   26  C   UNL     1       8.401  29.622  57.354  1.00  0.00     0.103 A 
HETATM   27  C   UNL     1       7.518  29.489  56.279  1.00  0.00     0.051 A 
BRANCH  24  28
HETATM   28  O   UNL     1       8.903  30.507  59.511  1.00  0.00    -0.357 OA
HETATM   29  H   UNL     1       9.621  29.873  59.318  1.00  0.00     0.218 HD
ENDBRANCH  24  28
BRANCH  26  30
HETATM   30  O   UNL     1       9.623  29.002  57.452  1.00  0.00    -0.353 OA
HETATM   31  C   UNL     1      10.674  29.603  56.698  1.00  0.00     0.210 C 
ENDBRANCH  26  30
ENDBRANCH   1  21
TORSDOF 7
ENDMDL
MODEL 6
REMARK VINA RESULT:      -8.7      4.651      7.074
REMARK  7 active torsions:
REMARK  status: ('A' for Active; 'I' for Inactive)
REMARK    1  A    between atoms: O_2  and  C_3 
REMARK    2  A    between atoms: C_4  and  O_5 
REMARK    3  A    between atoms: C_9  and  C_10 
REMARK    4  A    between atoms: C_11  and  C_12 
REMARK       I    between atoms: C_12  and  N_13 
REMARK    5  A    between atoms: N_13  and  C_14 
REMARK    6  A    between atoms: C_14  and  C_15 
REMARK    7  A    between atoms: C_15  and  C_16 
ROOT
HETATM    1  C   UNL     1       4.236  29.305  54.765  1.00  0.00     0.040 C 
HETATM    2  C   UNL     1       4.952  29.333  55.908  1.00  0.00     0.113 C 
HETATM    3  C   UNL     1       4.419  30.006  57.044  1.00  0.00     0.105 C 
HETATM    4  N   UNL     1       4.015  30.582  57.967  1.00  0.00    -0.191 NA
ENDROOT
BRANCH   2   5
HETATM    5  C   UNL     1       6.284  28.670  56.052  1.00  0.00     0.262 C 
HETATM    6  N   UNL     1       6.241  27.304  56.239  1.00  0.00    -0.356 N 
HETATM    7  H   UNL     1       5.372  26.795  56.127  1.00  0.00     0.162 HD
HETATM    8  O   UNL     1       7.333  29.303  56.024  1.00  0.00    -0.267 OA
BRANCH   6   9
HETATM    9  C   UNL     1       7.469  26.530  56.340  1.00  0.00     0.127 C 
BRANCH   9  10
HETATM   10  C   UNL     1       7.615  25.536  55.187  1.00  0.00     0.060 C 
BRANCH  10  11
HETATM   11  C   UNL     1       7.894  24.147  55.662  1.00  0.00    -0.029 A 
HETATM   12  C   UNL     1       7.975  22.964  54.859  1.00  0.00    -0.002 A 
HETATM   13  C   UNL     1       8.262  21.899  55.713  1.00  0.00     0.042 A 
HETATM   14  C   UNL     1       7.832  22.700  53.481  1.00  0.00     0.014 A 
HETATM   15  C   UNL     1       8.415  20.583  55.260  1.00  0.00     0.030 A 
HETATM   16  N   UNL     1       8.348  22.411  56.986  1.00  0.00    -0.365 N 
HETATM   17  C   UNL     1       8.271  20.349  53.890  1.00  0.00     0.002 A 
HETATM   18  C   UNL     1       7.983  21.390  53.011  1.00  0.00     0.001 A 
HETATM   19  H   UNL     1       8.546  21.863  57.811  1.00  0.00     0.165 HD
HETATM   20  C   UNL     1       8.128  23.762  56.968  1.00  0.00     0.096 A 
ENDBRANCH  10  11
ENDBRANCH   9  10
ENDBRANCH   6   9
ENDBRANCH   2   5
BRANCH   1  21
HETATM   21  C   UNL     1       4.588  28.708  53.465  1.00  0.00    -0.030 A 
HETATM   22  C   UNL     1       4.669  27.311  53.372  1.00  0.00     0.033 A 
HETATM   23  C   UNL     1       4.950  26.696  52.149  1.00  0.00     0.047 A 
HETATM   24  C   UNL     1       5.154  27.477  51.014  1.00  0.00     0.116 A 
HETATM   25 BR   UNL     1       5.041  24.805  52.083  1.00  0.00    -0.048 Br
HETATM   26  C   UNL     1       5.085  28.873  51.091  1.00  0.00     0.103 A 
HETATM   27  C   UNL     1       4.767  29.481  52.307  1.00  0.00     0.051 A 
BRANCH  24  28
HETATM   28  O   UNL     1       5.435  26.895  49.805  1.00  0.00    -0.357 OA
HETATM   29  H   UNL     1       6.410  26.864  49.751  1.00  0.00     0.218 HD
ENDBRANCH  24  28
BRANCH  26  30
HETATM   30  O   UNL     1       5.316  29.540  49.912  1.00  0.00    -0.353 OA
HETATM   31  C   UNL     1       5.792  30.877  50.051  1.00  0.00     0.210 C 
ENDBRANCH  26  30
ENDBRANCH   1  21
TORSDOF 7
ENDMDL
MODEL 7
REMARK VINA RESULT:      -8.7      4.283      8.885
REMARK  7 active torsions:
REMARK  status: ('A' for Active; 'I' for Inactive)
REMARK    1  A    between atoms: O_2  and  C_3 
REMARK    2  A    between atoms: C_4  and  O_5 
REMARK    3  A    between atoms: C_9  and  C_10 
REMARK    4  A    between atoms: C_11  and  C_12 
REMARK       I    between atoms: C_12  and  N_13 
REMARK    5  A    between atoms: N_13  and  C_14 
REMARK    6  A    between atoms: C_14  and  C_15 
REMARK    7  A    between atoms: C_15  and  C_16 
ROOT
HETATM    1  C   UNL     1       6.926  25.214  52.033  1.00  0.00     0.040 C 
HETATM    2  C   UNL     1       5.920  26.112  52.043  1.00  0.00     0.113 C 
HETATM    3  C   UNL     1       5.613  26.823  50.848  1.00  0.00     0.105 C 
HETATM    4  N   UNL     1       5.374  27.436  49.893  1.00  0.00    -0.191 NA
ENDROOT
BRANCH   2   5
HETATM    5  C   UNL     1       5.088  26.390  53.254  1.00  0.00     0.262 C 
HETATM    6  N   UNL     1       5.341  27.596  53.875  1.00  0.00    -0.356 N 
HETATM    7  H   UNL     1       5.937  28.287  53.434  1.00  0.00     0.162 HD
HETATM    8  O   UNL     1       4.256  25.591  53.670  1.00  0.00    -0.267 OA
BRANCH   6   9
HETATM    9  C   UNL     1       4.564  28.011  55.033  1.00  0.00     0.127 C 
BRANCH   9  10
HETATM   10  C   UNL     1       5.250  27.633  56.346  1.00  0.00     0.060 C 
BRANCH  10  11
HETATM   11  C   UNL     1       5.699  28.829  57.121  1.00  0.00    -0.029 A 
HETATM   12  C   UNL     1       7.051  29.224  57.384  1.00  0.00    -0.002 A 
HETATM   13  C   UNL     1       7.003  30.401  58.132  1.00  0.00     0.042 A 
HETATM   14  C   UNL     1       8.313  28.690  57.052  1.00  0.00     0.014 A 
HETATM   15  C   UNL     1       8.153  31.072  58.565  1.00  0.00     0.030 A 
HETATM   16  N   UNL     1       5.677  30.708  58.321  1.00  0.00    -0.365 N 
HETATM   17  C   UNL     1       9.392  30.523  58.221  1.00  0.00     0.002 A 
HETATM   18  C   UNL     1       9.474  29.349  57.477  1.00  0.00     0.001 A 
HETATM   19  H   UNL     1       5.343  31.513  58.832  1.00  0.00     0.165 HD
HETATM   20  C   UNL     1       4.883  29.770  57.718  1.00  0.00     0.096 A 
ENDBRANCH  10  11
ENDBRANCH   9  10
ENDBRANCH   6   9
ENDBRANCH   2   5
BRANCH   1  21
HETATM   21  C   UNL     1       7.446  24.391  53.139  1.00  0.00    -0.030 A 
HETATM   22  C   UNL     1       7.630  24.995  54.391  1.00  0.00     0.033 A 
HETATM   23  C   UNL     1       8.072  24.245  55.484  1.00  0.00     0.047 A 
HETATM   24  C   UNL     1       8.335  22.886  55.328  1.00  0.00     0.116 A 
HETATM   25 BR   UNL     1       8.296  25.114  57.152  1.00  0.00    -0.048 Br
HETATM   26  C   UNL     1       8.165  22.268  54.083  1.00  0.00     0.103 A 
HETATM   27  C   UNL     1       7.687  23.015  53.003  1.00  0.00     0.051 A 
BRANCH  24  28
HETATM   28  O   UNL     1       8.773  22.131  56.385  1.00  0.00    -0.357 OA
HETATM   29  H   UNL     1       8.048  21.504  56.575  1.00  0.00     0.218 HD
ENDBRANCH  24  28
BRANCH  26  30
HETATM   30  O   UNL     1       8.466  20.928  54.044  1.00  0.00    -0.353 OA
HETATM   31  C   UNL     1       8.341  20.313  52.764  1.00  0.00     0.210 C 
ENDBRANCH  26  30
ENDBRANCH   1  21
TORSDOF 7
ENDMDL
MODEL 8
REMARK VINA RESULT:      -8.6      3.668      9.145
REMARK  7 active torsions:
REMARK  status: ('A' for Active; 'I' for Inactive)
REMARK    1  A    between atoms: O_2  and  C_3 
REMARK    2  A    between atoms: C_4  and  O_5 
REMARK    3  A    between atoms: C_9  and  C_10 
REMARK    4  A    between atoms: C_11  and  C_12 
REMARK       I    between atoms: C_12  and  N_13 
REMARK    5  A    between atoms: N_13  and  C_14 
REMARK    6  A    between atoms: C_14  and  C_15 
REMARK    7  A    between atoms: C_15  and  C_16 
ROOT
HETATM    1  C   UNL     1       6.738  25.568  52.256  1.00  0.00     0.040 C 
HETATM    2  C   UNL     1       6.184  26.769  52.523  1.00  0.00     0.113 C 
HETATM    3  C   UNL     1       5.586  27.507  51.462  1.00  0.00     0.105 C 
HETATM    4  N   UNL     1       5.129  28.138  50.602  1.00  0.00    -0.191 NA
ENDROOT
BRANCH   2   5
HETATM    5  C   UNL     1       6.147  27.363  53.894  1.00  0.00     0.262 C 
HETATM    6  N   UNL     1       7.135  28.288  54.159  1.00  0.00    -0.356 N 
HETATM    7  H   UNL     1       7.730  28.634  53.415  1.00  0.00     0.162 HD
HETATM    8  O   UNL     1       5.308  27.032  54.725  1.00  0.00    -0.267 OA
BRANCH   6   9
HETATM    9  C   UNL     1       7.181  28.979  55.438  1.00  0.00     0.127 C 
BRANCH   9  10
HETATM   10  C   UNL     1       8.204  28.356  56.388  1.00  0.00     0.060 C 
BRANCH  10  11
HETATM   11  C   UNL     1       9.100  29.377  57.011  1.00  0.00    -0.029 A 
HETATM   12  C   UNL     1       8.775  30.262  58.089  1.00  0.00    -0.002 A 
HETATM   13  C   UNL     1       9.908  31.033  58.352  1.00  0.00     0.042 A 
HETATM   14  C   UNL     1       7.621  30.479  58.870  1.00  0.00     0.014 A 
HETATM   15  C   UNL     1       9.947  32.008  59.356  1.00  0.00     0.030 A 
HETATM   16  N   UNL     1      10.883  30.636  57.467  1.00  0.00    -0.365 N 
HETATM   17  C   UNL     1       8.790  32.201  60.116  1.00  0.00     0.002 A 
HETATM   18  C   UNL     1       7.642  31.450  59.878  1.00  0.00     0.001 A 
HETATM   19  H   UNL     1      11.814  31.027  57.428  1.00  0.00     0.165 HD
HETATM   20  C   UNL     1      10.409  29.641  56.655  1.00  0.00     0.096 A 
ENDBRANCH  10  11
ENDBRANCH   9  10
ENDBRANCH   6   9
ENDBRANCH   2   5
BRANCH   1  21
HETATM   21  C   UNL     1       7.436  24.646  53.170  1.00  0.00    -0.030 A 
HETATM   22  C   UNL     1       7.572  25.015  54.515  1.00  0.00     0.033 A 
HETATM   23  C   UNL     1       8.180  24.151  55.431  1.00  0.00     0.047 A 
HETATM   24  C   UNL     1       8.660  22.915  55.001  1.00  0.00     0.116 A 
HETATM   25 BR   UNL     1       8.330  24.701  57.237  1.00  0.00    -0.048 Br
HETATM   26  C   UNL     1       8.540  22.535  53.659  1.00  0.00     0.103 A 
HETATM   27  C   UNL     1       7.897  23.386  52.757  1.00  0.00     0.051 A 
BRANCH  24  28
HETATM   28  O   UNL     1       9.264  22.055  55.881  1.00  0.00    -0.357 OA
HETATM   29  H   UNL     1       8.592  21.373  56.080  1.00  0.00     0.218 HD
ENDBRANCH  24  28
BRANCH  26  30
HETATM   30  O   UNL     1       9.059  21.301  53.349  1.00  0.00    -0.353 OA
HETATM   31  C   UNL     1       8.103  20.323  52.945  1.00  0.00     0.210 C 
ENDBRANCH  26  30
ENDBRANCH   1  21
TORSDOF 7
ENDMDL
MODEL 9
REMARK VINA RESULT:      -8.5      2.715      4.466
REMARK  7 active torsions:
REMARK  status: ('A' for Active; 'I' for Inactive)
REMARK    1  A    between atoms: O_2  and  C_3 
REMARK    2  A    between atoms: C_4  and  O_5 
REMARK    3  A    between atoms: C_9  and  C_10 
REMARK    4  A    between atoms: C_11  and  C_12 
REMARK       I    between atoms: C_12  and  N_13 
REMARK    5  A    between atoms: N_13  and  C_14 
REMARK    6  A    between atoms: C_14  and  C_15 
REMARK    7  A    between atoms: C_15  and  C_16 
ROOT
HETATM    1  C   UNL     1       5.763  29.805  55.892  1.00  0.00     0.040 C 
HETATM    2  C   UNL     1       5.650  28.688  55.144  1.00  0.00     0.113 C 
HETATM    3  C   UNL     1       4.568  28.575  54.226  1.00  0.00     0.105 C 
HETATM    4  N   UNL     1       3.671  28.451  53.500  1.00  0.00    -0.191 NA
ENDROOT
BRANCH   2   5
HETATM    5  C   UNL     1       6.625  27.557  55.216  1.00  0.00     0.262 C 
HETATM    6  N   UNL     1       6.523  26.766  56.343  1.00  0.00    -0.356 N 
HETATM    7  H   UNL     1       5.739  26.871  56.977  1.00  0.00     0.162 HD
HETATM    8  O   UNL     1       7.464  27.364  54.345  1.00  0.00    -0.267 OA
BRANCH   6   9
HETATM    9  C   UNL     1       7.378  25.601  56.512  1.00  0.00     0.127 C 
BRANCH   9  10
HETATM   10  C   UNL     1       6.614  24.295  56.289  1.00  0.00     0.060 C 
BRANCH  10  11
HETATM   11  C   UNL     1       7.051  23.583  55.050  1.00  0.00    -0.029 A 
HETATM   12  C   UNL     1       7.650  22.284  54.972  1.00  0.00    -0.002 A 
HETATM   13  C   UNL     1       7.884  22.014  53.623  1.00  0.00     0.042 A 
HETATM   14  C   UNL     1       8.013  21.310  55.924  1.00  0.00     0.014 A 
HETATM   15  C   UNL     1       8.462  20.819  53.178  1.00  0.00     0.030 A 
HETATM   16  N   UNL     1       7.450  23.105  52.909  1.00  0.00    -0.365 N 
HETATM   17  C   UNL     1       8.811  19.869  54.142  1.00  0.00     0.002 A 
HETATM   18  C   UNL     1       8.592  20.109  55.497  1.00  0.00     0.001 A 
HETATM   19  H   UNL     1       7.497  23.187  51.903  1.00  0.00     0.165 HD
HETATM   20  C   UNL     1       6.947  24.056  53.757  1.00  0.00     0.096 A 
ENDBRANCH  10  11
ENDBRANCH   9  10
ENDBRANCH   6   9
ENDBRANCH   2   5
BRANCH   1  21
HETATM   21  C   UNL     1       6.764  30.134  56.921  1.00  0.00    -0.030 A 
HETATM   22  C   UNL     1       8.114  29.873  56.647  1.00  0.00     0.033 A 
HETATM   23  C   UNL     1       9.106  30.214  57.571  1.00  0.00     0.047 A 
HETATM   24  C   UNL     1       8.749  30.816  58.776  1.00  0.00     0.116 A 
HETATM   25 BR   UNL     1      10.913  29.843  57.143  1.00  0.00    -0.048 Br
HETATM   26  C   UNL     1       7.405  31.076  59.069  1.00  0.00     0.103 A 
HETATM   27  C   UNL     1       6.422  30.768  58.126  1.00  0.00     0.051 A 
BRANCH  24  28
HETATM   28  O   UNL     1       9.705  31.156  59.698  1.00  0.00    -0.357 OA
HETATM   29  H   UNL     1       9.938  32.084  59.501  1.00  0.00     0.218 HD
ENDBRANCH  24  28
BRANCH  26  30
HETATM   30  O   UNL     1       7.172  31.660  60.291  1.00  0.00    -0.353 OA
HETATM   31  C   UNL     1       5.959  32.403  60.389  1.00  0.00     0.210 C 
ENDBRANCH  26  30
ENDBRANCH   1  21
TORSDOF 7
ENDMDL
MODEL 10
REMARK VINA RESULT:      -8.5      4.962      8.157
REMARK  7 active torsions:
REMARK  status: ('A' for Active; 'I' for Inactive)
REMARK    1  A    between atoms: O_2  and  C_3 
REMARK    2  A    between atoms: C_4  and  O_5 
REMARK    3  A    between atoms: C_9  and  C_10 
REMARK    4  A    between atoms: C_11  and  C_12 
REMARK       I    between atoms: C_12  and  N_13 
REMARK    5  A    between atoms: N_13  and  C_14 
REMARK    6  A    between atoms: C_14  and  C_15 
REMARK    7  A    between atoms: C_15  and  C_16 
ROOT
HETATM    1  C   UNL     1       8.193  26.168  56.827  1.00  0.00     0.040 C 
HETATM    2  C   UNL     1       7.289  27.154  57.009  1.00  0.00     0.113 C 
HETATM    3  C   UNL     1       7.613  28.241  57.869  1.00  0.00     0.105 C 
HETATM    4  N   UNL     1       7.848  29.115  58.595  1.00  0.00    -0.191 NA
ENDROOT
BRANCH   2   5
HETATM    5  C   UNL     1       5.957  27.173  56.331  1.00  0.00     0.262 C 
HETATM    6  N   UNL     1       5.924  27.836  55.122  1.00  0.00    -0.356 N 
HETATM    7  H   UNL     1       6.783  28.140  54.678  1.00  0.00     0.162 HD
HETATM    8  O   UNL     1       4.965  26.652  56.829  1.00  0.00    -0.267 OA
BRANCH   6   9
HETATM    9  C   UNL     1       4.701  27.883  54.334  1.00  0.00     0.127 C 
BRANCH   9  10
HETATM   10  C   UNL     1       4.812  27.051  53.057  1.00  0.00     0.060 C 
BRANCH  10  11
HETATM   11  C   UNL     1       5.091  27.889  51.852  1.00  0.00    -0.029 A 
HETATM   12  C   UNL     1       4.967  27.491  50.481  1.00  0.00    -0.002 A 
HETATM   13  C   UNL     1       5.319  28.589  49.695  1.00  0.00     0.042 A 
HETATM   14  C   UNL     1       4.586  26.298  49.835  1.00  0.00     0.014 A 
HETATM   15  C   UNL     1       5.308  28.555  48.296  1.00  0.00     0.030 A 
HETATM   16  N   UNL     1       5.648  29.613  50.552  1.00  0.00    -0.365 N 
HETATM   17  C   UNL     1       4.924  27.361  47.679  1.00  0.00     0.002 A 
HETATM   18  C   UNL     1       4.569  26.247  48.436  1.00  0.00     0.001 A 
HETATM   19  H   UNL     1       5.944  30.533  50.257  1.00  0.00     0.165 HD
HETATM   20  C   UNL     1       5.515  29.204  51.852  1.00  0.00     0.096 A 
ENDBRANCH  10  11
ENDBRANCH   9  10
ENDBRANCH   6   9
ENDBRANCH   2   5
BRANCH   1  21
HETATM   21  C   UNL     1       8.075  24.939  56.023  1.00  0.00    -0.030 A 
HETATM   22  C   UNL     1       8.279  23.705  56.655  1.00  0.00     0.033 A 
HETATM   23  C   UNL     1       8.128  22.510  55.946  1.00  0.00     0.047 A 
HETATM   24  C   UNL     1       7.775  22.546  54.599  1.00  0.00     0.116 A 
HETATM   25 BR   UNL     1       8.412  20.872  56.855  1.00  0.00    -0.048 Br
HETATM   26  C   UNL     1       7.575  23.770  53.950  1.00  0.00     0.103 A 
HETATM   27  C   UNL     1       7.690  24.960  54.673  1.00  0.00     0.051 A 
BRANCH  24  28
HETATM   28  O   UNL     1       7.626  21.386  53.883  1.00  0.00    -0.357 OA
HETATM   29  H   UNL     1       8.493  21.227  53.462  1.00  0.00     0.218 HD
ENDBRANCH  24  28
BRANCH  26  30
HETATM   30  O   UNL     1       7.243  23.684  52.620  1.00  0.00    -0.353 OA
HETATM   31  C   UNL     1       7.569  24.829  51.834  1.00  0.00     0.210 C 
ENDBRANCH  26  30
ENDBRANCH   1  21
TORSDOF 7
ENDMDL
