MODEL 1
REMARK VINA RESULT:      -8.2      0.000      0.000
REMARK  10 active torsions:
REMARK  status: ('A' for Active; 'I' for Inactive)
REMARK       I    between atoms: C_2  and  N_3 
REMARK    1  A    between atoms: N_3  and  C_4 
REMARK    2  A    between atoms: C_4  and  C_5 
REMARK    3  A    between atoms: C_5  and  N_6 
REMARK       I    between atoms: N_6  and  C_7 
REMARK    4  A    between atoms: C_7  and  C_8 
REMARK    5  A    between atoms: C_8  and  C_9 
REMARK    6  A    between atoms: C_9  and  C_10 
REMARK    7  A    between atoms: C_10  and  C_11 
REMARK    8  A    between atoms: C_11  and  C_12 
REMARK    9  A    between atoms: C_12  and  N_13 
REMARK   10  A    between atoms: N_13  and  C_14 
ROOT
HETATM    1  C   UNL     1       7.979  26.343  57.758  1.00  0.00     0.020 C 
ENDROOT
BRANCH   1   2
HETATM    2  C   UNL     1       8.259  27.714  57.132  1.00  0.00     0.002 C 
BRANCH   2   3
HETATM    3  C   UNL     1       7.911  28.881  58.057  1.00  0.00     0.009 C 
BRANCH   3   4
HETATM    4  C   UNL     1       8.866  30.057  57.868  1.00  0.00     0.103 C 
BRANCH   4   5
HETATM    5  C   UNL     1       8.778  31.003  59.047  1.00  0.00     0.217 C 
HETATM    6  N   UNL     1       8.173  30.465  60.157  1.00  0.00    -0.360 N 
HETATM    7  H   UNL     1       7.745  29.551  60.105  1.00  0.00     0.162 HD
HETATM    8  O   UNL     1       9.183  32.160  58.991  1.00  0.00    -0.274 OA
BRANCH   6   9
HETATM    9  C   UNL     1       7.899  31.267  61.338  1.00  0.00     0.142 C 
BRANCH   9  10
HETATM   10  C   UNL     1       6.524  31.947  61.280  1.00  0.00     0.142 C 
BRANCH  10  11
HETATM   11  N   UNL     1       6.242  32.784  62.438  1.00  0.00    -0.360 N 
HETATM   12  C   UNL     1       5.377  32.382  63.425  1.00  0.00     0.213 C 
HETATM   13  C   UNL     1       5.283  33.328  64.593  1.00  0.00     0.117 C 
HETATM   14  O   UNL     1       4.726  31.344  63.376  1.00  0.00    -0.274 OA
HETATM   15  H   UNL     1       6.826  33.599  62.579  1.00  0.00     0.162 HD
ENDBRANCH  10  11
ENDBRANCH   9  10
ENDBRANCH   6   9
ENDBRANCH   4   5
ENDBRANCH   3   4
ENDBRANCH   2   3
ENDBRANCH   1   2
BRANCH   1  16
HETATM   16  C   UNL     1       6.658  25.726  57.301  1.00  0.00     0.121 C 
BRANCH  16  17
HETATM   17  N   UNL     1       6.863  24.340  56.899  1.00  0.00    -0.374 N 
HETATM   18  H   UNL     1       6.345  23.673  57.456  1.00  0.00     0.161 HD
BRANCH  17  19
HETATM   19  C   UNL     1       7.047  24.014  55.566  1.00  0.00     0.139 A 
HETATM   20  N   UNL     1       6.745  24.888  54.647  1.00  0.00    -0.202 NA
HETATM   21  C   UNL     1       6.870  24.603  53.314  1.00  0.00     0.200 A 
HETATM   22  S   UNL     1       6.504  25.704  52.101  1.00  0.00    -0.039 SA
HETATM   23  N   UNL     1       7.291  23.359  52.927  1.00  0.00    -0.331 N 
HETATM   24  C   UNL     1       7.651  22.378  53.846  1.00  0.00     0.048 A 
HETATM   25  H   UNL     1       7.360  23.192  51.933  1.00  0.00     0.168 HD
HETATM   26  C   UNL     1       7.569  22.664  55.206  1.00  0.00     0.036 A 
HETATM   27  C   UNL     1       8.102  21.135  53.404  1.00  0.00     0.030 A 
HETATM   28  C   UNL     1       7.972  21.708  56.142  1.00  0.00     0.017 A 
HETATM   29  C   UNL     1       8.428  20.461  55.704  1.00  0.00     0.001 A 
HETATM   30  C   UNL     1       8.486  20.173  54.339  1.00  0.00     0.002 A 
ENDBRANCH  17  19
ENDBRANCH  16  17
ENDBRANCH   1  16
TORSDOF 10
ENDMDL
MODEL 2
REMARK VINA RESULT:      -8.1      2.539      4.213
REMARK  10 active torsions:
REMARK  status: ('A' for Active; 'I' for Inactive)
REMARK       I    between atoms: C_2  and  N_3 
REMARK    1  A    between atoms: N_3  and  C_4 
REMARK    2  A    between atoms: C_4  and  C_5 
REMARK    3  A    between atoms: C_5  and  N_6 
REMARK       I    between atoms: N_6  and  C_7 
REMARK    4  A    between atoms: C_7  and  C_8 
REMARK    5  A    between atoms: C_8  and  C_9 
REMARK    6  A    between atoms: C_9  and  C_10 
REMARK    7  A    between atoms: C_10  and  C_11 
REMARK    8  A    between atoms: C_11  and  C_12 
REMARK    9  A    between atoms: C_12  and  N_13 
REMARK   10  A    between atoms: N_13  and  C_14 
ROOT
HETATM    1  C   UNL     1       5.488  25.580  52.257  1.00  0.00     0.020 C 
ENDROOT
BRANCH   1   2
HETATM    2  C   UNL     1       4.725  26.131  53.467  1.00  0.00     0.002 C 
BRANCH   2   3
HETATM    3  C   UNL     1       4.849  27.648  53.617  1.00  0.00     0.009 C 
BRANCH   3   4
HETATM    4  C   UNL     1       4.732  28.085  55.075  1.00  0.00     0.103 C 
BRANCH   4   5
HETATM    5  C   UNL     1       6.103  28.342  55.660  1.00  0.00     0.217 C 
HETATM    6  N   UNL     1       6.092  28.686  56.991  1.00  0.00    -0.360 N 
HETATM    7  H   UNL     1       5.213  28.843  57.464  1.00  0.00     0.162 HD
HETATM    8  O   UNL     1       7.127  28.283  54.986  1.00  0.00    -0.274 OA
BRANCH   6   9
HETATM    9  C   UNL     1       7.307  29.082  57.685  1.00  0.00     0.142 C 
BRANCH   9  10
HETATM   10  C   UNL     1       7.174  30.450  58.368  1.00  0.00     0.142 C 
BRANCH  10  11
HETATM   11  N   UNL     1       7.792  30.502  59.685  1.00  0.00    -0.360 N 
HETATM   12  C   UNL     1       8.567  31.566  60.076  1.00  0.00     0.213 C 
HETATM   13  C   UNL     1       9.042  31.499  61.504  1.00  0.00     0.117 C 
HETATM   14  O   UNL     1       8.858  32.502  59.338  1.00  0.00    -0.274 OA
HETATM   15  H   UNL     1       7.503  29.812  60.366  1.00  0.00     0.162 HD
ENDBRANCH  10  11
ENDBRANCH   9  10
ENDBRANCH   6   9
ENDBRANCH   4   5
ENDBRANCH   3   4
ENDBRANCH   2   3
ENDBRANCH   1   2
BRANCH   1  16
HETATM   16  C   UNL     1       6.992  25.843  52.317  1.00  0.00     0.121 C 
BRANCH  16  17
HETATM   17  N   UNL     1       7.713  24.593  52.518  1.00  0.00    -0.374 N 
HETATM   18  H   UNL     1       8.461  24.441  51.853  1.00  0.00     0.161 HD
BRANCH  17  19
HETATM   19  C   UNL     1       7.918  24.096  53.795  1.00  0.00     0.139 A 
HETATM   20  N   UNL     1       7.906  24.915  54.808  1.00  0.00    -0.202 NA
HETATM   21  C   UNL     1       8.143  24.484  56.085  1.00  0.00     0.200 A 
HETATM   22  S   UNL     1       8.125  25.503  57.418  1.00  0.00    -0.039 SA
HETATM   23  N   UNL     1       8.433  23.164  56.308  1.00  0.00    -0.331 N 
HETATM   24  C   UNL     1       8.445  22.224  55.283  1.00  0.00     0.048 A 
HETATM   25  H   UNL     1       8.609  22.893  57.265  1.00  0.00     0.168 HD
HETATM   26  C   UNL     1       8.167  22.637  53.983  1.00  0.00     0.036 A 
HETATM   27  C   UNL     1       8.717  20.885  55.563  1.00  0.00     0.030 A 
HETATM   28  C   UNL     1       8.127  21.698  52.949  1.00  0.00     0.017 A 
HETATM   29  C   UNL     1       8.396  20.355  53.224  1.00  0.00     0.001 A 
HETATM   30  C   UNL     1       8.697  19.950  54.527  1.00  0.00     0.002 A 
ENDBRANCH  17  19
ENDBRANCH  16  17
ENDBRANCH   1  16
TORSDOF 10
ENDMDL
MODEL 3
REMARK VINA RESULT:      -7.8      1.958      2.525
REMARK  10 active torsions:
REMARK  status: ('A' for Active; 'I' for Inactive)
REMARK       I    between atoms: C_2  and  N_3 
REMARK    1  A    between atoms: N_3  and  C_4 
REMARK    2  A    between atoms: C_4  and  C_5 
REMARK    3  A    between atoms: C_5  and  N_6 
REMARK       I    between atoms: N_6  and  C_7 
REMARK    4  A    between atoms: C_7  and  C_8 
REMARK    5  A    between atoms: C_8  and  C_9 
REMARK    6  A    between atoms: C_9  and  C_10 
REMARK    7  A    between atoms: C_10  and  C_11 
REMARK    8  A    between atoms: C_11  and  C_12 
REMARK    9  A    between atoms: C_12  and  N_13 
REMARK   10  A    between atoms: N_13  and  C_14 
ROOT
HETATM    1  C   UNL     1       7.608  26.785  57.767  1.00  0.00     0.020 C 
ENDROOT
BRANCH   1   2
HETATM    2  C   UNL     1       8.232  27.963  57.009  1.00  0.00     0.002 C 
BRANCH   2   3
HETATM    3  C   UNL     1       7.825  29.325  57.574  1.00  0.00     0.009 C 
BRANCH   3   4
HETATM    4  C   UNL     1       8.953  29.962  58.382  1.00  0.00     0.103 C 
BRANCH   4   5
HETATM    5  C   UNL     1       8.477  31.241  59.035  1.00  0.00     0.217 C 
HETATM    6  N   UNL     1       7.248  31.141  59.642  1.00  0.00    -0.360 N 
HETATM    7  H   UNL     1       6.703  30.295  59.540  1.00  0.00     0.162 HD
HETATM    8  O   UNL     1       9.125  32.282  58.988  1.00  0.00    -0.274 OA
BRANCH   6   9
HETATM    9  C   UNL     1       6.585  32.301  60.215  1.00  0.00     0.142 C 
BRANCH   9  10
HETATM   10  C   UNL     1       5.074  32.305  59.949  1.00  0.00     0.142 C 
BRANCH  10  11
HETATM   11  N   UNL     1       4.652  31.293  58.991  1.00  0.00    -0.360 N 
HETATM   12  C   UNL     1       3.729  31.567  58.012  1.00  0.00     0.213 C 
HETATM   13  C   UNL     1       3.488  30.433  57.050  1.00  0.00     0.117 C 
HETATM   14  O   UNL     1       3.142  32.638  57.913  1.00  0.00    -0.274 OA
HETATM   15  H   UNL     1       5.178  30.428  58.961  1.00  0.00     0.162 HD
ENDBRANCH  10  11
ENDBRANCH   9  10
ENDBRANCH   6   9
ENDBRANCH   4   5
ENDBRANCH   3   4
ENDBRANCH   2   3
ENDBRANCH   1   2
BRANCH   1  16
HETATM   16  C   UNL     1       8.229  25.435  57.407  1.00  0.00     0.121 C 
BRANCH  16  17
HETATM   17  N   UNL     1       7.216  24.550  56.847  1.00  0.00    -0.374 N 
HETATM   18  H   UNL     1       6.291  24.691  57.233  1.00  0.00     0.161 HD
BRANCH  17  19
HETATM   19  C   UNL     1       7.274  24.167  55.517  1.00  0.00     0.139 A 
HETATM   20  N   UNL     1       6.949  25.025  54.592  1.00  0.00    -0.202 NA
HETATM   21  C   UNL     1       6.949  24.687  53.265  1.00  0.00     0.200 A 
HETATM   22  S   UNL     1       6.550  25.765  52.042  1.00  0.00    -0.039 SA
HETATM   23  N   UNL     1       7.265  23.408  52.895  1.00  0.00    -0.331 N 
HETATM   24  C   UNL     1       7.640  22.439  53.821  1.00  0.00     0.048 A 
HETATM   25  H   UNL     1       7.243  23.202  51.906  1.00  0.00     0.168 HD
HETATM   26  C   UNL     1       7.685  22.776  55.171  1.00  0.00     0.036 A 
HETATM   27  C   UNL     1       7.982  21.156  53.394  1.00  0.00     0.030 A 
HETATM   28  C   UNL     1       8.108  21.830  56.109  1.00  0.00     0.017 A 
HETATM   29  C   UNL     1       8.454  20.544  55.686  1.00  0.00     0.001 A 
HETATM   30  C   UNL     1       8.384  20.206  54.333  1.00  0.00     0.002 A 
ENDBRANCH  17  19
ENDBRANCH  16  17
ENDBRANCH   1  16
TORSDOF 10
ENDMDL
MODEL 4
REMARK VINA RESULT:      -7.7      1.719      2.154
REMARK  10 active torsions:
REMARK  status: ('A' for Active; 'I' for Inactive)
REMARK       I    between atoms: C_2  and  N_3 
REMARK    1  A    between atoms: N_3  and  C_4 
REMARK    2  A    between atoms: C_4  and  C_5 
REMARK    3  A    between atoms: C_5  and  N_6 
REMARK       I    between atoms: N_6  and  C_7 
REMARK    4  A    between atoms: C_7  and  C_8 
REMARK    5  A    between atoms: C_8  and  C_9 
REMARK    6  A    between atoms: C_9  and  C_10 
REMARK    7  A    between atoms: C_10  and  C_11 
REMARK    8  A    between atoms: C_11  and  C_12 
REMARK    9  A    between atoms: C_12  and  N_13 
REMARK   10  A    between atoms: N_13  and  C_14 
ROOT
HETATM    1  C   UNL     1       6.458  28.163  55.870  1.00  0.00     0.020 C 
ENDROOT
BRANCH   1   2
HETATM    2  C   UNL     1       7.569  27.789  56.858  1.00  0.00     0.002 C 
BRANCH   2   3
HETATM    3  C   UNL     1       7.555  28.637  58.130  1.00  0.00     0.009 C 
BRANCH   3   4
HETATM    4  C   UNL     1       7.073  30.059  57.857  1.00  0.00     0.103 C 
BRANCH   4   5
HETATM    5  C   UNL     1       7.557  30.998  58.941  1.00  0.00     0.217 C 
HETATM    6  N   UNL     1       8.094  30.365  60.036  1.00  0.00    -0.360 N 
HETATM    7  H   UNL     1       8.048  29.358  60.108  1.00  0.00     0.162 HD
HETATM    8  O   UNL     1       7.440  32.216  58.854  1.00  0.00    -0.274 OA
BRANCH   6   9
HETATM    9  C   UNL     1       8.500  31.105  61.220  1.00  0.00     0.142 C 
BRANCH   9  10
HETATM   10  C   UNL     1       7.410  31.129  62.300  1.00  0.00     0.142 C 
BRANCH  10  11
HETATM   11  N   UNL     1       6.243  31.918  61.928  1.00  0.00    -0.360 N 
HETATM   12  C   UNL     1       5.031  31.749  62.549  1.00  0.00     0.213 C 
HETATM   13  C   UNL     1       3.965  32.717  62.107  1.00  0.00     0.117 C 
HETATM   14  O   UNL     1       4.815  30.888  63.396  1.00  0.00    -0.274 OA
HETATM   15  H   UNL     1       6.389  32.708  61.313  1.00  0.00     0.162 HD
ENDBRANCH  10  11
ENDBRANCH   9  10
ENDBRANCH   6   9
ENDBRANCH   4   5
ENDBRANCH   3   4
ENDBRANCH   2   3
ENDBRANCH   1   2
BRANCH   1  16
HETATM   16  C   UNL     1       5.105  27.542  56.216  1.00  0.00     0.121 C 
BRANCH  16  17
HETATM   17  N   UNL     1       5.009  26.201  55.654  1.00  0.00    -0.374 N 
HETATM   18  H   UNL     1       4.161  25.711  55.909  1.00  0.00     0.161 HD
BRANCH  17  19
HETATM   19  C   UNL     1       5.521  25.927  54.397  1.00  0.00     0.139 A 
HETATM   20  N   UNL     1       5.114  26.626  53.376  1.00  0.00    -0.202 NA
HETATM   21  C   UNL     1       5.557  26.369  52.106  1.00  0.00     0.200 A 
HETATM   22  S   UNL     1       5.068  27.253  50.766  1.00  0.00    -0.039 SA
HETATM   23  N   UNL     1       6.426  25.333  51.891  1.00  0.00    -0.331 N 
HETATM   24  C   UNL     1       6.922  24.553  52.931  1.00  0.00     0.048 A 
HETATM   25  H   UNL     1       6.719  25.176  50.937  1.00  0.00     0.168 HD
HETATM   26  C   UNL     1       6.513  24.825  54.234  1.00  0.00     0.036 A 
HETATM   27  C   UNL     1       7.828  23.527  52.667  1.00  0.00     0.030 A 
HETATM   28  C   UNL     1       7.039  24.084  55.296  1.00  0.00     0.017 A 
HETATM   29  C   UNL     1       7.949  23.056  55.037  1.00  0.00     0.001 A 
HETATM   30  C   UNL     1       8.337  22.773  53.725  1.00  0.00     0.002 A 
ENDBRANCH  17  19
ENDBRANCH  16  17
ENDBRANCH   1  16
TORSDOF 10
ENDMDL
MODEL 5
REMARK VINA RESULT:      -7.7      6.481      9.989
REMARK  10 active torsions:
REMARK  status: ('A' for Active; 'I' for Inactive)
REMARK       I    between atoms: C_2  and  N_3 
REMARK    1  A    between atoms: N_3  and  C_4 
REMARK    2  A    between atoms: C_4  and  C_5 
REMARK    3  A    between atoms: C_5  and  N_6 
REMARK       I    between atoms: N_6  and  C_7 
REMARK    4  A    between atoms: C_7  and  C_8 
REMARK    5  A    between atoms: C_8  and  C_9 
REMARK    6  A    between atoms: C_9  and  C_10 
REMARK    7  A    between atoms: C_10  and  C_11 
REMARK    8  A    between atoms: C_11  and  C_12 
REMARK    9  A    between atoms: C_12  and  N_13 
REMARK   10  A    between atoms: N_13  and  C_14 
ROOT
HETATM    1  C   UNL     1       5.964  26.865  51.872  1.00  0.00     0.020 C 
ENDROOT
BRANCH   1   2
HETATM    2  C   UNL     1       4.767  27.201  50.975  1.00  0.00     0.002 C 
BRANCH   2   3
HETATM    3  C   UNL     1       4.960  26.760  49.523  1.00  0.00     0.009 C 
BRANCH   3   4
HETATM    4  C   UNL     1       3.877  25.777  49.082  1.00  0.00     0.103 C 
BRANCH   4   5
HETATM    5  C   UNL     1       3.045  26.374  47.968  1.00  0.00     0.217 C 
HETATM    6  N   UNL     1       1.793  26.785  48.359  1.00  0.00    -0.360 N 
HETATM    7  H   UNL     1       1.467  26.587  49.295  1.00  0.00     0.162 HD
HETATM    8  O   UNL     1       3.450  26.443  46.812  1.00  0.00    -0.274 OA
BRANCH   6   9
HETATM    9  C   UNL     1       0.818  27.273  47.397  1.00  0.00     0.142 C 
BRANCH   9  10
HETATM   10  C   UNL     1       0.802  28.804  47.301  1.00  0.00     0.142 C 
BRANCH  10  11
HETATM   11  N   UNL     1       2.028  29.362  46.748  1.00  0.00    -0.360 N 
HETATM   12  C   UNL     1       3.050  29.799  47.554  1.00  0.00     0.213 C 
HETATM   13  C   UNL     1       4.280  30.251  46.811  1.00  0.00     0.117 C 
HETATM   14  O   UNL     1       2.985  29.826  48.779  1.00  0.00    -0.274 OA
HETATM   15  H   UNL     1       2.177  29.269  45.751  1.00  0.00     0.162 HD
ENDBRANCH  10  11
ENDBRANCH   9  10
ENDBRANCH   6   9
ENDBRANCH   4   5
ENDBRANCH   3   4
ENDBRANCH   2   3
ENDBRANCH   1   2
BRANCH   1  16
HETATM   16  C   UNL     1       6.292  25.373  51.911  1.00  0.00     0.121 C 
BRANCH  16  17
HETATM   17  N   UNL     1       7.560  25.154  52.595  1.00  0.00    -0.374 N 
HETATM   18  H   UNL     1       8.259  25.859  52.395  1.00  0.00     0.161 HD
BRANCH  17  19
HETATM   19  C   UNL     1       7.588  24.607  53.867  1.00  0.00     0.139 A 
HETATM   20  N   UNL     1       7.497  25.393  54.902  1.00  0.00    -0.202 NA
HETATM   21  C   UNL     1       7.561  24.909  56.181  1.00  0.00     0.200 A 
HETATM   22  S   UNL     1       7.436  25.885  57.540  1.00  0.00    -0.039 SA
HETATM   23  N   UNL     1       7.756  23.570  56.386  1.00  0.00    -0.331 N 
HETATM   24  C   UNL     1       7.843  22.663  55.334  1.00  0.00     0.048 A 
HETATM   25  H   UNL     1       7.804  23.259  57.346  1.00  0.00     0.168 HD
HETATM   26  C   UNL     1       7.740  23.132  54.027  1.00  0.00     0.036 A 
HETATM   27  C   UNL     1       8.013  21.303  55.593  1.00  0.00     0.030 A 
HETATM   28  C   UNL     1       7.776  22.230  52.961  1.00  0.00     0.017 A 
HETATM   29  C   UNL     1       7.944  20.866  53.215  1.00  0.00     0.001 A 
HETATM   30  C   UNL     1       8.069  20.405  54.527  1.00  0.00     0.002 A 
ENDBRANCH  17  19
ENDBRANCH  16  17
ENDBRANCH   1  16
TORSDOF 10
ENDMDL
MODEL 6
REMARK VINA RESULT:      -7.7      6.341      9.574
REMARK  10 active torsions:
REMARK  status: ('A' for Active; 'I' for Inactive)
REMARK       I    between atoms: C_2  and  N_3 
REMARK    1  A    between atoms: N_3  and  C_4 
REMARK    2  A    between atoms: C_4  and  C_5 
REMARK    3  A    between atoms: C_5  and  N_6 
REMARK       I    between atoms: N_6  and  C_7 
REMARK    4  A    between atoms: C_7  and  C_8 
REMARK    5  A    between atoms: C_8  and  C_9 
REMARK    6  A    between atoms: C_9  and  C_10 
REMARK    7  A    between atoms: C_10  and  C_11 
REMARK    8  A    between atoms: C_11  and  C_12 
REMARK    9  A    between atoms: C_12  and  N_13 
REMARK   10  A    between atoms: N_13  and  C_14 
ROOT
HETATM    1  C   UNL     1       5.043  25.752  51.190  1.00  0.00     0.020 C 
ENDROOT
BRANCH   1   2
HETATM    2  C   UNL     1       5.780  27.092  51.289  1.00  0.00     0.002 C 
BRANCH   2   3
HETATM    3  C   UNL     1       5.442  28.051  50.146  1.00  0.00     0.009 C 
BRANCH   3   4
HETATM    4  C   UNL     1       4.660  29.266  50.639  1.00  0.00     0.103 C 
BRANCH   4   5
HETATM    5  C   UNL     1       3.175  29.052  50.445  1.00  0.00     0.217 C 
HETATM    6  N   UNL     1       2.784  28.971  49.130  1.00  0.00    -0.360 N 
HETATM    7  H   UNL     1       3.452  29.152  48.394  1.00  0.00     0.162 HD
HETATM    8  O   UNL     1       2.391  28.996  51.388  1.00  0.00    -0.274 OA
BRANCH   6   9
HETATM    9  C   UNL     1       1.381  28.886  48.757  1.00  0.00     0.142 C 
BRANCH   9  10
HETATM   10  C   UNL     1       1.139  27.898  47.607  1.00  0.00     0.142 C 
BRANCH  10  11
HETATM   11  N   UNL     1       1.528  26.532  47.926  1.00  0.00    -0.360 N 
HETATM   12  C   UNL     1       2.772  26.044  47.609  1.00  0.00     0.213 C 
HETATM   13  C   UNL     1       3.035  24.645  48.102  1.00  0.00     0.117 C 
HETATM   14  O   UNL     1       3.610  26.679  46.978  1.00  0.00    -0.274 OA
HETATM   15  H   UNL     1       0.917  26.001  48.534  1.00  0.00     0.162 HD
ENDBRANCH  10  11
ENDBRANCH   9  10
ENDBRANCH   6   9
ENDBRANCH   4   5
ENDBRANCH   3   4
ENDBRANCH   2   3
ENDBRANCH   1   2
BRANCH   1  16
HETATM   16  C   UNL     1       5.168  24.897  52.451  1.00  0.00     0.121 C 
BRANCH  16  17
HETATM   17  N   UNL     1       6.554  24.494  52.650  1.00  0.00    -0.374 N 
HETATM   18  H   UNL     1       7.217  25.023  52.097  1.00  0.00     0.161 HD
BRANCH  17  19
HETATM   19  C   UNL     1       6.992  24.073  53.895  1.00  0.00     0.139 A 
HETATM   20  N   UNL     1       6.884  24.876  54.915  1.00  0.00    -0.202 NA
HETATM   21  C   UNL     1       7.339  24.526  56.158  1.00  0.00     0.200 A 
HETATM   22  S   UNL     1       7.207  25.525  57.500  1.00  0.00    -0.039 SA
HETATM   23  N   UNL     1       7.953  23.315  56.334  1.00  0.00    -0.331 N 
HETATM   24  C   UNL     1       8.090  22.394  55.300  1.00  0.00     0.048 A 
HETATM   25  H   UNL     1       8.280  23.103  57.267  1.00  0.00     0.168 HD
HETATM   26  C   UNL     1       7.597  22.717  54.038  1.00  0.00     0.036 A 
HETATM   27  C   UNL     1       8.697  21.161  55.535  1.00  0.00     0.030 A 
HETATM   28  C   UNL     1       7.682  21.785  53.001  1.00  0.00     0.017 A 
HETATM   29  C   UNL     1       8.287  20.547  53.231  1.00  0.00     0.001 A 
HETATM   30  C   UNL     1       8.799  20.238  54.494  1.00  0.00     0.002 A 
ENDBRANCH  17  19
ENDBRANCH  16  17
ENDBRANCH   1  16
TORSDOF 10
ENDMDL
MODEL 7
REMARK VINA RESULT:      -7.7      4.906      7.450
REMARK  10 active torsions:
REMARK  status: ('A' for Active; 'I' for Inactive)
REMARK       I    between atoms: C_2  and  N_3 
REMARK    1  A    between atoms: N_3  and  C_4 
REMARK    2  A    between atoms: C_4  and  C_5 
REMARK    3  A    between atoms: C_5  and  N_6 
REMARK       I    between atoms: N_6  and  C_7 
REMARK    4  A    between atoms: C_7  and  C_8 
REMARK    5  A    between atoms: C_8  and  C_9 
REMARK    6  A    between atoms: C_9  and  C_10 
REMARK    7  A    between atoms: C_10  and  C_11 
REMARK    8  A    between atoms: C_11  and  C_12 
REMARK    9  A    between atoms: C_12  and  N_13 
REMARK   10  A    between atoms: N_13  and  C_14 
ROOT
HETATM    1  C   UNL     1       9.508  31.317  61.432  1.00  0.00     0.020 C 
ENDROOT
BRANCH   1   2
HETATM    2  C   UNL     1       8.444  31.268  62.533  1.00  0.00     0.002 C 
BRANCH   2   3
HETATM    3  C   UNL     1       7.713  32.598  62.724  1.00  0.00     0.009 C 
BRANCH   3   4
HETATM    4  C   UNL     1       7.593  32.972  64.199  1.00  0.00     0.103 C 
BRANCH   4   5
HETATM    5  C   UNL     1       6.138  33.081  64.600  1.00  0.00     0.217 C 
HETATM    6  N   UNL     1       5.925  33.778  65.765  1.00  0.00    -0.360 N 
HETATM    7  H   UNL     1       6.713  34.078  66.323  1.00  0.00     0.162 HD
HETATM    8  O   UNL     1       5.238  32.557  63.952  1.00  0.00    -0.274 OA
BRANCH   6   9
HETATM    9  C   UNL     1       4.603  33.880  66.360  1.00  0.00     0.142 C 
BRANCH   9  10
HETATM   10  C   UNL     1       4.634  34.525  67.753  1.00  0.00     0.142 C 
BRANCH  10  11
HETATM   11  N   UNL     1       5.389  33.756  68.731  1.00  0.00    -0.360 N 
HETATM   12  C   UNL     1       6.475  34.286  69.383  1.00  0.00     0.213 C 
HETATM   13  C   UNL     1       7.073  33.385  70.431  1.00  0.00     0.117 C 
HETATM   14  O   UNL     1       6.933  35.399  69.145  1.00  0.00    -0.274 OA
HETATM   15  H   UNL     1       4.996  32.876  69.039  1.00  0.00     0.162 HD
ENDBRANCH  10  11
ENDBRANCH   9  10
ENDBRANCH   6   9
ENDBRANCH   4   5
ENDBRANCH   3   4
ENDBRANCH   2   3
ENDBRANCH   1   2
BRANCH   1  16
HETATM   16  C   UNL     1       9.200  32.335  60.335  1.00  0.00     0.121 C 
BRANCH  16  17
HETATM   17  N   UNL     1       9.022  31.659  59.057  1.00  0.00    -0.374 N 
HETATM   18  H   UNL     1       9.801  31.069  58.794  1.00  0.00     0.161 HD
BRANCH  17  19
HETATM   19  C   UNL     1       7.766  31.233  58.656  1.00  0.00     0.139 A 
HETATM   20  N   UNL     1       6.738  32.010  58.846  1.00  0.00    -0.202 NA
HETATM   21  C   UNL     1       5.470  31.622  58.506  1.00  0.00     0.200 A 
HETATM   22  S   UNL     1       4.121  32.596  58.723  1.00  0.00    -0.039 SA
HETATM   23  N   UNL     1       5.265  30.373  57.982  1.00  0.00    -0.331 N 
HETATM   24  C   UNL     1       6.312  29.493  57.731  1.00  0.00     0.048 A 
HETATM   25  H   UNL     1       4.312  30.127  57.755  1.00  0.00     0.168 HD
HETATM   26  C   UNL     1       7.613  29.886  58.033  1.00  0.00     0.036 A 
HETATM   27  C   UNL     1       6.058  28.243  57.169  1.00  0.00     0.030 A 
HETATM   28  C   UNL     1       8.682  29.034  57.742  1.00  0.00     0.017 A 
HETATM   29  C   UNL     1       8.432  27.781  57.176  1.00  0.00     0.001 A 
HETATM   30  C   UNL     1       7.123  27.384  56.897  1.00  0.00     0.002 A 
ENDBRANCH  17  19
ENDBRANCH  16  17
ENDBRANCH   1  16
TORSDOF 10
ENDMDL
MODEL 8
REMARK VINA RESULT:      -7.6      3.781      5.476
REMARK  10 active torsions:
REMARK  status: ('A' for Active; 'I' for Inactive)
REMARK       I    between atoms: C_2  and  N_3 
REMARK    1  A    between atoms: N_3  and  C_4 
REMARK    2  A    between atoms: C_4  and  C_5 
REMARK    3  A    between atoms: C_5  and  N_6 
REMARK       I    between atoms: N_6  and  C_7 
REMARK    4  A    between atoms: C_7  and  C_8 
REMARK    5  A    between atoms: C_8  and  C_9 
REMARK    6  A    between atoms: C_9  and  C_10 
REMARK    7  A    between atoms: C_10  and  C_11 
REMARK    8  A    between atoms: C_11  and  C_12 
REMARK    9  A    between atoms: C_12  and  N_13 
REMARK   10  A    between atoms: N_13  and  C_14 
ROOT
HETATM    1  C   UNL     1       5.387  25.711  51.376  1.00  0.00     0.020 C 
ENDROOT
BRANCH   1   2
HETATM    2  C   UNL     1       4.672  27.045  51.132  1.00  0.00     0.002 C 
BRANCH   2   3
HETATM    3  C   UNL     1       5.461  28.253  51.640  1.00  0.00     0.009 C 
BRANCH   3   4
HETATM    4  C   UNL     1       4.584  29.197  52.459  1.00  0.00     0.103 C 
BRANCH   4   5
HETATM    5  C   UNL     1       4.757  28.928  53.938  1.00  0.00     0.217 C 
HETATM    6  N   UNL     1       5.824  29.582  54.508  1.00  0.00    -0.360 N 
HETATM    7  H   UNL     1       6.468  30.099  53.926  1.00  0.00     0.162 HD
HETATM    8  O   UNL     1       4.025  28.162  54.555  1.00  0.00    -0.274 OA
BRANCH   6   9
HETATM    9  C   UNL     1       6.208  29.347  55.891  1.00  0.00     0.142 C 
BRANCH   9  10
HETATM   10  C   UNL     1       7.466  28.475  56.010  1.00  0.00     0.142 C 
BRANCH  10  11
HETATM   11  N   UNL     1       8.678  29.239  56.270  1.00  0.00    -0.360 N 
HETATM   12  C   UNL     1       9.106  29.499  57.548  1.00  0.00     0.213 C 
HETATM   13  C   UNL     1      10.429  30.214  57.628  1.00  0.00     0.117 C 
HETATM   14  O   UNL     1       8.477  29.183  58.553  1.00  0.00    -0.274 OA
HETATM   15  H   UNL     1       9.286  29.434  55.485  1.00  0.00     0.162 HD
ENDBRANCH  10  11
ENDBRANCH   9  10
ENDBRANCH   6   9
ENDBRANCH   4   5
ENDBRANCH   3   4
ENDBRANCH   2   3
ENDBRANCH   1   2
BRANCH   1  16
HETATM   16  C   UNL     1       5.932  25.566  52.796  1.00  0.00     0.121 C 
BRANCH  16  17
HETATM   17  N   UNL     1       6.985  24.559  52.830  1.00  0.00    -0.374 N 
HETATM   18  H   UNL     1       7.672  24.661  52.094  1.00  0.00     0.161 HD
BRANCH  17  19
HETATM   19  C   UNL     1       7.450  24.068  54.039  1.00  0.00     0.139 A 
HETATM   20  N   UNL     1       7.495  24.858  55.074  1.00  0.00    -0.202 NA
HETATM   21  C   UNL     1       7.984  24.436  56.281  1.00  0.00     0.200 A 
HETATM   22  S   UNL     1       8.048  25.417  57.640  1.00  0.00    -0.039 SA
HETATM   23  N   UNL     1       8.469  23.161  56.403  1.00  0.00    -0.331 N 
HETATM   24  C   UNL     1       8.439  22.251  55.351  1.00  0.00     0.048 A 
HETATM   25  H   UNL     1       8.828  22.896  57.310  1.00  0.00     0.168 HD
HETATM   26  C   UNL     1       7.908  22.651  54.127  1.00  0.00     0.036 A 
HETATM   27  C   UNL     1       8.918  20.955  55.531  1.00  0.00     0.030 A 
HETATM   28  C   UNL     1       7.824  21.736  53.074  1.00  0.00     0.017 A 
HETATM   29  C   UNL     1       8.301  20.434  53.251  1.00  0.00     0.001 A 
HETATM   30  C   UNL     1       8.853  20.046  54.474  1.00  0.00     0.002 A 
ENDBRANCH  17  19
ENDBRANCH  16  17
ENDBRANCH   1  16
TORSDOF 10
ENDMDL
MODEL 9
REMARK VINA RESULT:      -7.4      5.056      8.197
REMARK  10 active torsions:
REMARK  status: ('A' for Active; 'I' for Inactive)
REMARK       I    between atoms: C_2  and  N_3 
REMARK    1  A    between atoms: N_3  and  C_4 
REMARK    2  A    between atoms: C_4  and  C_5 
REMARK    3  A    between atoms: C_5  and  N_6 
REMARK       I    between atoms: N_6  and  C_7 
REMARK    4  A    between atoms: C_7  and  C_8 
REMARK    5  A    between atoms: C_8  and  C_9 
REMARK    6  A    between atoms: C_9  and  C_10 
REMARK    7  A    between atoms: C_10  and  C_11 
REMARK    8  A    between atoms: C_11  and  C_12 
REMARK    9  A    between atoms: C_12  and  N_13 
REMARK   10  A    between atoms: N_13  and  C_14 
ROOT
HETATM    1  C   UNL     1       6.102  26.770  57.229  1.00  0.00     0.020 C 
ENDROOT
BRANCH   1   2
HETATM    2  C   UNL     1       4.839  27.331  56.565  1.00  0.00     0.002 C 
BRANCH   2   3
HETATM    3  C   UNL     1       5.129  28.475  55.591  1.00  0.00     0.009 C 
BRANCH   3   4
HETATM    4  C   UNL     1       5.899  27.993  54.365  1.00  0.00     0.103 C 
BRANCH   4   5
HETATM    5  C   UNL     1       4.963  27.814  53.189  1.00  0.00     0.217 C 
HETATM    6  N   UNL     1       5.573  27.913  51.962  1.00  0.00    -0.360 N 
HETATM    7  H   UNL     1       6.544  28.188  51.903  1.00  0.00     0.162 HD
HETATM    8  O   UNL     1       3.757  27.634  53.332  1.00  0.00    -0.274 OA
BRANCH   6   9
HETATM    9  C   UNL     1       4.808  27.885  50.726  1.00  0.00     0.142 C 
BRANCH   9  10
HETATM   10  C   UNL     1       4.825  26.505  50.056  1.00  0.00     0.142 C 
BRANCH  10  11
HETATM   11  N   UNL     1       3.711  26.290  49.143  1.00  0.00    -0.360 N 
HETATM   12  C   UNL     1       3.895  26.234  47.783  1.00  0.00     0.213 C 
HETATM   13  C   UNL     1       2.650  25.905  47.001  1.00  0.00     0.117 C 
HETATM   14  O   UNL     1       4.974  26.430  47.235  1.00  0.00    -0.274 OA
HETATM   15  H   UNL     1       2.822  26.020  49.544  1.00  0.00     0.162 HD
ENDBRANCH  10  11
ENDBRANCH   9  10
ENDBRANCH   6   9
ENDBRANCH   4   5
ENDBRANCH   3   4
ENDBRANCH   2   3
ENDBRANCH   1   2
BRANCH   1  16
HETATM   16  C   UNL     1       6.162  25.243  57.224  1.00  0.00     0.121 C 
BRANCH  16  17
HETATM   17  N   UNL     1       7.502  24.794  56.865  1.00  0.00    -0.374 N 
HETATM   18  H   UNL     1       8.054  24.484  57.655  1.00  0.00     0.161 HD
BRANCH  17  19
HETATM   19  C   UNL     1       7.727  24.142  55.665  1.00  0.00     0.139 A 
HETATM   20  N   UNL     1       7.624  24.805  54.549  1.00  0.00    -0.202 NA
HETATM   21  C   UNL     1       7.796  24.200  53.333  1.00  0.00     0.200 A 
HETATM   22  S   UNL     1       7.684  25.021  51.873  1.00  0.00    -0.039 SA
HETATM   23  N   UNL     1       8.052  22.856  53.279  1.00  0.00    -0.331 N 
HETATM   24  C   UNL     1       8.197  22.082  54.426  1.00  0.00     0.048 A 
HETATM   25  H   UNL     1       8.164  22.451  52.360  1.00  0.00     0.168 HD
HETATM   26  C   UNL     1       8.065  22.689  55.672  1.00  0.00     0.036 A 
HETATM   27  C   UNL     1       8.487  20.722  54.322  1.00  0.00     0.030 A 
HETATM   28  C   UNL     1       8.255  21.937  56.834  1.00  0.00     0.017 A 
HETATM   29  C   UNL     1       8.549  20.574  56.736  1.00  0.00     0.001 A 
HETATM   30  C   UNL     1       8.657  19.967  55.483  1.00  0.00     0.002 A 
ENDBRANCH  17  19
ENDBRANCH  16  17
ENDBRANCH   1  16
TORSDOF 10
ENDMDL
MODEL 10
REMARK VINA RESULT:      -7.4      2.751      4.467
REMARK  10 active torsions:
REMARK  status: ('A' for Active; 'I' for Inactive)
REMARK       I    between atoms: C_2  and  N_3 
REMARK    1  A    between atoms: N_3  and  C_4 
REMARK    2  A    between atoms: C_4  and  C_5 
REMARK    3  A    between atoms: C_5  and  N_6 
REMARK       I    between atoms: N_6  and  C_7 
REMARK    4  A    between atoms: C_7  and  C_8 
REMARK    5  A    between atoms: C_8  and  C_9 
REMARK    6  A    between atoms: C_9  and  C_10 
REMARK    7  A    between atoms: C_10  and  C_11 
REMARK    8  A    between atoms: C_11  and  C_12 
REMARK    9  A    between atoms: C_12  and  N_13 
REMARK   10  A    between atoms: N_13  and  C_14 
ROOT
HETATM    1  C   UNL     1       4.680  26.269  53.466  1.00  0.00     0.020 C 
ENDROOT
BRANCH   1   2
HETATM    2  C   UNL     1       5.212  27.635  53.019  1.00  0.00     0.002 C 
BRANCH   2   3
HETATM    3  C   UNL     1       5.945  28.389  54.130  1.00  0.00     0.009 C 
BRANCH   3   4
HETATM    4  C   UNL     1       4.978  29.164  55.022  1.00  0.00     0.103 C 
BRANCH   4   5
HETATM    5  C   UNL     1       5.518  29.255  56.432  1.00  0.00     0.217 C 
HETATM    6  N   UNL     1       6.881  29.102  56.525  1.00  0.00    -0.360 N 
HETATM    7  H   UNL     1       7.416  28.846  55.706  1.00  0.00     0.162 HD
HETATM    8  O   UNL     1       4.788  29.416  57.405  1.00  0.00    -0.274 OA
BRANCH   6   9
HETATM    9  C   UNL     1       7.555  29.044  57.812  1.00  0.00     0.142 C 
BRANCH   9  10
HETATM   10  C   UNL     1       8.419  30.284  58.078  1.00  0.00     0.142 C 
BRANCH  10  11
HETATM   11  N   UNL     1       8.829  30.416  59.469  1.00  0.00    -0.360 N 
HETATM   12  C   UNL     1       9.197  31.628  60.000  1.00  0.00     0.213 C 
HETATM   13  C   UNL     1       9.493  31.595  61.477  1.00  0.00     0.117 C 
HETATM   14  O   UNL     1       9.282  32.660  59.344  1.00  0.00    -0.274 OA
HETATM   15  H   UNL     1       8.680  29.622  60.079  1.00  0.00     0.162 HD
ENDBRANCH  10  11
ENDBRANCH   9  10
ENDBRANCH   6   9
ENDBRANCH   4   5
ENDBRANCH   3   4
ENDBRANCH   2   3
ENDBRANCH   1   2
BRANCH   1  16
HETATM   16  C   UNL     1       5.266  25.101  52.674  1.00  0.00     0.121 C 
BRANCH  16  17
HETATM   17  N   UNL     1       6.717  25.083  52.806  1.00  0.00    -0.374 N 
HETATM   18  H   UNL     1       7.134  26.003  52.861  1.00  0.00     0.161 HD
BRANCH  17  19
HETATM   19  C   UNL     1       7.346  24.081  53.527  1.00  0.00     0.139 A 
HETATM   20  N   UNL     1       7.557  22.926  52.962  1.00  0.00    -0.202 NA
HETATM   21  C   UNL     1       8.137  21.888  53.641  1.00  0.00     0.200 A 
HETATM   22  S   UNL     1       8.439  20.390  52.948  1.00  0.00    -0.039 SA
HETATM   23  N   UNL     1       8.477  22.050  54.957  1.00  0.00    -0.331 N 
HETATM   24  C   UNL     1       8.301  23.257  55.626  1.00  0.00     0.048 A 
HETATM   25  H   UNL     1       8.894  21.255  55.421  1.00  0.00     0.168 HD
HETATM   26  C   UNL     1       7.749  24.336  54.940  1.00  0.00     0.036 A 
HETATM   27  C   UNL     1       8.689  23.383  56.959  1.00  0.00     0.030 A 
HETATM   28  C   UNL     1       7.611  25.570  55.581  1.00  0.00     0.017 A 
HETATM   29  C   UNL     1       8.001  25.702  56.916  1.00  0.00     0.001 A 
HETATM   30  C   UNL     1       8.532  24.610  57.606  1.00  0.00     0.002 A 
ENDBRANCH  17  19
ENDBRANCH  16  17
ENDBRANCH   1  16
TORSDOF 10
ENDMDL
