MODEL 1
REMARK VINA RESULT:      -9.6      0.000      0.000
REMARK  8 active torsions:
REMARK  status: ('A' for Active; 'I' for Inactive)
REMARK    1  A    between atoms: O_2  and  C_3 
REMARK    2  A    between atoms: C_5  and  O_6 
REMARK    3  A    between atoms: C_8  and  C_9 
REMARK    4  A    between atoms: N_10  and  C_12 
REMARK    5  A    between atoms: C_12  and  C_13 
REMARK       I    between atoms: C_13  and  N_14 
REMARK    6  A    between atoms: N_14  and  C_15 
REMARK    7  A    between atoms: C_16  and  C_17 
REMARK    8  A    between atoms: C_17  and  C_18 
ROOT
HETATM    1  C   UNL     1       7.835  26.970  57.066  1.00  0.00     0.338 C 
ENDROOT
BRANCH   1   2
HETATM    2  N   UNL     1       7.656  27.928  55.889  1.00  0.00    -0.054 N 
HETATM    3  C   UNL     1       7.368  29.410  56.145  1.00  0.00     0.224 C 
HETATM    4  C   UNL     1       5.903  29.539  55.724  1.00  0.00     0.040 C 
HETATM    5  C   UNL     1       5.855  28.682  54.475  1.00  0.00     0.030 C 
HETATM    6  C   UNL     1       6.641  27.443  54.862  1.00  0.00     0.236 C 
HETATM    7  H   UNL     1       8.580  27.940  55.441  1.00  0.00     0.281 HD
BRANCH   3   8
HETATM    8  C   UNL     1       7.811  29.995  57.465  1.00  0.00     0.006 A 
HETATM    9  C   UNL     1       9.189  30.112  57.763  1.00  0.00     0.079 A 
HETATM   10  C   UNL     1       9.608  30.625  58.999  1.00  0.00     0.074 A 
HETATM   11  C   UNL     1       8.670  31.066  59.931  1.00  0.00     0.070 A 
HETATM   12  C   UNL     1       7.316  31.028  59.609  1.00  0.00     0.037 A 
HETATM   13  C   UNL     1       6.886  30.498  58.392  1.00  0.00     0.015 A 
BRANCH   9  14
HETATM   14  O   UNL     1      10.041  29.656  56.784  1.00  0.00    -0.355 OA
HETATM   15  C   UNL     1      11.436  29.627  57.094  1.00  0.00     0.210 C 
ENDBRANCH   9  14
BRANCH  11  16
HETATM   16  O   UNL     1       8.941  31.561  61.174  1.00  0.00    -0.356 OA
HETATM   17  C   UNL     1       8.080  31.169  62.238  1.00  0.00     0.210 C 
ENDBRANCH  11  16
ENDBRANCH   3   8
ENDBRANCH   1   2
BRANCH   1  18
HETATM   18  C   UNL     1       7.394  25.517  56.868  1.00  0.00     0.248 C 
HETATM   19  N   UNL     1       8.306  24.743  56.188  1.00  0.00    -0.325 N 
HETATM   20  H   UNL     1       9.032  25.262  55.708  1.00  0.00     0.169 HD
HETATM   21  O   UNL     1       6.297  25.186  57.299  1.00  0.00    -0.271 OA
BRANCH  19  22
HETATM   22  C   UNL     1       8.332  23.356  55.882  1.00  0.00     0.041 A 
HETATM   23  C   UNL     1       8.358  22.714  54.628  1.00  0.00    -0.027 A 
HETATM   24  C   UNL     1       8.357  21.292  54.603  1.00  0.00     0.010 A 
HETATM   25  C   UNL     1       8.322  20.521  55.762  1.00  0.00     0.001 A 
HETATM   26  C   UNL     1       8.291  21.152  56.989  1.00  0.00     0.002 A 
HETATM   27  C   UNL     1       8.297  22.545  57.043  1.00  0.00     0.030 A 
BRANCH  23  28
HETATM   28  C   UNL     1       8.366  23.359  53.255  1.00  0.00     0.079 C 
BRANCH  28  29
HETATM   29  C   UNL     1       7.188  24.249  52.906  1.00  0.00    -0.054 A 
HETATM   30  C   UNL     1       7.327  25.183  51.866  1.00  0.00     0.007 A 
HETATM   31  C   UNL     1       6.240  25.941  51.429  1.00  0.00     0.001 A 
HETATM   32  C   UNL     1       4.991  25.764  52.017  1.00  0.00     0.000 A 
HETATM   33  C   UNL     1       4.832  24.834  53.043  1.00  0.00     0.001 A 
HETATM   34  C   UNL     1       5.922  24.077  53.482  1.00  0.00     0.007 A 
ENDBRANCH  28  29
ENDBRANCH  23  28
ENDBRANCH  19  22
ENDBRANCH   1  18
TORSDOF 8
ENDMDL
MODEL 2
REMARK VINA RESULT:      -8.7      1.673      2.505
REMARK  8 active torsions:
REMARK  status: ('A' for Active; 'I' for Inactive)
REMARK    1  A    between atoms: O_2  and  C_3 
REMARK    2  A    between atoms: C_5  and  O_6 
REMARK    3  A    between atoms: C_8  and  C_9 
REMARK    4  A    between atoms: N_10  and  C_12 
REMARK    5  A    between atoms: C_12  and  C_13 
REMARK       I    between atoms: C_13  and  N_14 
REMARK    6  A    between atoms: N_14  and  C_15 
REMARK    7  A    between atoms: C_16  and  C_17 
REMARK    8  A    between atoms: C_17  and  C_18 
ROOT
HETATM    1  C   UNL     1       5.283  27.913  56.989  1.00  0.00     0.338 C 
ENDROOT
BRANCH   1   2
HETATM    2  N   UNL     1       5.388  29.010  55.932  1.00  0.00    -0.054 N 
HETATM    3  C   UNL     1       5.959  30.381  56.305  1.00  0.00     0.224 C 
HETATM    4  C   UNL     1       4.718  31.275  56.276  1.00  0.00     0.040 C 
HETATM    5  C   UNL     1       3.987  30.763  55.051  1.00  0.00     0.030 C 
HETATM    6  C   UNL     1       4.085  29.254  55.180  1.00  0.00     0.236 C 
HETATM    7  H   UNL     1       6.076  28.642  55.263  1.00  0.00     0.281 HD
BRANCH   3   8
HETATM    8  C   UNL     1       6.895  30.455  57.488  1.00  0.00     0.006 A 
HETATM    9  C   UNL     1       8.165  29.837  57.428  1.00  0.00     0.079 A 
HETATM   10  C   UNL     1       9.027  29.874  58.533  1.00  0.00     0.074 A 
HETATM   11  C   UNL     1       8.657  30.559  59.690  1.00  0.00     0.070 A 
HETATM   12  C   UNL     1       7.442  31.237  59.724  1.00  0.00     0.037 A 
HETATM   13  C   UNL     1       6.566  31.188  58.638  1.00  0.00     0.015 A 
BRANCH   9  14
HETATM   14  O   UNL     1       8.446  29.188  56.248  1.00  0.00    -0.355 OA
HETATM   15  C   UNL     1       9.710  29.458  55.639  1.00  0.00     0.210 C 
ENDBRANCH   9  14
BRANCH  11  16
HETATM   16  O   UNL     1       9.388  30.652  60.840  1.00  0.00    -0.356 OA
HETATM   17  C   UNL     1       9.384  31.903  61.519  1.00  0.00     0.210 C 
ENDBRANCH  11  16
ENDBRANCH   3   8
ENDBRANCH   1   2
BRANCH   1  18
HETATM   18  C   UNL     1       5.476  26.465  56.528  1.00  0.00     0.248 C 
HETATM   19  N   UNL     1       6.250  26.336  55.397  1.00  0.00    -0.325 N 
HETATM   20  H   UNL     1       6.402  27.197  54.884  1.00  0.00     0.169 HD
HETATM   21  O   UNL     1       4.927  25.580  57.170  1.00  0.00    -0.271 OA
BRANCH  19  22
HETATM   22  C   UNL     1       6.741  25.195  54.709  1.00  0.00     0.041 A 
HETATM   23  C   UNL     1       6.247  24.566  53.548  1.00  0.00    -0.027 A 
HETATM   24  C   UNL     1       6.922  23.408  53.074  1.00  0.00     0.010 A 
HETATM   25  C   UNL     1       8.036  22.874  53.717  1.00  0.00     0.001 A 
HETATM   26  C   UNL     1       8.514  23.487  54.857  1.00  0.00     0.002 A 
HETATM   27  C   UNL     1       7.875  24.627  55.340  1.00  0.00     0.030 A 
BRANCH  23  28
HETATM   28  C   UNL     1       5.039  24.962  52.721  1.00  0.00     0.079 C 
BRANCH  28  29
HETATM   29  C   UNL     1       5.203  26.146  51.787  1.00  0.00    -0.054 A 
HETATM   30  C   UNL     1       4.926  25.977  50.420  1.00  0.00     0.007 A 
HETATM   31  C   UNL     1       4.946  27.061  49.542  1.00  0.00     0.001 A 
HETATM   32  C   UNL     1       5.231  28.336  50.021  1.00  0.00     0.000 A 
HETATM   33  C   UNL     1       5.498  28.524  51.376  1.00  0.00     0.001 A 
HETATM   34  C   UNL     1       5.479  27.438  52.255  1.00  0.00     0.007 A 
ENDBRANCH  28  29
ENDBRANCH  23  28
ENDBRANCH  19  22
ENDBRANCH   1  18
TORSDOF 8
ENDMDL
MODEL 3
REMARK VINA RESULT:      -8.7      1.663      4.315
REMARK  8 active torsions:
REMARK  status: ('A' for Active; 'I' for Inactive)
REMARK    1  A    between atoms: O_2  and  C_3 
REMARK    2  A    between atoms: C_5  and  O_6 
REMARK    3  A    between atoms: C_8  and  C_9 
REMARK    4  A    between atoms: N_10  and  C_12 
REMARK    5  A    between atoms: C_12  and  C_13 
REMARK       I    between atoms: C_13  and  N_14 
REMARK    6  A    between atoms: N_14  and  C_15 
REMARK    7  A    between atoms: C_16  and  C_17 
REMARK    8  A    between atoms: C_17  and  C_18 
ROOT
HETATM    1  C   UNL     1       7.339  29.028  57.101  1.00  0.00     0.338 C 
ENDROOT
BRANCH   1   2
HETATM    2  N   UNL     1       8.726  29.041  57.741  1.00  0.00    -0.054 N 
HETATM    3  C   UNL     1       9.154  30.224  58.615  1.00  0.00     0.224 C 
HETATM    4  C   UNL     1      10.188  30.928  57.736  1.00  0.00     0.040 C 
HETATM    5  C   UNL     1      10.948  29.759  57.141  1.00  0.00     0.030 C 
HETATM    6  C   UNL     1       9.853  28.783  56.749  1.00  0.00     0.236 C 
HETATM    7  H   UNL     1       8.699  28.255  58.402  1.00  0.00     0.281 HD
BRANCH   3   8
HETATM    8  C   UNL     1       8.069  31.039  59.276  1.00  0.00     0.006 A 
HETATM    9  C   UNL     1       8.198  31.431  60.629  1.00  0.00     0.079 A 
HETATM   10  C   UNL     1       7.181  32.161  61.258  1.00  0.00     0.074 A 
HETATM   11  C   UNL     1       6.047  32.545  60.545  1.00  0.00     0.070 A 
HETATM   12  C   UNL     1       5.952  32.231  59.191  1.00  0.00     0.037 A 
HETATM   13  C   UNL     1       6.948  31.485  58.560  1.00  0.00     0.015 A 
BRANCH   9  14
HETATM   14  O   UNL     1       9.350  31.011  61.253  1.00  0.00    -0.355 OA
HETATM   15  C   UNL     1       9.206  30.115  62.357  1.00  0.00     0.210 C 
ENDBRANCH   9  14
BRANCH  11  16
HETATM   16  O   UNL     1       4.977  33.233  61.041  1.00  0.00    -0.356 OA
HETATM   17  C   UNL     1       3.906  32.473  61.589  1.00  0.00     0.210 C 
ENDBRANCH  11  16
ENDBRANCH   3   8
ENDBRANCH   1   2
BRANCH   1  18
HETATM   18  C   UNL     1       6.802  27.682  56.604  1.00  0.00     0.248 C 
HETATM   19  N   UNL     1       6.538  27.649  55.254  1.00  0.00    -0.325 N 
HETATM   20  H   UNL     1       6.505  28.556  54.803  1.00  0.00     0.169 HD
HETATM   21  O   UNL     1       6.641  26.790  57.426  1.00  0.00    -0.271 OA
BRANCH  19  22
HETATM   22  C   UNL     1       6.127  26.595  54.394  1.00  0.00     0.041 A 
HETATM   23  C   UNL     1       6.670  25.304  54.235  1.00  0.00    -0.027 A 
HETATM   24  C   UNL     1       6.075  24.441  53.274  1.00  0.00     0.010 A 
HETATM   25  C   UNL     1       4.993  24.827  52.487  1.00  0.00     0.001 A 
HETATM   26  C   UNL     1       4.468  26.094  52.639  1.00  0.00     0.002 A 
HETATM   27  C   UNL     1       5.028  26.959  53.578  1.00  0.00     0.030 A 
BRANCH  23  28
HETATM   28  C   UNL     1       7.856  24.700  54.962  1.00  0.00     0.079 C 
BRANCH  28  29
HETATM   29  C   UNL     1       8.078  23.209  54.795  1.00  0.00    -0.054 A 
HETATM   30  C   UNL     1       7.646  22.340  55.811  1.00  0.00     0.007 A 
HETATM   31  C   UNL     1       7.720  20.955  55.653  1.00  0.00     0.001 A 
HETATM   32  C   UNL     1       8.215  20.418  54.469  1.00  0.00     0.000 A 
HETATM   33  C   UNL     1       8.639  21.265  53.447  1.00  0.00     0.001 A 
HETATM   34  C   UNL     1       8.567  22.652  53.606  1.00  0.00     0.007 A 
ENDBRANCH  28  29
ENDBRANCH  23  28
ENDBRANCH  19  22
ENDBRANCH   1  18
TORSDOF 8
ENDMDL
MODEL 4
REMARK VINA RESULT:      -8.6      1.805      4.336
REMARK  8 active torsions:
REMARK  status: ('A' for Active; 'I' for Inactive)
REMARK    1  A    between atoms: O_2  and  C_3 
REMARK    2  A    between atoms: C_5  and  O_6 
REMARK    3  A    between atoms: C_8  and  C_9 
REMARK    4  A    between atoms: N_10  and  C_12 
REMARK    5  A    between atoms: C_12  and  C_13 
REMARK       I    between atoms: C_13  and  N_14 
REMARK    6  A    between atoms: N_14  and  C_15 
REMARK    7  A    between atoms: C_16  and  C_17 
REMARK    8  A    between atoms: C_17  and  C_18 
ROOT
HETATM    1  C   UNL     1       7.394  29.026  58.088  1.00  0.00     0.338 C 
ENDROOT
BRANCH   1   2
HETATM    2  N   UNL     1       8.912  29.193  58.121  1.00  0.00    -0.054 N 
HETATM    3  C   UNL     1       9.541  30.318  58.948  1.00  0.00     0.224 C 
HETATM    4  C   UNL     1      10.039  31.282  57.870  1.00  0.00     0.040 C 
HETATM    5  C   UNL     1      10.599  30.333  56.829  1.00  0.00     0.030 C 
HETATM    6  C   UNL     1       9.546  29.243  56.736  1.00  0.00     0.236 C 
HETATM    7  H   UNL     1       9.243  28.341  58.590  1.00  0.00     0.281 HD
BRANCH   3   8
HETATM    8  C   UNL     1       8.751  30.860  60.115  1.00  0.00     0.006 A 
HETATM    9  C   UNL     1       7.640  31.705  59.890  1.00  0.00     0.079 A 
HETATM   10  C   UNL     1       6.921  32.237  60.970  1.00  0.00     0.074 A 
HETATM   11  C   UNL     1       7.268  31.903  62.278  1.00  0.00     0.070 A 
HETATM   12  C   UNL     1       8.311  31.007  62.501  1.00  0.00     0.037 A 
HETATM   13  C   UNL     1       9.048  30.490  61.435  1.00  0.00     0.015 A 
BRANCH   9  14
HETATM   14  O   UNL     1       7.368  31.977  58.569  1.00  0.00    -0.355 OA
HETATM   15  C   UNL     1       6.025  32.333  58.238  1.00  0.00     0.210 C 
ENDBRANCH   9  14
BRANCH  11  16
HETATM   16  O   UNL     1       6.670  32.368  63.414  1.00  0.00    -0.356 OA
HETATM   17  C   UNL     1       7.479  33.099  64.329  1.00  0.00     0.210 C 
ENDBRANCH  11  16
ENDBRANCH   3   8
ENDBRANCH   1   2
BRANCH   1  18
HETATM   18  C   UNL     1       6.754  28.639  56.752  1.00  0.00     0.248 C 
HETATM   19  N   UNL     1       6.806  27.292  56.475  1.00  0.00    -0.325 N 
HETATM   20  H   UNL     1       7.447  26.762  57.054  1.00  0.00     0.169 HD
HETATM   21  O   UNL     1       6.286  29.533  56.059  1.00  0.00    -0.271 OA
BRANCH  19  22
HETATM   22  C   UNL     1       6.261  26.520  55.415  1.00  0.00     0.041 A 
HETATM   23  C   UNL     1       6.524  25.184  55.050  1.00  0.00    -0.027 A 
HETATM   24  C   UNL     1       5.849  24.654  53.916  1.00  0.00     0.010 A 
HETATM   25  C   UNL     1       4.956  25.404  53.157  1.00  0.00     0.001 A 
HETATM   26  C   UNL     1       4.705  26.713  53.511  1.00  0.00     0.002 A 
HETATM   27  C   UNL     1       5.348  27.257  54.622  1.00  0.00     0.030 A 
BRANCH  23  28
HETATM   28  C   UNL     1       7.477  24.211  55.717  1.00  0.00     0.079 C 
BRANCH  28  29
HETATM   29  C   UNL     1       7.818  22.947  54.950  1.00  0.00    -0.054 A 
HETATM   30  C   UNL     1       7.634  21.702  55.576  1.00  0.00     0.007 A 
HETATM   31  C   UNL     1       7.819  20.510  54.874  1.00  0.00     0.001 A 
HETATM   32  C   UNL     1       8.179  20.546  53.531  1.00  0.00     0.000 A 
HETATM   33  C   UNL     1       8.356  21.771  52.891  1.00  0.00     0.001 A 
HETATM   34  C   UNL     1       8.172  22.965  53.595  1.00  0.00     0.007 A 
ENDBRANCH  28  29
ENDBRANCH  23  28
ENDBRANCH  19  22
ENDBRANCH   1  18
TORSDOF 8
ENDMDL
MODEL 5
REMARK VINA RESULT:      -8.6      1.955      8.541
REMARK  8 active torsions:
REMARK  status: ('A' for Active; 'I' for Inactive)
REMARK    1  A    between atoms: O_2  and  C_3 
REMARK    2  A    between atoms: C_5  and  O_6 
REMARK    3  A    between atoms: C_8  and  C_9 
REMARK    4  A    between atoms: N_10  and  C_12 
REMARK    5  A    between atoms: C_12  and  C_13 
REMARK       I    between atoms: C_13  and  N_14 
REMARK    6  A    between atoms: N_14  and  C_15 
REMARK    7  A    between atoms: C_16  and  C_17 
REMARK    8  A    between atoms: C_17  and  C_18 
ROOT
HETATM    1  C   UNL     1       7.621  27.385  53.963  1.00  0.00     0.338 C 
ENDROOT
BRANCH   1   2
HETATM    2  N   UNL     1       6.267  27.009  53.364  1.00  0.00    -0.054 N 
HETATM    3  C   UNL     1       5.999  25.569  52.918  1.00  0.00     0.224 C 
HETATM    4  C   UNL     1       5.989  25.691  51.394  1.00  0.00     0.040 C 
HETATM    5  C   UNL     1       5.237  26.990  51.184  1.00  0.00     0.030 C 
HETATM    6  C   UNL     1       5.836  27.921  52.222  1.00  0.00     0.236 C 
HETATM    7  H   UNL     1       5.609  27.142  54.142  1.00  0.00     0.281 HD
BRANCH   3   8
HETATM    8  C   UNL     1       6.808  24.470  53.566  1.00  0.00     0.006 A 
HETATM    9  C   UNL     1       6.652  24.190  54.943  1.00  0.00     0.079 A 
HETATM   10  C   UNL     1       7.422  23.193  55.558  1.00  0.00     0.074 A 
HETATM   11  C   UNL     1       8.322  22.437  54.808  1.00  0.00     0.070 A 
HETATM   12  C   UNL     1       8.420  22.655  53.436  1.00  0.00     0.037 A 
HETATM   13  C   UNL     1       7.675  23.660  52.818  1.00  0.00     0.015 A 
BRANCH   9  14
HETATM   14  O   UNL     1       5.741  24.982  55.602  1.00  0.00    -0.355 OA
HETATM   15  C   UNL     1       6.109  25.464  56.897  1.00  0.00     0.210 C 
ENDBRANCH   9  14
BRANCH  11  16
HETATM   16  O   UNL     1       9.145  21.458  55.285  1.00  0.00    -0.356 OA
HETATM   17  C   UNL     1       8.676  20.116  55.216  1.00  0.00     0.210 C 
ENDBRANCH  11  16
ENDBRANCH   3   8
ENDBRANCH   1   2
BRANCH   1  18
HETATM   18  C   UNL     1       7.674  28.612  54.877  1.00  0.00     0.248 C 
HETATM   19  N   UNL     1       6.439  29.064  55.281  1.00  0.00    -0.325 N 
HETATM   20  H   UNL     1       5.656  28.691  54.756  1.00  0.00     0.169 HD
HETATM   21  O   UNL     1       8.772  29.082  55.144  1.00  0.00    -0.271 OA
BRANCH  19  22
HETATM   22  C   UNL     1       6.053  30.091  56.183  1.00  0.00     0.041 A 
HETATM   23  C   UNL     1       6.481  30.331  57.505  1.00  0.00    -0.027 A 
HETATM   24  C   UNL     1       5.911  31.430  58.204  1.00  0.00     0.010 A 
HETATM   25  C   UNL     1       4.947  32.261  57.638  1.00  0.00     0.001 A 
HETATM   26  C   UNL     1       4.525  32.020  56.347  1.00  0.00     0.002 A 
HETATM   27  C   UNL     1       5.072  30.953  55.636  1.00  0.00     0.030 A 
BRANCH  23  28
HETATM   28  C   UNL     1       7.487  29.536  58.313  1.00  0.00     0.079 C 
BRANCH  28  29
HETATM   29  C   UNL     1       8.446  30.323  59.185  1.00  0.00    -0.054 A 
HETATM   30  C   UNL     1       9.390  31.164  58.571  1.00  0.00     0.007 A 
HETATM   31  C   UNL     1      10.213  31.997  59.330  1.00  0.00     0.001 A 
HETATM   32  C   UNL     1      10.095  32.013  60.716  1.00  0.00     0.000 A 
HETATM   33  C   UNL     1       9.157  31.193  61.342  1.00  0.00     0.001 A 
HETATM   34  C   UNL     1       8.335  30.357  60.582  1.00  0.00     0.007 A 
ENDBRANCH  28  29
ENDBRANCH  23  28
ENDBRANCH  19  22
ENDBRANCH   1  18
TORSDOF 8
ENDMDL
MODEL 6
REMARK VINA RESULT:      -8.4      2.663      5.775
REMARK  8 active torsions:
REMARK  status: ('A' for Active; 'I' for Inactive)
REMARK    1  A    between atoms: O_2  and  C_3 
REMARK    2  A    between atoms: C_5  and  O_6 
REMARK    3  A    between atoms: C_8  and  C_9 
REMARK    4  A    between atoms: N_10  and  C_12 
REMARK    5  A    between atoms: C_12  and  C_13 
REMARK       I    between atoms: C_13  and  N_14 
REMARK    6  A    between atoms: N_14  and  C_15 
REMARK    7  A    between atoms: C_16  and  C_17 
REMARK    8  A    between atoms: C_17  and  C_18 
ROOT
HETATM    1  C   UNL     1       4.663  29.349  54.349  1.00  0.00     0.338 C 
ENDROOT
BRANCH   1   2
HETATM    2  N   UNL     1       5.411  30.482  55.049  1.00  0.00    -0.054 N 
HETATM    3  C   UNL     1       6.126  30.221  56.378  1.00  0.00     0.224 C 
HETATM    4  C   UNL     1       5.242  30.963  57.381  1.00  0.00     0.040 C 
HETATM    5  C   UNL     1       4.903  32.233  56.627  1.00  0.00     0.030 C 
HETATM    6  C   UNL     1       4.573  31.741  55.229  1.00  0.00     0.236 C 
HETATM    7  H   UNL     1       6.181  30.702  54.405  1.00  0.00     0.281 HD
BRANCH   3   8
HETATM    8  C   UNL     1       6.557  28.805  56.679  1.00  0.00     0.006 A 
HETATM    9  C   UNL     1       7.931  28.471  56.708  1.00  0.00     0.079 A 
HETATM   10  C   UNL     1       8.337  27.152  56.956  1.00  0.00     0.074 A 
HETATM   11  C   UNL     1       7.391  26.163  57.217  1.00  0.00     0.070 A 
HETATM   12  C   UNL     1       6.042  26.504  57.269  1.00  0.00     0.037 A 
HETATM   13  C   UNL     1       5.624  27.808  57.002  1.00  0.00     0.015 A 
BRANCH   9  14
HETATM   14  O   UNL     1       8.792  29.510  56.442  1.00  0.00    -0.355 OA
HETATM   15  C   UNL     1      10.156  29.346  56.836  1.00  0.00     0.210 C 
ENDBRANCH   9  14
BRANCH  11  16
HETATM   16  O   UNL     1       7.649  24.842  57.449  1.00  0.00    -0.356 OA
HETATM   17  C   UNL     1       8.997  24.405  57.312  1.00  0.00     0.210 C 
ENDBRANCH  11  16
ENDBRANCH   3   8
ENDBRANCH   1   2
BRANCH   1  18
HETATM   18  C   UNL     1       5.307  28.741  53.100  1.00  0.00     0.248 C 
HETATM   19  N   UNL     1       4.453  28.630  52.027  1.00  0.00    -0.325 N 
HETATM   20  H   UNL     1       3.470  28.739  52.251  1.00  0.00     0.169 HD
HETATM   21  O   UNL     1       6.481  28.400  53.167  1.00  0.00    -0.271 OA
BRANCH  19  22
HETATM   22  C   UNL     1       4.665  28.217  50.684  1.00  0.00     0.041 A 
HETATM   23  C   UNL     1       4.752  26.917  50.148  1.00  0.00    -0.027 A 
HETATM   24  C   UNL     1       4.996  26.782  48.754  1.00  0.00     0.010 A 
HETATM   25  C   UNL     1       5.160  27.878  47.912  1.00  0.00     0.001 A 
HETATM   26  C   UNL     1       5.081  29.151  48.439  1.00  0.00     0.002 A 
HETATM   27  C   UNL     1       4.837  29.312  49.803  1.00  0.00     0.030 A 
BRANCH  23  28
HETATM   28  C   UNL     1       4.636  25.598  50.888  1.00  0.00     0.079 C 
BRANCH  28  29
HETATM   29  C   UNL     1       5.698  25.297  51.928  1.00  0.00    -0.054 A 
HETATM   30  C   UNL     1       5.298  24.878  53.208  1.00  0.00     0.007 A 
HETATM   31  C   UNL     1       6.236  24.476  54.160  1.00  0.00     0.001 A 
HETATM   32  C   UNL     1       7.590  24.473  53.840  1.00  0.00     0.000 A 
HETATM   33  C   UNL     1       8.005  24.875  52.572  1.00  0.00     0.001 A 
HETATM   34  C   UNL     1       7.065  25.280  51.620  1.00  0.00     0.007 A 
ENDBRANCH  28  29
ENDBRANCH  23  28
ENDBRANCH  19  22
ENDBRANCH   1  18
TORSDOF 8
ENDMDL
MODEL 7
REMARK VINA RESULT:      -8.4      2.179      7.631
REMARK  8 active torsions:
REMARK  status: ('A' for Active; 'I' for Inactive)
REMARK    1  A    between atoms: O_2  and  C_3 
REMARK    2  A    between atoms: C_5  and  O_6 
REMARK    3  A    between atoms: C_8  and  C_9 
REMARK    4  A    between atoms: N_10  and  C_12 
REMARK    5  A    between atoms: C_12  and  C_13 
REMARK       I    between atoms: C_13  and  N_14 
REMARK    6  A    between atoms: N_14  and  C_15 
REMARK    7  A    between atoms: C_16  and  C_17 
REMARK    8  A    between atoms: C_17  and  C_18 
ROOT
HETATM    1  C   UNL     1       7.672  27.655  53.653  1.00  0.00     0.338 C 
ENDROOT
BRANCH   1   2
HETATM    2  N   UNL     1       6.228  27.397  53.225  1.00  0.00    -0.054 N 
HETATM    3  C   UNL     1       5.784  25.982  52.843  1.00  0.00     0.224 C 
HETATM    4  C   UNL     1       5.605  26.089  51.328  1.00  0.00     0.040 C 
HETATM    5  C   UNL     1       4.950  27.449  51.181  1.00  0.00     0.030 C 
HETATM    6  C   UNL     1       5.747  28.333  52.122  1.00  0.00     0.236 C 
HETATM    7  H   UNL     1       5.681  27.597  54.071  1.00  0.00     0.281 HD
BRANCH   3   8
HETATM    8  C   UNL     1       6.564  24.822  53.414  1.00  0.00     0.006 A 
HETATM    9  C   UNL     1       6.334  24.397  54.743  1.00  0.00     0.079 A 
HETATM   10  C   UNL     1       7.076  23.341  55.291  1.00  0.00     0.074 A 
HETATM   11  C   UNL     1       8.021  22.670  54.516  1.00  0.00     0.070 A 
HETATM   12  C   UNL     1       8.193  23.033  53.182  1.00  0.00     0.037 A 
HETATM   13  C   UNL     1       7.476  24.097  52.634  1.00  0.00     0.015 A 
BRANCH   9  14
HETATM   14  O   UNL     1       5.383  25.114  55.432  1.00  0.00    -0.355 OA
HETATM   15  C   UNL     1       5.438  25.072  56.859  1.00  0.00     0.210 C 
ENDBRANCH   9  14
BRANCH  11  16
HETATM   16  O   UNL     1       8.824  21.647  54.931  1.00  0.00    -0.356 OA
HETATM   17  C   UNL     1       8.598  20.364  54.359  1.00  0.00     0.210 C 
ENDBRANCH  11  16
ENDBRANCH   3   8
ENDBRANCH   1   2
BRANCH   1  18
HETATM   18  C   UNL     1       7.938  27.873  55.146  1.00  0.00     0.248 C 
HETATM   19  N   UNL     1       8.163  29.187  55.488  1.00  0.00    -0.325 N 
HETATM   20  H   UNL     1       8.354  29.805  54.707  1.00  0.00     0.169 HD
HETATM   21  O   UNL     1       7.949  26.892  55.876  1.00  0.00    -0.271 OA
BRANCH  19  22
HETATM   22  C   UNL     1       8.352  29.820  56.745  1.00  0.00     0.041 A 
HETATM   23  C   UNL     1       7.409  30.122  57.749  1.00  0.00    -0.027 A 
HETATM   24  C   UNL     1       7.865  30.790  58.918  1.00  0.00     0.010 A 
HETATM   25  C   UNL     1       9.195  31.161  59.099  1.00  0.00     0.001 A 
HETATM   26  C   UNL     1      10.116  30.871  58.113  1.00  0.00     0.002 A 
HETATM   27  C   UNL     1       9.697  30.211  56.959  1.00  0.00     0.030 A 
BRANCH  23  28
HETATM   28  C   UNL     1       5.919  29.837  57.738  1.00  0.00     0.079 C 
BRANCH  28  29
HETATM   29  C   UNL     1       5.119  30.404  56.581  1.00  0.00    -0.054 A 
HETATM   30  C   UNL     1       5.164  31.788  56.337  1.00  0.00     0.007 A 
HETATM   31  C   UNL     1       4.542  32.341  55.217  1.00  0.00     0.001 A 
HETATM   32  C   UNL     1       3.877  31.516  54.315  1.00  0.00     0.000 A 
HETATM   33  C   UNL     1       3.831  30.141  54.536  1.00  0.00     0.001 A 
HETATM   34  C   UNL     1       4.452  29.587  55.658  1.00  0.00     0.007 A 
ENDBRANCH  28  29
ENDBRANCH  23  28
ENDBRANCH  19  22
ENDBRANCH   1  18
TORSDOF 8
ENDMDL
MODEL 8
REMARK VINA RESULT:      -8.3      2.418      4.884
REMARK  8 active torsions:
REMARK  status: ('A' for Active; 'I' for Inactive)
REMARK    1  A    between atoms: O_2  and  C_3 
REMARK    2  A    between atoms: C_5  and  O_6 
REMARK    3  A    between atoms: C_8  and  C_9 
REMARK    4  A    between atoms: N_10  and  C_12 
REMARK    5  A    between atoms: C_12  and  C_13 
REMARK       I    between atoms: C_13  and  N_14 
REMARK    6  A    between atoms: N_14  and  C_15 
REMARK    7  A    between atoms: C_16  and  C_17 
REMARK    8  A    between atoms: C_17  and  C_18 
ROOT
HETATM    1  C   UNL     1       5.556  27.569  57.363  1.00  0.00     0.338 C 
ENDROOT
BRANCH   1   2
HETATM    2  N   UNL     1       6.892  28.238  57.678  1.00  0.00    -0.054 N 
HETATM    3  C   UNL     1       7.163  29.669  57.207  1.00  0.00     0.224 C 
HETATM    4  C   UNL     1       8.188  29.463  56.092  1.00  0.00     0.040 C 
HETATM    5  C   UNL     1       9.080  28.386  56.676  1.00  0.00     0.030 C 
HETATM    6  C   UNL     1       8.099  27.397  57.279  1.00  0.00     0.236 C 
HETATM    7  H   UNL     1       6.889  28.322  58.702  1.00  0.00     0.281 HD
BRANCH   3   8
HETATM    8  C   UNL     1       5.972  30.565  56.959  1.00  0.00     0.006 A 
HETATM    9  C   UNL     1       5.797  31.742  57.723  1.00  0.00     0.079 A 
HETATM   10  C   UNL     1       4.678  32.562  57.520  1.00  0.00     0.074 A 
HETATM   11  C   UNL     1       3.746  32.246  56.533  1.00  0.00     0.070 A 
HETATM   12  C   UNL     1       3.956  31.132  55.724  1.00  0.00     0.037 A 
HETATM   13  C   UNL     1       5.055  30.297  55.932  1.00  0.00     0.015 A 
BRANCH   9  14
HETATM   14  O   UNL     1       6.767  31.975  58.671  1.00  0.00    -0.355 OA
HETATM   15  C   UNL     1       6.326  32.340  59.980  1.00  0.00     0.210 C 
ENDBRANCH   9  14
BRANCH  11  16
HETATM   16  O   UNL     1       2.606  32.942  56.249  1.00  0.00    -0.356 OA
HETATM   17  C   UNL     1       1.838  32.514  55.129  1.00  0.00     0.210 C 
ENDBRANCH  11  16
ENDBRANCH   3   8
ENDBRANCH   1   2
BRANCH   1  18
HETATM   18  C   UNL     1       5.514  26.589  56.187  1.00  0.00     0.248 C 
HETATM   19  N   UNL     1       5.673  27.185  54.957  1.00  0.00    -0.325 N 
HETATM   20  H   UNL     1       5.566  28.193  54.954  1.00  0.00     0.169 HD
HETATM   21  O   UNL     1       5.329  25.405  56.432  1.00  0.00    -0.271 OA
BRANCH  19  22
HETATM   22  C   UNL     1       5.789  26.644  53.648  1.00  0.00     0.041 A 
HETATM   23  C   UNL     1       6.715  25.710  53.142  1.00  0.00    -0.027 A 
HETATM   24  C   UNL     1       6.622  25.350  51.770  1.00  0.00     0.010 A 
HETATM   25  C   UNL     1       5.664  25.889  50.916  1.00  0.00     0.001 A 
HETATM   26  C   UNL     1       4.762  26.808  51.412  1.00  0.00     0.002 A 
HETATM   27  C   UNL     1       4.826  27.175  52.755  1.00  0.00     0.030 A 
BRANCH  23  28
HETATM   28  C   UNL     1       7.849  25.031  53.887  1.00  0.00     0.079 C 
BRANCH  28  29
HETATM   29  C   UNL     1       7.751  23.529  54.069  1.00  0.00    -0.054 A 
HETATM   30  C   UNL     1       7.997  22.693  52.966  1.00  0.00     0.007 A 
HETATM   31  C   UNL     1       8.035  21.305  53.110  1.00  0.00     0.001 A 
HETATM   32  C   UNL     1       7.842  20.732  54.363  1.00  0.00     0.000 A 
HETATM   33  C   UNL     1       7.606  21.546  55.469  1.00  0.00     0.001 A 
HETATM   34  C   UNL     1       7.566  22.936  55.325  1.00  0.00     0.007 A 
ENDBRANCH  28  29
ENDBRANCH  23  28
ENDBRANCH  19  22
ENDBRANCH   1  18
TORSDOF 8
ENDMDL
MODEL 9
REMARK VINA RESULT:      -8.2      2.221      8.146
REMARK  8 active torsions:
REMARK  status: ('A' for Active; 'I' for Inactive)
REMARK    1  A    between atoms: O_2  and  C_3 
REMARK    2  A    between atoms: C_5  and  O_6 
REMARK    3  A    between atoms: C_8  and  C_9 
REMARK    4  A    between atoms: N_10  and  C_12 
REMARK    5  A    between atoms: C_12  and  C_13 
REMARK       I    between atoms: C_13  and  N_14 
REMARK    6  A    between atoms: N_14  and  C_15 
REMARK    7  A    between atoms: C_16  and  C_17 
REMARK    8  A    between atoms: C_17  and  C_18 
ROOT
HETATM    1  C   UNL     1       7.629  27.638  54.373  1.00  0.00     0.338 C 
ENDROOT
BRANCH   1   2
HETATM    2  N   UNL     1       6.126  27.400  54.510  1.00  0.00    -0.054 N 
HETATM    3  C   UNL     1       5.522  26.056  54.092  1.00  0.00     0.224 C 
HETATM    4  C   UNL     1       4.763  26.417  52.815  1.00  0.00     0.040 C 
HETATM    5  C   UNL     1       4.147  27.753  53.179  1.00  0.00     0.030 C 
HETATM    6  C   UNL     1       5.278  28.492  53.869  1.00  0.00     0.236 C 
HETATM    7  H   UNL     1       5.964  27.427  55.524  1.00  0.00     0.281 HD
BRANCH   3   8
HETATM    8  C   UNL     1       6.427  24.847  54.096  1.00  0.00     0.006 A 
HETATM    9  C   UNL     1       6.796  24.239  55.319  1.00  0.00     0.079 A 
HETATM   10  C   UNL     1       7.660  23.136  55.333  1.00  0.00     0.074 A 
HETATM   11  C   UNL     1       8.134  22.599  54.136  1.00  0.00     0.070 A 
HETATM   12  C   UNL     1       7.709  23.144  52.927  1.00  0.00     0.037 A 
HETATM   13  C   UNL     1       6.867  24.257  52.902  1.00  0.00     0.015 A 
BRANCH   9  14
HETATM   14  O   UNL     1       6.279  24.833  56.447  1.00  0.00    -0.355 OA
HETATM   15  C   UNL     1       7.210  25.406  57.368  1.00  0.00     0.210 C 
ENDBRANCH   9  14
BRANCH  11  16
HETATM   16  O   UNL     1       8.996  21.548  54.010  1.00  0.00    -0.356 OA
HETATM   17  C   UNL     1       8.621  20.496  53.128  1.00  0.00     0.210 C 
ENDBRANCH  11  16
ENDBRANCH   3   8
ENDBRANCH   1   2
BRANCH   1  18
HETATM   18  C   UNL     1       8.247  28.758  55.215  1.00  0.00     0.248 C 
HETATM   19  N   UNL     1       7.562  29.027  56.378  1.00  0.00    -0.325 N 
HETATM   20  H   UNL     1       6.631  28.631  56.426  1.00  0.00     0.169 HD
HETATM   21  O   UNL     1       9.250  29.313  54.785  1.00  0.00    -0.271 OA
BRANCH  19  22
HETATM   22  C   UNL     1       7.841  29.903  57.462  1.00  0.00     0.041 A 
HETATM   23  C   UNL     1       6.971  30.751  58.176  1.00  0.00    -0.027 A 
HETATM   24  C   UNL     1       7.520  31.551  59.216  1.00  0.00     0.010 A 
HETATM   25  C   UNL     1       8.874  31.532  59.542  1.00  0.00     0.001 A 
HETATM   26  C   UNL     1       9.725  30.705  58.837  1.00  0.00     0.002 A 
HETATM   27  C   UNL     1       9.212  29.906  57.816  1.00  0.00     0.030 A 
BRANCH  23  28
HETATM   28  C   UNL     1       5.482  30.946  57.963  1.00  0.00     0.079 C 
BRANCH  28  29
HETATM   29  C   UNL     1       5.062  32.059  57.022  1.00  0.00    -0.054 A 
HETATM   30  C   UNL     1       4.928  33.363  57.528  1.00  0.00     0.007 A 
HETATM   31  C   UNL     1       4.659  34.439  56.681  1.00  0.00     0.001 A 
HETATM   32  C   UNL     1       4.535  34.228  55.311  1.00  0.00     0.000 A 
HETATM   33  C   UNL     1       4.674  32.943  54.790  1.00  0.00     0.001 A 
HETATM   34  C   UNL     1       4.941  31.865  55.639  1.00  0.00     0.007 A 
ENDBRANCH  28  29
ENDBRANCH  23  28
ENDBRANCH  19  22
ENDBRANCH   1  18
TORSDOF 8
ENDMDL
MODEL 10
REMARK VINA RESULT:      -8.2      2.459      8.630
REMARK  8 active torsions:
REMARK  status: ('A' for Active; 'I' for Inactive)
REMARK    1  A    between atoms: O_2  and  C_3 
REMARK    2  A    between atoms: C_5  and  O_6 
REMARK    3  A    between atoms: C_8  and  C_9 
REMARK    4  A    between atoms: N_10  and  C_12 
REMARK    5  A    between atoms: C_12  and  C_13 
REMARK       I    between atoms: C_13  and  N_14 
REMARK    6  A    between atoms: N_14  and  C_15 
REMARK    7  A    between atoms: C_16  and  C_17 
REMARK    8  A    between atoms: C_17  and  C_18 
ROOT
HETATM    1  C   UNL     1       7.528  27.814  54.587  1.00  0.00     0.338 C 
ENDROOT
BRANCH   1   2
HETATM    2  N   UNL     1       6.034  27.504  54.674  1.00  0.00    -0.054 N 
HETATM    3  C   UNL     1       5.494  26.180  54.126  1.00  0.00     0.224 C 
HETATM    4  C   UNL     1       4.739  26.623  52.873  1.00  0.00     0.040 C 
HETATM    5  C   UNL     1       4.062  27.895  53.344  1.00  0.00     0.030 C 
HETATM    6  C   UNL     1       5.151  28.614  54.118  1.00  0.00     0.236 C 
HETATM    7  H   UNL     1       5.857  27.433  55.683  1.00  0.00     0.281 HD
BRANCH   3   8
HETATM    8  C   UNL     1       6.449  25.012  54.039  1.00  0.00     0.006 A 
HETATM    9  C   UNL     1       6.809  24.300  55.206  1.00  0.00     0.079 A 
HETATM   10  C   UNL     1       7.718  23.235  55.137  1.00  0.00     0.074 A 
HETATM   11  C   UNL     1       8.247  22.841  53.909  1.00  0.00     0.070 A 
HETATM   12  C   UNL     1       7.833  23.488  52.747  1.00  0.00     0.037 A 
HETATM   13  C   UNL     1       6.946  24.563  52.807  1.00  0.00     0.015 A 
BRANCH   9  14
HETATM   14  O   UNL     1       6.237  24.756  56.371  1.00  0.00    -0.355 OA
HETATM   15  C   UNL     1       7.113  25.306  57.357  1.00  0.00     0.210 C 
ENDBRANCH   9  14
BRANCH  11  16
HETATM   16  O   UNL     1       9.156  21.843  53.706  1.00  0.00    -0.356 OA
HETATM   17  C   UNL     1       8.659  20.586  53.259  1.00  0.00     0.210 C 
ENDBRANCH  11  16
ENDBRANCH   3   8
ENDBRANCH   1   2
BRANCH   1  18
HETATM   18  C   UNL     1       8.088  28.869  55.545  1.00  0.00     0.248 C 
HETATM   19  N   UNL     1       7.238  29.197  56.576  1.00  0.00    -0.325 N 
HETATM   20  H   UNL     1       6.281  28.888  56.454  1.00  0.00     0.169 HD
HETATM   21  O   UNL     1       9.197  29.330  55.306  1.00  0.00    -0.271 OA
BRANCH  19  22
HETATM   22  C   UNL     1       7.402  30.039  57.708  1.00  0.00     0.041 A 
HETATM   23  C   UNL     1       6.630  31.142  58.125  1.00  0.00    -0.027 A 
HETATM   24  C   UNL     1       7.031  31.835  59.300  1.00  0.00     0.010 A 
HETATM   25  C   UNL     1       8.153  31.470  60.040  1.00  0.00     0.001 A 
HETATM   26  C   UNL     1       8.911  30.393  59.627  1.00  0.00     0.002 A 
HETATM   27  C   UNL     1       8.537  29.693  58.481  1.00  0.00     0.030 A 
BRANCH  23  28
HETATM   28  C   UNL     1       5.400  31.721  57.453  1.00  0.00     0.079 C 
BRANCH  28  29
HETATM   29  C   UNL     1       4.537  32.654  58.281  1.00  0.00    -0.054 A 
HETATM   30  C   UNL     1       3.760  32.116  59.320  1.00  0.00     0.007 A 
HETATM   31  C   UNL     1       3.043  32.945  60.185  1.00  0.00     0.001 A 
HETATM   32  C   UNL     1       3.104  34.326  60.031  1.00  0.00     0.000 A 
HETATM   33  C   UNL     1       3.879  34.877  59.012  1.00  0.00     0.001 A 
HETATM   34  C   UNL     1       4.595  34.047  58.145  1.00  0.00     0.007 A 
ENDBRANCH  28  29
ENDBRANCH  23  28
ENDBRANCH  19  22
ENDBRANCH   1  18
TORSDOF 8
ENDMDL
