MODEL 1
REMARK VINA RESULT:      -8.8      0.000      0.000
REMARK  5 active torsions:
REMARK  status: ('A' for Active; 'I' for Inactive)
REMARK    1  A    between atoms: C_3  and  N_4 
REMARK       I    between atoms: N_4  and  C_5 
REMARK    2  A    between atoms: C_5  and  C_6 
REMARK    3  A    between atoms: C_6  and  C_7 
REMARK    4  A    between atoms: C_16  and  O_17 
REMARK    5  A    between atoms: O_17  and  C_18 
ROOT
HETATM    1  C   UNL     1       7.292  23.280  54.992  1.00  0.00     0.190 A 
HETATM    2  N   UNL     1       8.045  22.396  55.695  1.00  0.00    -0.235 NA
HETATM    3  C   UNL     1       8.747  21.481  54.991  1.00  0.00     0.119 A 
HETATM    4  C   UNL     1       8.720  21.388  53.610  1.00  0.00     0.021 A 
HETATM    5  C   UNL     1       7.922  22.286  52.907  1.00  0.00     0.028 A 
HETATM    6  C   UNL     1       7.189  23.251  53.604  1.00  0.00     0.097 A 
HETATM    7  C   UNL     1       6.351  24.166  52.897  1.00  0.00     0.104 C 
HETATM    8  N   UNL     1       5.672  24.890  52.294  1.00  0.00    -0.191 NA
ENDROOT
BRANCH   1   9
HETATM    9  O   UNL     1       6.537  24.243  55.657  1.00  0.00    -0.291 OA
BRANCH   9  10
HETATM   10  C   UNL     1       7.117  25.418  56.069  1.00  0.00     0.078 A 
HETATM   11  C   UNL     1       7.402  25.513  57.427  1.00  0.00     0.039 A 
HETATM   12  C   UNL     1       7.909  26.703  57.954  1.00  0.00     0.033 A 
HETATM   13  C   UNL     1       8.122  27.829  57.142  1.00  0.00     0.040 A 
HETATM   14  C   UNL     1       7.888  27.722  55.758  1.00  0.00    -0.033 A 
HETATM   15  C   UNL     1       8.236  28.776  54.744  1.00  0.00     0.050 C 
HETATM   16  C   UNL     1       7.330  26.525  55.250  1.00  0.00     0.046 A 
BRANCH  13  17
HETATM   17  N   UNL     1       8.605  28.974  57.817  1.00  0.00    -0.326 N 
HETATM   18  C   UNL     1       7.872  30.070  58.239  1.00  0.00     0.227 C 
HETATM   19  O   UNL     1       6.648  30.180  58.198  1.00  0.00    -0.273 OA
HETATM   20  H   UNL     1       9.499  28.858  58.281  1.00  0.00     0.169 HD
BRANCH  18  21
HETATM   21  C   UNL     1       8.741  31.181  58.832  1.00  0.00     0.159 C 
BRANCH  21  22
HETATM   22  C   UNL     1       8.450  31.409  60.284  1.00  0.00     0.017 A 
HETATM   23  N   UNL     1       7.178  31.311  60.806  1.00  0.00    -0.369 N 
HETATM   24  H   UNL     1       6.356  31.047  60.268  1.00  0.00     0.165 HD
HETATM   25  C   UNL     1       7.204  31.596  62.144  1.00  0.00     0.088 A 
HETATM   26  C   UNL     1       8.502  31.895  62.490  1.00  0.00     0.019 A 
HETATM   27  C   UNL     1       9.289  31.779  61.319  1.00  0.00     0.027 A 
ENDBRANCH  21  22
ENDBRANCH  18  21
ENDBRANCH  13  17
ENDBRANCH   9  10
ENDBRANCH   1   9
TORSDOF 5
ENDMDL
MODEL 2
REMARK VINA RESULT:      -8.8      1.911      8.910
REMARK  5 active torsions:
REMARK  status: ('A' for Active; 'I' for Inactive)
REMARK    1  A    between atoms: C_3  and  N_4 
REMARK       I    between atoms: N_4  and  C_5 
REMARK    2  A    between atoms: C_5  and  C_6 
REMARK    3  A    between atoms: C_6  and  C_7 
REMARK    4  A    between atoms: C_16  and  O_17 
REMARK    5  A    between atoms: O_17  and  C_18 
ROOT
HETATM    1  C   UNL     1       7.591  31.821  59.877  1.00  0.00     0.190 A 
HETATM    2  N   UNL     1       6.669  31.795  60.872  1.00  0.00    -0.235 NA
HETATM    3  C   UNL     1       7.122  31.884  62.142  1.00  0.00     0.119 A 
HETATM    4  C   UNL     1       8.462  31.979  62.474  1.00  0.00     0.021 A 
HETATM    5  C   UNL     1       9.397  31.979  61.443  1.00  0.00     0.028 A 
HETATM    6  C   UNL     1       8.960  31.896  60.117  1.00  0.00     0.097 A 
HETATM    7  C   UNL     1       9.909  31.875  59.049  1.00  0.00     0.104 C 
HETATM    8  N   UNL     1      10.705  31.851  58.205  1.00  0.00    -0.191 NA
ENDROOT
BRANCH   1   9
HETATM    9  O   UNL     1       7.192  31.724  58.547  1.00  0.00    -0.291 OA
BRANCH   9  10
HETATM   10  C   UNL     1       6.767  30.523  58.034  1.00  0.00     0.078 A 
HETATM   11  C   UNL     1       7.619  29.442  58.230  1.00  0.00     0.039 A 
HETATM   12  C   UNL     1       7.315  28.200  57.667  1.00  0.00     0.033 A 
HETATM   13  C   UNL     1       6.166  28.017  56.879  1.00  0.00     0.040 A 
HETATM   14  C   UNL     1       5.272  29.093  56.723  1.00  0.00    -0.033 A 
HETATM   15  C   UNL     1       3.924  29.001  56.063  1.00  0.00     0.050 C 
HETATM   16  C   UNL     1       5.620  30.354  57.261  1.00  0.00     0.046 A 
BRANCH  13  17
HETATM   17  N   UNL     1       6.003  26.717  56.346  1.00  0.00    -0.326 N 
HETATM   18  C   UNL     1       6.606  26.195  55.214  1.00  0.00     0.227 C 
HETATM   19  O   UNL     1       7.477  26.742  54.541  1.00  0.00    -0.273 OA
HETATM   20  H   UNL     1       5.647  26.025  56.994  1.00  0.00     0.169 HD
BRANCH  18  21
HETATM   21  C   UNL     1       6.108  24.791  54.863  1.00  0.00     0.159 C 
BRANCH  21  22
HETATM   22  C   UNL     1       7.236  23.820  54.694  1.00  0.00     0.017 A 
HETATM   23  N   UNL     1       8.309  23.779  55.558  1.00  0.00    -0.369 N 
HETATM   24  H   UNL     1       8.405  24.366  56.384  1.00  0.00     0.165 HD
HETATM   25  C   UNL     1       9.196  22.820  55.149  1.00  0.00     0.088 A 
HETATM   26  C   UNL     1       8.701  22.245  54.002  1.00  0.00     0.019 A 
HETATM   27  C   UNL     1       7.467  22.874  53.713  1.00  0.00     0.027 A 
ENDBRANCH  21  22
ENDBRANCH  18  21
ENDBRANCH  13  17
ENDBRANCH   9  10
ENDBRANCH   1   9
TORSDOF 5
ENDMDL
MODEL 3
REMARK VINA RESULT:      -8.7      1.499      2.433
REMARK  5 active torsions:
REMARK  status: ('A' for Active; 'I' for Inactive)
REMARK    1  A    between atoms: C_3  and  N_4 
REMARK       I    between atoms: N_4  and  C_5 
REMARK    2  A    between atoms: C_5  and  C_6 
REMARK    3  A    between atoms: C_6  and  C_7 
REMARK    4  A    between atoms: C_16  and  O_17 
REMARK    5  A    between atoms: O_17  and  C_18 
ROOT
HETATM    1  C   UNL     1       7.129  23.455  55.039  1.00  0.00     0.190 A 
HETATM    2  N   UNL     1       6.907  24.165  53.904  1.00  0.00    -0.235 NA
HETATM    3  C   UNL     1       7.455  23.698  52.761  1.00  0.00     0.119 A 
HETATM    4  C   UNL     1       8.237  22.558  52.694  1.00  0.00     0.021 A 
HETATM    5  C   UNL     1       8.476  21.855  53.872  1.00  0.00     0.028 A 
HETATM    6  C   UNL     1       7.917  22.308  55.071  1.00  0.00     0.097 A 
HETATM    7  C   UNL     1       8.170  21.608  56.290  1.00  0.00     0.104 C 
HETATM    8  N   UNL     1       8.401  21.022  57.266  1.00  0.00    -0.191 NA
ENDROOT
BRANCH   1   9
HETATM    9  O   UNL     1       6.600  23.886  56.252  1.00  0.00    -0.291 OA
BRANCH   9  10
HETATM   10  C   UNL     1       6.537  25.226  56.546  1.00  0.00     0.078 A 
HETATM   11  C   UNL     1       7.572  25.727  57.328  1.00  0.00     0.039 A 
HETATM   12  C   UNL     1       7.547  27.058  57.754  1.00  0.00     0.033 A 
HETATM   13  C   UNL     1       6.479  27.910  57.425  1.00  0.00     0.040 A 
HETATM   14  C   UNL     1       5.457  27.424  56.588  1.00  0.00    -0.033 A 
HETATM   15  C   UNL     1       4.350  28.262  56.010  1.00  0.00     0.050 C 
HETATM   16  C   UNL     1       5.475  26.062  56.207  1.00  0.00     0.046 A 
BRANCH  13  17
HETATM   17  N   UNL     1       6.570  29.219  57.953  1.00  0.00    -0.326 N 
HETATM   18  C   UNL     1       7.618  30.111  57.805  1.00  0.00     0.227 C 
HETATM   19  O   UNL     1       8.605  29.954  57.089  1.00  0.00    -0.273 OA
HETATM   20  H   UNL     1       5.687  29.641  58.216  1.00  0.00     0.169 HD
BRANCH  18  21
HETATM   21  C   UNL     1       7.430  31.397  58.613  1.00  0.00     0.159 C 
BRANCH  21  22
HETATM   22  C   UNL     1       8.254  31.403  59.863  1.00  0.00     0.017 A 
HETATM   23  N   UNL     1       8.035  30.516  60.896  1.00  0.00    -0.369 N 
HETATM   24  H   UNL     1       7.334  29.779  60.879  1.00  0.00     0.165 HD
HETATM   25  C   UNL     1       8.912  30.767  61.916  1.00  0.00     0.088 A 
HETATM   26  C   UNL     1       9.697  31.835  61.547  1.00  0.00     0.019 A 
HETATM   27  C   UNL     1       9.285  32.237  60.255  1.00  0.00     0.027 A 
ENDBRANCH  21  22
ENDBRANCH  18  21
ENDBRANCH  13  17
ENDBRANCH   9  10
ENDBRANCH   1   9
TORSDOF 5
ENDMDL
MODEL 4
REMARK VINA RESULT:      -8.7      1.353      1.395
REMARK  5 active torsions:
REMARK  status: ('A' for Active; 'I' for Inactive)
REMARK    1  A    between atoms: C_3  and  N_4 
REMARK       I    between atoms: N_4  and  C_5 
REMARK    2  A    between atoms: C_5  and  C_6 
REMARK    3  A    between atoms: C_6  and  C_7 
REMARK    4  A    between atoms: C_16  and  O_17 
REMARK    5  A    between atoms: O_17  and  C_18 
ROOT
HETATM    1  C   UNL     1       6.743  24.252  54.721  1.00  0.00     0.190 A 
HETATM    2  N   UNL     1       7.267  23.459  55.690  1.00  0.00    -0.235 NA
HETATM    3  C   UNL     1       8.174  22.532  55.311  1.00  0.00     0.119 A 
HETATM    4  C   UNL     1       8.573  22.339  53.999  1.00  0.00     0.021 A 
HETATM    5  C   UNL     1       8.007  23.144  53.015  1.00  0.00     0.028 A 
HETATM    6  C   UNL     1       7.071  24.119  53.375  1.00  0.00     0.097 A 
HETATM    7  C   UNL     1       6.467  24.938  52.372  1.00  0.00     0.104 C 
HETATM    8  N   UNL     1       5.988  25.582  51.534  1.00  0.00    -0.191 NA
ENDROOT
BRANCH   1   9
HETATM    9  O   UNL     1       5.798  25.222  55.042  1.00  0.00    -0.291 OA
BRANCH   9  10
HETATM   10  C   UNL     1       6.180  26.392  55.652  1.00  0.00     0.078 A 
HETATM   11  C   UNL     1       5.351  26.847  56.671  1.00  0.00     0.039 A 
HETATM   12  C   UNL     1       5.609  28.073  57.288  1.00  0.00     0.033 A 
HETATM   13  C   UNL     1       6.688  28.880  56.888  1.00  0.00     0.040 A 
HETATM   14  C   UNL     1       7.562  28.399  55.896  1.00  0.00    -0.033 A 
HETATM   15  C   UNL     1       8.850  29.062  55.492  1.00  0.00     0.050 C 
HETATM   16  C   UNL     1       7.258  27.178  55.250  1.00  0.00     0.046 A 
BRANCH  13  17
HETATM   17  N   UNL     1       6.807  30.109  57.577  1.00  0.00    -0.326 N 
HETATM   18  C   UNL     1       7.602  30.379  58.678  1.00  0.00     0.227 C 
HETATM   19  O   UNL     1       8.430  29.619  59.175  1.00  0.00    -0.273 OA
HETATM   20  H   UNL     1       6.511  30.927  57.057  1.00  0.00     0.169 HD
BRANCH  18  21
HETATM   21  C   UNL     1       7.392  31.788  59.239  1.00  0.00     0.159 C 
BRANCH  21  22
HETATM   22  C   UNL     1       7.484  31.818  60.733  1.00  0.00     0.017 A 
HETATM   23  N   UNL     1       6.380  31.665  61.544  1.00  0.00    -0.369 N 
HETATM   24  H   UNL     1       5.438  31.486  61.203  1.00  0.00     0.165 HD
HETATM   25  C   UNL     1       6.752  31.763  62.857  1.00  0.00     0.088 A 
HETATM   26  C   UNL     1       8.108  31.996  62.898  1.00  0.00     0.019 A 
HETATM   27  C   UNL     1       8.571  32.032  61.561  1.00  0.00     0.027 A 
ENDBRANCH  21  22
ENDBRANCH  18  21
ENDBRANCH  13  17
ENDBRANCH   9  10
ENDBRANCH   1   9
TORSDOF 5
ENDMDL
MODEL 5
REMARK VINA RESULT:      -8.7      5.072      8.109
REMARK  5 active torsions:
REMARK  status: ('A' for Active; 'I' for Inactive)
REMARK    1  A    between atoms: C_3  and  N_4 
REMARK       I    between atoms: N_4  and  C_5 
REMARK    2  A    between atoms: C_5  and  C_6 
REMARK    3  A    between atoms: C_6  and  C_7 
REMARK    4  A    between atoms: C_16  and  O_17 
REMARK    5  A    between atoms: O_17  and  C_18 
ROOT
HETATM    1  C   UNL     1       8.442  22.814  54.930  1.00  0.00     0.190 A 
HETATM    2  N   UNL     1       8.416  23.525  56.086  1.00  0.00    -0.235 NA
HETATM    3  C   UNL     1       8.360  22.829  57.242  1.00  0.00     0.119 A 
HETATM    4  C   UNL     1       8.307  21.447  57.305  1.00  0.00     0.021 A 
HETATM    5  C   UNL     1       8.308  20.734  56.109  1.00  0.00     0.028 A 
HETATM    6  C   UNL     1       8.374  21.424  54.895  1.00  0.00     0.097 A 
HETATM    7  C   UNL     1       8.355  20.707  53.660  1.00  0.00     0.104 C 
HETATM    8  N   UNL     1       8.330  20.096  52.673  1.00  0.00    -0.191 NA
ENDROOT
BRANCH   1   9
HETATM    9  O   UNL     1       8.491  23.470  53.703  1.00  0.00    -0.291 OA
BRANCH   9  10
HETATM   10  C   UNL     1       7.559  24.430  53.389  1.00  0.00     0.078 A 
HETATM   11  C   UNL     1       6.424  23.981  52.723  1.00  0.00     0.039 A 
HETATM   12  C   UNL     1       5.464  24.896  52.284  1.00  0.00     0.033 A 
HETATM   13  C   UNL     1       5.626  26.277  52.481  1.00  0.00     0.040 A 
HETATM   14  C   UNL     1       6.745  26.732  53.203  1.00  0.00    -0.033 A 
HETATM   15  C   UNL     1       6.963  28.153  53.645  1.00  0.00     0.050 C 
HETATM   16  C   UNL     1       7.730  25.797  53.599  1.00  0.00     0.046 A 
BRANCH  13  17
HETATM   17  N   UNL     1       4.593  27.086  51.953  1.00  0.00    -0.326 N 
HETATM   18  C   UNL     1       4.614  27.808  50.772  1.00  0.00     0.227 C 
HETATM   19  O   UNL     1       5.501  27.776  49.922  1.00  0.00    -0.273 OA
HETATM   20  H   UNL     1       3.666  26.896  52.317  1.00  0.00     0.169 HD
BRANCH  18  21
HETATM   21  C   UNL     1       3.364  28.667  50.571  1.00  0.00     0.159 C 
BRANCH  21  22
HETATM   22  C   UNL     1       2.528  28.186  49.425  1.00  0.00     0.017 A 
HETATM   23  N   UNL     1       2.749  26.973  48.810  1.00  0.00    -0.369 N 
HETATM   24  H   UNL     1       3.457  26.303  49.099  1.00  0.00     0.165 HD
HETATM   25  C   UNL     1       1.860  26.806  47.783  1.00  0.00     0.088 A 
HETATM   26  C   UNL     1       1.066  27.928  47.722  1.00  0.00     0.019 A 
HETATM   27  C   UNL     1       1.485  28.799  48.755  1.00  0.00     0.027 A 
ENDBRANCH  21  22
ENDBRANCH  18  21
ENDBRANCH  13  17
ENDBRANCH   9  10
ENDBRANCH   1   9
TORSDOF 5
ENDMDL
MODEL 6
REMARK VINA RESULT:      -8.4      1.811      8.858
REMARK  5 active torsions:
REMARK  status: ('A' for Active; 'I' for Inactive)
REMARK    1  A    between atoms: C_3  and  N_4 
REMARK       I    between atoms: N_4  and  C_5 
REMARK    2  A    between atoms: C_5  and  C_6 
REMARK    3  A    between atoms: C_6  and  C_7 
REMARK    4  A    between atoms: C_16  and  O_17 
REMARK    5  A    between atoms: O_17  and  C_18 
ROOT
HETATM    1  C   UNL     1       8.240  30.889  59.683  1.00  0.00     0.190 A 
HETATM    2  N   UNL     1       9.151  30.260  60.469  1.00  0.00    -0.235 NA
HETATM    3  C   UNL     1       9.073  30.472  61.801  1.00  0.00     0.119 A 
HETATM    4  C   UNL     1       8.138  31.303  62.394  1.00  0.00     0.021 A 
HETATM    5  C   UNL     1       7.228  31.961  61.571  1.00  0.00     0.028 A 
HETATM    6  C   UNL     1       7.276  31.757  60.188  1.00  0.00     0.097 A 
HETATM    7  C   UNL     1       6.361  32.441  59.330  1.00  0.00     0.104 C 
HETATM    8  N   UNL     1       5.610  33.017  58.659  1.00  0.00    -0.191 NA
ENDROOT
BRANCH   1   9
HETATM    9  O   UNL     1       8.270  30.721  58.301  1.00  0.00    -0.291 OA
BRANCH   9  10
HETATM   10  C   UNL     1       7.751  29.587  57.728  1.00  0.00     0.078 A 
HETATM   11  C   UNL     1       8.642  28.535  57.544  1.00  0.00     0.039 A 
HETATM   12  C   UNL     1       8.229  27.374  56.887  1.00  0.00     0.033 A 
HETATM   13  C   UNL     1       6.924  27.246  56.381  1.00  0.00     0.040 A 
HETATM   14  C   UNL     1       6.002  28.284  56.613  1.00  0.00    -0.033 A 
HETATM   15  C   UNL     1       4.535  28.216  56.292  1.00  0.00     0.050 C 
HETATM   16  C   UNL     1       6.452  29.471  57.238  1.00  0.00     0.046 A 
BRANCH  13  17
HETATM   17  N   UNL     1       6.656  26.031  55.709  1.00  0.00    -0.326 N 
HETATM   18  C   UNL     1       7.028  25.686  54.420  1.00  0.00     0.227 C 
HETATM   19  O   UNL     1       7.757  26.342  53.679  1.00  0.00    -0.273 OA
HETATM   20  H   UNL     1       6.428  25.246  56.308  1.00  0.00     0.169 HD
BRANCH  18  21
HETATM   21  C   UNL     1       6.466  24.335  53.975  1.00  0.00     0.159 C 
BRANCH  21  22
HETATM   22  C   UNL     1       7.503  23.255  54.010  1.00  0.00     0.017 A 
HETATM   23  N   UNL     1       8.555  23.272  54.900  1.00  0.00    -0.369 N 
HETATM   24  H   UNL     1       8.692  23.983  55.614  1.00  0.00     0.165 HD
HETATM   25  C   UNL     1       9.357  22.183  54.690  1.00  0.00     0.088 A 
HETATM   26  C   UNL     1       8.828  21.461  53.645  1.00  0.00     0.019 A 
HETATM   27  C   UNL     1       7.660  22.135  53.214  1.00  0.00     0.027 A 
ENDBRANCH  21  22
ENDBRANCH  18  21
ENDBRANCH  13  17
ENDBRANCH   9  10
ENDBRANCH   1   9
TORSDOF 5
ENDMDL
MODEL 7
REMARK VINA RESULT:      -8.4      4.966      8.118
REMARK  5 active torsions:
REMARK  status: ('A' for Active; 'I' for Inactive)
REMARK    1  A    between atoms: C_3  and  N_4 
REMARK       I    between atoms: N_4  and  C_5 
REMARK    2  A    between atoms: C_5  and  C_6 
REMARK    3  A    between atoms: C_6  and  C_7 
REMARK    4  A    between atoms: C_16  and  O_17 
REMARK    5  A    between atoms: O_17  and  C_18 
ROOT
HETATM    1  C   UNL     1       8.232  22.956  54.267  1.00  0.00     0.190 A 
HETATM    2  N   UNL     1       8.045  21.977  53.346  1.00  0.00    -0.235 NA
HETATM    3  C   UNL     1       7.878  20.717  53.804  1.00  0.00     0.119 A 
HETATM    4  C   UNL     1       7.908  20.376  55.145  1.00  0.00     0.021 A 
HETATM    5  C   UNL     1       8.126  21.389  56.075  1.00  0.00     0.028 A 
HETATM    6  C   UNL     1       8.295  22.705  55.635  1.00  0.00     0.097 A 
HETATM    7  C   UNL     1       8.539  23.751  56.577  1.00  0.00     0.104 C 
HETATM    8  N   UNL     1       8.745  24.577  57.367  1.00  0.00    -0.191 NA
ENDROOT
BRANCH   1   9
HETATM    9  O   UNL     1       8.419  24.275  53.863  1.00  0.00    -0.291 OA
BRANCH   9  10
HETATM   10  C   UNL     1       7.363  25.014  53.388  1.00  0.00     0.078 A 
HETATM   11  C   UNL     1       7.057  24.844  52.042  1.00  0.00     0.039 A 
HETATM   12  C   UNL     1       6.058  25.619  51.449  1.00  0.00     0.033 A 
HETATM   13  C   UNL     1       5.357  26.593  52.180  1.00  0.00     0.040 A 
HETATM   14  C   UNL     1       5.624  26.730  53.555  1.00  0.00    -0.033 A 
HETATM   15  C   UNL     1       4.838  27.597  54.500  1.00  0.00     0.050 C 
HETATM   16  C   UNL     1       6.671  25.971  54.128  1.00  0.00     0.046 A 
BRANCH  13  17
HETATM   17  N   UNL     1       4.399  27.325  51.442  1.00  0.00    -0.326 N 
HETATM   18  C   UNL     1       4.538  28.600  50.920  1.00  0.00     0.227 C 
HETATM   19  O   UNL     1       5.569  29.269  50.914  1.00  0.00    -0.273 OA
HETATM   20  H   UNL     1       3.665  26.771  51.016  1.00  0.00     0.169 HD
BRANCH  18  21
HETATM   21  C   UNL     1       3.254  29.129  50.278  1.00  0.00     0.159 C 
BRANCH  21  22
HETATM   22  C   UNL     1       2.815  28.288  49.119  1.00  0.00     0.017 A 
HETATM   23  N   UNL     1       1.615  27.610  49.112  1.00  0.00    -0.369 N 
HETATM   24  H   UNL     1       0.928  27.653  49.861  1.00  0.00     0.165 HD
HETATM   25  C   UNL     1       1.489  26.905  47.946  1.00  0.00     0.088 A 
HETATM   26  C   UNL     1       2.623  27.116  47.197  1.00  0.00     0.019 A 
HETATM   27  C   UNL     1       3.461  27.986  47.934  1.00  0.00     0.027 A 
ENDBRANCH  21  22
ENDBRANCH  18  21
ENDBRANCH  13  17
ENDBRANCH   9  10
ENDBRANCH   1   9
TORSDOF 5
ENDMDL
MODEL 8
REMARK VINA RESULT:      -8.3      4.583      8.178
REMARK  5 active torsions:
REMARK  status: ('A' for Active; 'I' for Inactive)
REMARK    1  A    between atoms: C_3  and  N_4 
REMARK       I    between atoms: N_4  and  C_5 
REMARK    2  A    between atoms: C_5  and  C_6 
REMARK    3  A    between atoms: C_6  and  C_7 
REMARK    4  A    between atoms: C_16  and  O_17 
REMARK    5  A    between atoms: O_17  and  C_18 
ROOT
HETATM    1  C   UNL     1       7.235  30.696  58.187  1.00  0.00     0.190 A 
HETATM    2  N   UNL     1       6.214  29.869  57.846  1.00  0.00    -0.235 NA
HETATM    3  C   UNL     1       6.537  28.653  57.354  1.00  0.00     0.119 A 
HETATM    4  C   UNL     1       7.839  28.222  57.163  1.00  0.00     0.021 A 
HETATM    5  C   UNL     1       8.874  29.092  57.494  1.00  0.00     0.028 A 
HETATM    6  C   UNL     1       8.574  30.355  58.014  1.00  0.00     0.097 A 
HETATM    7  C   UNL     1       9.626  31.266  58.339  1.00  0.00     0.104 C 
HETATM    8  N   UNL     1      10.502  31.986  58.584  1.00  0.00    -0.191 NA
ENDROOT
BRANCH   1   9
HETATM    9  O   UNL     1       6.972  31.966  58.691  1.00  0.00    -0.291 OA
BRANCH   9  10
HETATM   10  C   UNL     1       6.585  32.129  59.999  1.00  0.00     0.078 A 
HETATM   11  C   UNL     1       5.215  32.222  60.221  1.00  0.00     0.039 A 
HETATM   12  C   UNL     1       4.730  32.478  61.506  1.00  0.00     0.033 A 
HETATM   13  C   UNL     1       5.602  32.667  62.591  1.00  0.00     0.040 A 
HETATM   14  C   UNL     1       6.986  32.520  62.383  1.00  0.00    -0.033 A 
HETATM   15  C   UNL     1       8.023  32.517  63.473  1.00  0.00     0.050 C 
HETATM   16  C   UNL     1       7.461  32.308  61.068  1.00  0.00     0.046 A 
BRANCH  13  17
HETATM   17  N   UNL     1       4.972  32.953  63.825  1.00  0.00    -0.326 N 
HETATM   18  C   UNL     1       4.827  34.193  64.424  1.00  0.00     0.227 C 
HETATM   19  O   UNL     1       5.125  35.276  63.925  1.00  0.00    -0.273 OA
HETATM   20  H   UNL     1       4.330  32.244  64.157  1.00  0.00     0.169 HD
BRANCH  18  21
HETATM   21  C   UNL     1       4.197  34.116  65.817  1.00  0.00     0.159 C 
BRANCH  21  22
HETATM   22  C   UNL     1       5.183  34.431  66.899  1.00  0.00     0.017 A 
HETATM   23  N   UNL     1       6.439  33.864  66.940  1.00  0.00    -0.369 N 
HETATM   24  H   UNL     1       6.804  33.227  66.237  1.00  0.00     0.165 HD
HETATM   25  C   UNL     1       7.111  34.308  68.047  1.00  0.00     0.088 A 
HETATM   26  C   UNL     1       6.278  35.159  68.736  1.00  0.00     0.019 A 
HETATM   27  C   UNL     1       5.063  35.237  68.016  1.00  0.00     0.027 A 
ENDBRANCH  21  22
ENDBRANCH  18  21
ENDBRANCH  13  17
ENDBRANCH   9  10
ENDBRANCH   1   9
TORSDOF 5
ENDMDL
MODEL 9
REMARK VINA RESULT:      -8.2      2.533      3.424
REMARK  5 active torsions:
REMARK  status: ('A' for Active; 'I' for Inactive)
REMARK    1  A    between atoms: C_3  and  N_4 
REMARK       I    between atoms: N_4  and  C_5 
REMARK    2  A    between atoms: C_5  and  C_6 
REMARK    3  A    between atoms: C_6  and  C_7 
REMARK    4  A    between atoms: C_16  and  O_17 
REMARK    5  A    between atoms: O_17  and  C_18 
ROOT
HETATM    1  C   UNL     1       8.045  23.844  55.227  1.00  0.00     0.190 A 
HETATM    2  N   UNL     1       7.942  24.676  54.159  1.00  0.00    -0.235 NA
HETATM    3  C   UNL     1       7.859  24.110  52.936  1.00  0.00     0.119 A 
HETATM    4  C   UNL     1       7.897  22.743  52.717  1.00  0.00     0.021 A 
HETATM    5  C   UNL     1       8.029  21.905  53.821  1.00  0.00     0.028 A 
HETATM    6  C   UNL     1       8.108  22.459  55.103  1.00  0.00     0.097 A 
HETATM    7  C   UNL     1       8.264  21.612  56.242  1.00  0.00     0.104 C 
HETATM    8  N   UNL     1       8.400  20.897  57.147  1.00  0.00    -0.191 NA
ENDROOT
BRANCH   1   9
HETATM    9  O   UNL     1       8.142  24.363  56.515  1.00  0.00    -0.291 OA
BRANCH   9  10
HETATM   10  C   UNL     1       7.417  25.472  56.875  1.00  0.00     0.078 A 
HETATM   11  C   UNL     1       6.035  25.355  56.771  1.00  0.00     0.039 A 
HETATM   12  C   UNL     1       5.218  26.459  57.028  1.00  0.00     0.033 A 
HETATM   13  C   UNL     1       5.764  27.707  57.375  1.00  0.00     0.040 A 
HETATM   14  C   UNL     1       7.158  27.816  57.535  1.00  0.00    -0.033 A 
HETATM   15  C   UNL     1       7.868  29.028  58.071  1.00  0.00     0.050 C 
HETATM   16  C   UNL     1       7.972  26.701  57.224  1.00  0.00     0.046 A 
BRANCH  13  17
HETATM   17  N   UNL     1       4.821  28.742  57.572  1.00  0.00    -0.326 N 
HETATM   18  C   UNL     1       4.564  29.813  56.733  1.00  0.00     0.227 C 
HETATM   19  O   UNL     1       5.038  29.982  55.612  1.00  0.00    -0.273 OA
HETATM   20  H   UNL     1       4.080  28.531  58.231  1.00  0.00     0.169 HD
BRANCH  18  21
HETATM   21  C   UNL     1       3.558  30.806  57.320  1.00  0.00     0.159 C 
BRANCH  21  22
HETATM   22  C   UNL     1       4.119  31.547  58.495  1.00  0.00     0.017 A 
HETATM   23  N   UNL     1       3.499  31.553  59.726  1.00  0.00    -0.369 N 
HETATM   24  H   UNL     1       2.649  31.039  59.944  1.00  0.00     0.165 HD
HETATM   25  C   UNL     1       4.213  32.328  60.600  1.00  0.00     0.088 A 
HETATM   26  C   UNL     1       5.297  32.839  59.925  1.00  0.00     0.019 A 
HETATM   27  C   UNL     1       5.240  32.350  58.599  1.00  0.00     0.027 A 
ENDBRANCH  21  22
ENDBRANCH  18  21
ENDBRANCH  13  17
ENDBRANCH   9  10
ENDBRANCH   1   9
TORSDOF 5
ENDMDL
MODEL 10
REMARK VINA RESULT:      -8.2      1.528      8.916
REMARK  5 active torsions:
REMARK  status: ('A' for Active; 'I' for Inactive)
REMARK    1  A    between atoms: C_3  and  N_4 
REMARK       I    between atoms: N_4  and  C_5 
REMARK    2  A    between atoms: C_5  and  C_6 
REMARK    3  A    between atoms: C_6  and  C_7 
REMARK    4  A    between atoms: C_16  and  O_17 
REMARK    5  A    between atoms: O_17  and  C_18 
ROOT
HETATM    1  C   UNL     1       7.430  30.631  58.550  1.00  0.00     0.190 A 
HETATM    2  N   UNL     1       8.747  30.313  58.479  1.00  0.00    -0.235 NA
HETATM    3  C   UNL     1       9.604  31.045  59.225  1.00  0.00     0.119 A 
HETATM    4  C   UNL     1       9.213  32.102  60.029  1.00  0.00     0.021 A 
HETATM    5  C   UNL     1       7.861  32.431  60.070  1.00  0.00     0.028 A 
HETATM    6  C   UNL     1       6.947  31.688  59.317  1.00  0.00     0.097 A 
HETATM    7  C   UNL     1       5.559  32.027  59.334  1.00  0.00     0.104 C 
HETATM    8  N   UNL     1       4.440  32.334  59.362  1.00  0.00    -0.191 NA
ENDROOT
BRANCH   1   9
HETATM    9  O   UNL     1       6.495  29.922  57.800  1.00  0.00    -0.291 OA
BRANCH   9  10
HETATM   10  C   UNL     1       6.886  28.855  57.030  1.00  0.00     0.078 A 
HETATM   11  C   UNL     1       6.869  29.058  55.655  1.00  0.00     0.039 A 
HETATM   12  C   UNL     1       7.164  28.003  54.788  1.00  0.00     0.033 A 
HETATM   13  C   UNL     1       7.461  26.719  55.274  1.00  0.00     0.040 A 
HETATM   14  C   UNL     1       7.533  26.521  56.666  1.00  0.00    -0.033 A 
HETATM   15  C   UNL     1       8.010  25.259  57.330  1.00  0.00     0.050 C 
HETATM   16  C   UNL     1       7.186  27.588  57.527  1.00  0.00     0.046 A 
BRANCH  13  17
HETATM   17  N   UNL     1       7.705  25.742  54.281  1.00  0.00    -0.326 N 
HETATM   18  C   UNL     1       6.851  24.732  53.872  1.00  0.00     0.227 C 
HETATM   19  O   UNL     1       5.683  24.585  54.227  1.00  0.00    -0.273 OA
HETATM   20  H   UNL     1       8.440  25.969  53.622  1.00  0.00     0.169 HD
BRANCH  18  21
HETATM   21  C   UNL     1       7.489  23.781  52.857  1.00  0.00     0.159 C 
BRANCH  21  22
HETATM   22  C   UNL     1       7.951  22.506  53.493  1.00  0.00     0.017 A 
HETATM   23  N   UNL     1       8.582  22.480  54.718  1.00  0.00    -0.369 N 
HETATM   24  H   UNL     1       8.750  23.301  55.295  1.00  0.00     0.165 HD
HETATM   25  C   UNL     1       8.916  21.193  55.039  1.00  0.00     0.088 A 
HETATM   26  C   UNL     1       8.511  20.379  54.006  1.00  0.00     0.019 A 
HETATM   27  C   UNL     1       7.904  21.204  53.031  1.00  0.00     0.027 A 
ENDBRANCH  21  22
ENDBRANCH  18  21
ENDBRANCH  13  17
ENDBRANCH   9  10
ENDBRANCH   1   9
TORSDOF 5
ENDMDL
