MODEL 1
REMARK VINA RESULT:     -10.0      0.000      0.000
REMARK  7 active torsions:
REMARK  status: ('A' for Active; 'I' for Inactive)
REMARK    1  A    between atoms: C_2  and  C_3 
REMARK    2  A    between atoms: C_3  and  N_4 
REMARK    3  A    between atoms: C_3  and  C_22 
REMARK       I    between atoms: N_4  and  C_5 
REMARK       I    between atoms: C_5  and  N_6 
REMARK    4  A    between atoms: N_6  and  C_7 
REMARK    5  A    between atoms: C_7  and  C_8 
REMARK    6  A    between atoms: C_11  and  N_12 
REMARK       I    between atoms: N_12  and  C_13 
REMARK       I    between atoms: C_13  and  N_14 
REMARK    7  A    between atoms: N_14  and  C_15 
ROOT
HETATM    1  N   UNL     1       7.304  29.698  58.878  1.00  0.00    -0.331 N 
HETATM    2  C   UNL     1       8.042  30.685  59.472  1.00  0.00     0.317 C 
HETATM    3  N   UNL     1       7.777  30.769  60.809  1.00  0.00    -0.339 N 
HETATM    4  O   UNL     1       8.829  31.408  58.875  1.00  0.00    -0.247 OA
HETATM    5  H   UNL     1       6.473  29.439  59.385  1.00  0.00     0.165 HD
HETATM    6  H   UNL     1       7.464  29.921  61.257  1.00  0.00     0.164 HD
ENDROOT
BRANCH   1   7
HETATM    7  C   UNL     1       7.259  29.534  57.426  1.00  0.00     0.159 C 
BRANCH   7   8
HETATM    8  C   UNL     1       5.907  30.001  56.821  1.00  0.00     0.008 C 
HETATM    9  C   UNL     1       5.880  31.527  56.664  1.00  0.00     0.012 C 
HETATM   10  C   UNL     1       4.672  29.550  57.614  1.00  0.00     0.012 C 
ENDBRANCH   7   8
BRANCH   7  11
HETATM   11  C   UNL     1       7.591  28.108  57.056  1.00  0.00     0.128 A 
HETATM   12  N   UNL     1       8.163  27.181  57.802  1.00  0.00    -0.231 NA
HETATM   13  C   UNL     1       8.181  26.042  57.036  1.00  0.00     0.085 A 
HETATM   14  C   UNL     1       7.605  26.269  55.792  1.00  0.00     0.062 A 
HETATM   15  C   UNL     1       8.673  24.765  57.339  1.00  0.00     0.034 A 
HETATM   16  N   UNL     1       7.236  27.586  55.831  1.00  0.00    -0.341 N 
HETATM   17  C   UNL     1       7.489  25.286  54.809  1.00  0.00     0.032 A 
HETATM   18  H   UNL     1       6.795  28.120  55.089  1.00  0.00     0.167 HD
HETATM   19  C   UNL     1       7.984  24.016  55.129  1.00  0.00     0.002 A 
HETATM   20  C   UNL     1       8.566  23.756  56.372  1.00  0.00     0.002 A 
ENDBRANCH   7  11
ENDBRANCH   1   7
BRANCH   3  21
HETATM   21  C   UNL     1       8.459  31.728  61.649  1.00  0.00     0.162 C 
BRANCH  21  22
HETATM   22  C   UNL     1       7.513  32.262  62.693  1.00  0.00    -0.040 A 
HETATM   23  C   UNL     1       7.983  32.892  63.849  1.00  0.00     0.011 A 
HETATM   24  C   UNL     1       7.088  33.350  64.826  1.00  0.00     0.030 A 
HETATM   25  C   UNL     1       5.713  33.165  64.672  1.00  0.00     0.036 A 
HETATM   26  C   UNL     1       5.242  32.568  63.499  1.00  0.00     0.030 A 
HETATM   27  C   UNL     1       6.132  32.110  62.523  1.00  0.00     0.011 A 
BRANCH  25  28
HETATM   28  N   UNL     1       4.742  33.579  65.602  1.00  0.00    -0.309 N 
HETATM   29  C   UNL     1       4.817  34.100  66.859  1.00  0.00     0.321 C 
HETATM   30  N   UNL     1       6.011  34.000  67.504  1.00  0.00    -0.339 N 
HETATM   31  O   UNL     1       3.801  34.571  67.364  1.00  0.00    -0.247 OA
HETATM   32  H   UNL     1       6.551  33.200  67.211  1.00  0.00     0.164 HD
HETATM   33  H   UNL     1       3.777  33.511  65.305  1.00  0.00     0.170 HD
BRANCH  30  34
HETATM   34  C   UNL     1       6.224  34.415  68.887  1.00  0.00     0.078 C 
HETATM   35  C   UNL     1       5.973  33.296  69.896  1.00  0.00     0.032 C 
HETATM   36  C   UNL     1       7.599  35.050  69.082  1.00  0.00     0.032 C 
ENDBRANCH  30  34
ENDBRANCH  25  28
ENDBRANCH  21  22
ENDBRANCH   3  21
TORSDOF 7
ENDMDL
MODEL 2
REMARK VINA RESULT:      -9.8      2.443     11.455
REMARK  7 active torsions:
REMARK  status: ('A' for Active; 'I' for Inactive)
REMARK    1  A    between atoms: C_2  and  C_3 
REMARK    2  A    between atoms: C_3  and  N_4 
REMARK    3  A    between atoms: C_3  and  C_22 
REMARK       I    between atoms: N_4  and  C_5 
REMARK       I    between atoms: C_5  and  N_6 
REMARK    4  A    between atoms: N_6  and  C_7 
REMARK    5  A    between atoms: C_7  and  C_8 
REMARK    6  A    between atoms: C_11  and  N_12 
REMARK       I    between atoms: N_12  and  C_13 
REMARK       I    between atoms: C_13  and  N_14 
REMARK    7  A    between atoms: N_14  and  C_15 
ROOT
HETATM    1  N   UNL     1       6.778  31.902  61.063  1.00  0.00    -0.331 N 
HETATM    2  C   UNL     1       7.017  31.793  59.719  1.00  0.00     0.317 C 
HETATM    3  N   UNL     1       6.161  30.905  59.132  1.00  0.00    -0.339 N 
HETATM    4  O   UNL     1       7.895  32.406  59.126  1.00  0.00    -0.247 OA
HETATM    5  H   UNL     1       6.297  31.113  61.464  1.00  0.00     0.165 HD
HETATM    6  H   UNL     1       5.265  30.784  59.579  1.00  0.00     0.164 HD
ENDROOT
BRANCH   1   7
HETATM    7  C   UNL     1       7.678  32.636  61.950  1.00  0.00     0.159 C 
BRANCH   7   8
HETATM    8  C   UNL     1       8.942  31.813  62.321  1.00  0.00     0.008 C 
HETATM    9  C   UNL     1      10.064  32.052  61.303  1.00  0.00     0.012 C 
HETATM   10  C   UNL     1       8.694  30.304  62.459  1.00  0.00     0.012 C 
ENDBRANCH   7   8
BRANCH   7  11
HETATM   11  C   UNL     1       6.926  33.113  63.170  1.00  0.00     0.128 A 
HETATM   12  N   UNL     1       5.626  33.297  63.309  1.00  0.00    -0.231 NA
HETATM   13  C   UNL     1       5.438  33.669  64.618  1.00  0.00     0.085 A 
HETATM   14  C   UNL     1       6.647  33.712  65.301  1.00  0.00     0.062 A 
HETATM   15  C   UNL     1       4.255  33.984  65.300  1.00  0.00     0.034 A 
HETATM   16  N   UNL     1       7.575  33.352  64.361  1.00  0.00    -0.341 N 
HETATM   17  C   UNL     1       6.756  34.060  66.648  1.00  0.00     0.032 A 
HETATM   18  H   UNL     1       8.580  33.288  64.487  1.00  0.00     0.167 HD
HETATM   19  C   UNL     1       5.563  34.370  67.314  1.00  0.00     0.002 A 
HETATM   20  C   UNL     1       4.333  34.333  66.655  1.00  0.00     0.002 A 
ENDBRANCH   7  11
ENDBRANCH   1   7
BRANCH   3  21
HETATM   21  C   UNL     1       6.213  30.646  57.711  1.00  0.00     0.162 C 
BRANCH  21  22
HETATM   22  C   UNL     1       6.387  29.170  57.463  1.00  0.00    -0.040 A 
HETATM   23  C   UNL     1       7.648  28.567  57.503  1.00  0.00     0.011 A 
HETATM   24  C   UNL     1       7.794  27.199  57.235  1.00  0.00     0.030 A 
HETATM   25  C   UNL     1       6.685  26.419  56.902  1.00  0.00     0.036 A 
HETATM   26  C   UNL     1       5.420  27.015  56.899  1.00  0.00     0.030 A 
HETATM   27  C   UNL     1       5.272  28.378  57.166  1.00  0.00     0.011 A 
BRANCH  25  28
HETATM   28  N   UNL     1       6.735  25.045  56.606  1.00  0.00    -0.309 N 
HETATM   29  C   UNL     1       6.784  24.343  55.439  1.00  0.00     0.321 C 
HETATM   30  N   UNL     1       6.478  25.015  54.295  1.00  0.00    -0.339 N 
HETATM   31  O   UNL     1       7.035  23.141  55.482  1.00  0.00    -0.247 OA
HETATM   32  H   UNL     1       5.838  25.780  54.447  1.00  0.00     0.164 HD
HETATM   33  H   UNL     1       6.765  24.415  57.398  1.00  0.00     0.170 HD
BRANCH  30  34
HETATM   34  C   UNL     1       6.385  24.384  52.983  1.00  0.00     0.078 C 
HETATM   35  C   UNL     1       5.149  24.815  52.195  1.00  0.00     0.032 C 
HETATM   36  C   UNL     1       7.664  24.574  52.170  1.00  0.00     0.032 C 
ENDBRANCH  30  34
ENDBRANCH  25  28
ENDBRANCH  21  22
ENDBRANCH   3  21
TORSDOF 7
ENDMDL
MODEL 3
REMARK VINA RESULT:      -9.7      3.345      4.831
REMARK  7 active torsions:
REMARK  status: ('A' for Active; 'I' for Inactive)
REMARK    1  A    between atoms: C_2  and  C_3 
REMARK    2  A    between atoms: C_3  and  N_4 
REMARK    3  A    between atoms: C_3  and  C_22 
REMARK       I    between atoms: N_4  and  C_5 
REMARK       I    between atoms: C_5  and  N_6 
REMARK    4  A    between atoms: N_6  and  C_7 
REMARK    5  A    between atoms: C_7  and  C_8 
REMARK    6  A    between atoms: C_11  and  N_12 
REMARK       I    between atoms: N_12  and  C_13 
REMARK       I    between atoms: C_13  and  N_14 
REMARK    7  A    between atoms: N_14  and  C_15 
ROOT
HETATM    1  N   UNL     1       7.722  26.939  56.088  1.00  0.00    -0.331 N 
HETATM    2  C   UNL     1       8.291  28.172  55.916  1.00  0.00     0.317 C 
HETATM    3  N   UNL     1       8.862  28.623  57.071  1.00  0.00    -0.339 N 
HETATM    4  O   UNL     1       8.276  28.794  54.861  1.00  0.00    -0.247 OA
HETATM    5  H   UNL     1       7.498  26.716  57.045  1.00  0.00     0.165 HD
HETATM    6  H   UNL     1       9.179  27.918  57.719  1.00  0.00     0.164 HD
ENDROOT
BRANCH   1   7
HETATM    7  C   UNL     1       6.881  26.326  55.062  1.00  0.00     0.159 C 
BRANCH   7   8
HETATM    8  C   UNL     1       5.368  26.562  55.320  1.00  0.00     0.008 C 
HETATM    9  C   UNL     1       4.851  27.738  54.482  1.00  0.00     0.012 C 
HETATM   10  C   UNL     1       5.008  26.793  56.795  1.00  0.00     0.012 C 
ENDBRANCH   7   8
BRANCH   7  11
HETATM   11  C   UNL     1       7.218  24.860  54.927  1.00  0.00     0.128 A 
HETATM   12  N   UNL     1       7.312  23.951  55.879  1.00  0.00    -0.231 NA
HETATM   13  C   UNL     1       7.572  22.763  55.239  1.00  0.00     0.085 A 
HETATM   14  C   UNL     1       7.638  22.943  53.863  1.00  0.00     0.062 A 
HETATM   15  C   UNL     1       7.763  21.481  55.772  1.00  0.00     0.034 A 
HETATM   16  N   UNL     1       7.407  24.281  53.691  1.00  0.00    -0.341 N 
HETATM   17  C   UNL     1       7.890  21.906  52.965  1.00  0.00     0.032 A 
HETATM   18  H   UNL     1       7.394  24.791  52.813  1.00  0.00     0.167 HD
HETATM   19  C   UNL     1       8.075  20.632  53.514  1.00  0.00     0.002 A 
HETATM   20  C   UNL     1       8.013  20.419  54.893  1.00  0.00     0.002 A 
ENDBRANCH   7  11
ENDBRANCH   1   7
BRANCH   3  21
HETATM   21  C   UNL     1       9.545  29.897  57.120  1.00  0.00     0.162 C 
BRANCH  21  22
HETATM   22  C   UNL     1       9.340  30.539  58.468  1.00  0.00    -0.040 A 
HETATM   23  C   UNL     1       9.993  31.724  58.819  1.00  0.00     0.011 A 
HETATM   24  C   UNL     1       9.816  32.286  60.090  1.00  0.00     0.030 A 
HETATM   25  C   UNL     1       9.002  31.661  61.036  1.00  0.00     0.036 A 
HETATM   26  C   UNL     1       8.319  30.497  60.672  1.00  0.00     0.030 A 
HETATM   27  C   UNL     1       8.494  29.933  59.404  1.00  0.00     0.011 A 
BRANCH  25  28
HETATM   28  N   UNL     1       8.774  32.143  62.338  1.00  0.00    -0.309 N 
HETATM   29  C   UNL     1       7.710  32.752  62.934  1.00  0.00     0.321 C 
HETATM   30  N   UNL     1       6.739  33.247  62.119  1.00  0.00    -0.339 N 
HETATM   31  O   UNL     1       7.710  32.878  64.156  1.00  0.00    -0.247 OA
HETATM   32  H   UNL     1       7.087  33.519  61.212  1.00  0.00     0.164 HD
HETATM   33  H   UNL     1       9.523  32.009  63.005  1.00  0.00     0.170 HD
BRANCH  30  34
HETATM   34  C   UNL     1       5.591  34.013  62.596  1.00  0.00     0.078 C 
HETATM   35  C   UNL     1       5.848  35.518  62.633  1.00  0.00     0.032 C 
HETATM   36  C   UNL     1       4.323  33.678  61.815  1.00  0.00     0.032 C 
ENDBRANCH  30  34
ENDBRANCH  25  28
ENDBRANCH  21  22
ENDBRANCH   3  21
TORSDOF 7
ENDMDL
MODEL 4
REMARK VINA RESULT:      -9.6      1.880      2.522
REMARK  7 active torsions:
REMARK  status: ('A' for Active; 'I' for Inactive)
REMARK    1  A    between atoms: C_2  and  C_3 
REMARK    2  A    between atoms: C_3  and  N_4 
REMARK    3  A    between atoms: C_3  and  C_22 
REMARK       I    between atoms: N_4  and  C_5 
REMARK       I    between atoms: C_5  and  N_6 
REMARK    4  A    between atoms: N_6  and  C_7 
REMARK    5  A    between atoms: C_7  and  C_8 
REMARK    6  A    between atoms: C_11  and  N_12 
REMARK       I    between atoms: N_12  and  C_13 
REMARK       I    between atoms: C_13  and  N_14 
REMARK    7  A    between atoms: N_14  and  C_15 
ROOT
HETATM    1  N   UNL     1       7.526  28.922  58.402  1.00  0.00    -0.331 N 
HETATM    2  C   UNL     1       8.319  29.922  58.895  1.00  0.00     0.317 C 
HETATM    3  N   UNL     1       8.087  30.133  60.224  1.00  0.00    -0.339 N 
HETATM    4  O   UNL     1       9.124  30.554  58.222  1.00  0.00    -0.247 OA
HETATM    5  H   UNL     1       6.695  28.746  58.944  1.00  0.00     0.165 HD
HETATM    6  H   UNL     1       7.747  29.342  60.750  1.00  0.00     0.164 HD
ENDROOT
BRANCH   1   7
HETATM    7  C   UNL     1       7.442  28.635  56.971  1.00  0.00     0.159 C 
BRANCH   7   8
HETATM    8  C   UNL     1       6.096  29.104  56.353  1.00  0.00     0.008 C 
HETATM    9  C   UNL     1       6.011  30.635  56.334  1.00  0.00     0.012 C 
HETATM   10  C   UNL     1       4.851  28.534  57.048  1.00  0.00     0.012 C 
ENDBRANCH   7   8
BRANCH   7  11
HETATM   11  C   UNL     1       7.709  27.170  56.721  1.00  0.00     0.128 A 
HETATM   12  N   UNL     1       8.248  26.285  57.539  1.00  0.00    -0.231 NA
HETATM   13  C   UNL     1       8.210  25.086  56.871  1.00  0.00     0.085 A 
HETATM   14  C   UNL     1       7.632  25.233  55.616  1.00  0.00     0.062 A 
HETATM   15  C   UNL     1       8.649  23.819  57.278  1.00  0.00     0.034 A 
HETATM   16  N   UNL     1       7.320  26.563  55.547  1.00  0.00    -0.341 N 
HETATM   17  C   UNL     1       7.463  24.176  54.720  1.00  0.00     0.032 A 
HETATM   18  H   UNL     1       6.895  27.052  54.765  1.00  0.00     0.167 HD
HETATM   19  C   UNL     1       7.907  22.918  55.144  1.00  0.00     0.002 A 
HETATM   20  C   UNL     1       8.490  22.738  56.400  1.00  0.00     0.002 A 
ENDBRANCH   7  11
ENDBRANCH   1   7
BRANCH   3  21
HETATM   21  C   UNL     1       8.829  31.129  60.964  1.00  0.00     0.162 C 
BRANCH  21  22
HETATM   22  C   UNL     1       7.936  31.782  61.985  1.00  0.00    -0.040 A 
HETATM   23  C   UNL     1       8.461  32.435  63.105  1.00  0.00     0.011 A 
HETATM   24  C   UNL     1       7.612  33.006  64.062  1.00  0.00     0.030 A 
HETATM   25  C   UNL     1       6.226  32.913  63.927  1.00  0.00     0.036 A 
HETATM   26  C   UNL     1       5.701  32.293  62.789  1.00  0.00     0.030 A 
HETATM   27  C   UNL     1       6.545  31.723  61.832  1.00  0.00     0.011 A 
BRANCH  25  28
HETATM   28  N   UNL     1       5.297  33.443  64.841  1.00  0.00    -0.309 N 
HETATM   29  C   UNL     1       4.588  34.607  64.881  1.00  0.00     0.321 C 
HETATM   30  N   UNL     1       4.984  35.606  64.046  1.00  0.00    -0.339 N 
HETATM   31  O   UNL     1       3.680  34.717  65.701  1.00  0.00    -0.247 OA
HETATM   32  H   UNL     1       5.969  35.573  63.831  1.00  0.00     0.164 HD
HETATM   33  H   UNL     1       5.064  32.861  65.635  1.00  0.00     0.170 HD
BRANCH  30  34
HETATM   34  C   UNL     1       4.395  36.942  64.041  1.00  0.00     0.078 C 
HETATM   35  C   UNL     1       5.434  38.057  64.149  1.00  0.00     0.032 C 
HETATM   36  C   UNL     1       3.470  37.150  62.845  1.00  0.00     0.032 C 
ENDBRANCH  30  34
ENDBRANCH  25  28
ENDBRANCH  21  22
ENDBRANCH   3  21
TORSDOF 7
ENDMDL
MODEL 5
REMARK VINA RESULT:      -9.4      2.565      3.605
REMARK  7 active torsions:
REMARK  status: ('A' for Active; 'I' for Inactive)
REMARK    1  A    between atoms: C_2  and  C_3 
REMARK    2  A    between atoms: C_3  and  N_4 
REMARK    3  A    between atoms: C_3  and  C_22 
REMARK       I    between atoms: N_4  and  C_5 
REMARK       I    between atoms: C_5  and  N_6 
REMARK    4  A    between atoms: N_6  and  C_7 
REMARK    5  A    between atoms: C_7  and  C_8 
REMARK    6  A    between atoms: C_11  and  N_12 
REMARK       I    between atoms: N_12  and  C_13 
REMARK       I    between atoms: C_13  and  N_14 
REMARK    7  A    between atoms: N_14  and  C_15 
ROOT
HETATM    1  N   UNL     1       6.721  28.409  56.650  1.00  0.00    -0.331 N 
HETATM    2  C   UNL     1       7.834  29.180  56.849  1.00  0.00     0.317 C 
HETATM    3  N   UNL     1       7.934  29.586  58.149  1.00  0.00    -0.339 N 
HETATM    4  O   UNL     1       8.630  29.477  55.966  1.00  0.00    -0.247 OA
HETATM    5  H   UNL     1       5.998  28.540  57.339  1.00  0.00     0.165 HD
HETATM    6  H   UNL     1       7.506  28.986  58.839  1.00  0.00     0.164 HD
ENDROOT
BRANCH   1   7
HETATM    7  C   UNL     1       6.283  28.013  55.313  1.00  0.00     0.159 C 
BRANCH   7   8
HETATM    8  C   UNL     1       4.753  28.195  55.115  1.00  0.00     0.008 C 
HETATM    9  C   UNL     1       4.451  28.792  53.735  1.00  0.00     0.012 C 
HETATM   10  C   UNL     1       4.074  29.047  56.197  1.00  0.00     0.012 C 
ENDBRANCH   7   8
BRANCH   7  11
HETATM   11  C   UNL     1       6.736  26.603  55.017  1.00  0.00     0.128 A 
HETATM   12  N   UNL     1       6.714  25.552  55.816  1.00  0.00    -0.231 NA
HETATM   13  C   UNL     1       7.165  24.498  55.060  1.00  0.00     0.085 A 
HETATM   14  C   UNL     1       7.470  24.906  53.768  1.00  0.00     0.062 A 
HETATM   15  C   UNL     1       7.340  23.153  55.412  1.00  0.00     0.034 A 
HETATM   16  N   UNL     1       7.186  26.245  53.765  1.00  0.00    -0.341 N 
HETATM   17  C   UNL     1       7.951  24.043  52.783  1.00  0.00     0.032 A 
HETATM   18  H   UNL     1       7.300  26.893  52.993  1.00  0.00     0.167 HD
HETATM   19  C   UNL     1       8.117  22.702  53.151  1.00  0.00     0.002 A 
HETATM   20  C   UNL     1       7.818  22.261  54.442  1.00  0.00     0.002 A 
ENDBRANCH   7  11
ENDBRANCH   1   7
BRANCH   3  21
HETATM   21  C   UNL     1       9.046  30.393  58.597  1.00  0.00     0.162 C 
BRANCH  21  22
HETATM   22  C   UNL     1       8.728  31.010  59.934  1.00  0.00    -0.040 A 
HETATM   23  C   UNL     1       7.966  32.178  60.036  1.00  0.00     0.011 A 
HETATM   24  C   UNL     1       7.711  32.756  61.287  1.00  0.00     0.030 A 
HETATM   25  C   UNL     1       8.232  32.189  62.451  1.00  0.00     0.036 A 
HETATM   26  C   UNL     1       8.962  31.001  62.351  1.00  0.00     0.030 A 
HETATM   27  C   UNL     1       9.218  30.422  61.105  1.00  0.00     0.011 A 
BRANCH  25  28
HETATM   28  N   UNL     1       8.040  32.703  63.746  1.00  0.00    -0.309 N 
HETATM   29  C   UNL     1       6.978  33.288  64.369  1.00  0.00     0.321 C 
HETATM   30  N   UNL     1       5.954  33.719  63.582  1.00  0.00    -0.339 N 
HETATM   31  O   UNL     1       7.024  33.454  65.585  1.00  0.00    -0.247 OA
HETATM   32  H   UNL     1       6.253  33.975  62.653  1.00  0.00     0.164 HD
HETATM   33  H   UNL     1       8.821  32.620  64.384  1.00  0.00     0.170 HD
BRANCH  30  34
HETATM   34  C   UNL     1       4.797  34.454  64.084  1.00  0.00     0.078 C 
HETATM   35  C   UNL     1       5.014  35.966  64.114  1.00  0.00     0.032 C 
HETATM   36  C   UNL     1       3.521  34.084  63.332  1.00  0.00     0.032 C 
ENDBRANCH  30  34
ENDBRANCH  25  28
ENDBRANCH  21  22
ENDBRANCH   3  21
TORSDOF 7
ENDMDL
MODEL 6
REMARK VINA RESULT:      -9.4      3.483      6.331
REMARK  7 active torsions:
REMARK  status: ('A' for Active; 'I' for Inactive)
REMARK    1  A    between atoms: C_2  and  C_3 
REMARK    2  A    between atoms: C_3  and  N_4 
REMARK    3  A    between atoms: C_3  and  C_22 
REMARK       I    between atoms: N_4  and  C_5 
REMARK       I    between atoms: C_5  and  N_6 
REMARK    4  A    between atoms: N_6  and  C_7 
REMARK    5  A    between atoms: C_7  and  C_8 
REMARK    6  A    between atoms: C_11  and  N_12 
REMARK       I    between atoms: N_12  and  C_13 
REMARK       I    between atoms: C_13  and  N_14 
REMARK    7  A    between atoms: N_14  and  C_15 
ROOT
HETATM    1  N   UNL     1       6.118  26.189  54.138  1.00  0.00    -0.331 N 
HETATM    2  C   UNL     1       6.315  27.536  54.282  1.00  0.00     0.317 C 
HETATM    3  N   UNL     1       5.455  28.071  55.198  1.00  0.00    -0.339 N 
HETATM    4  O   UNL     1       7.149  28.178  53.656  1.00  0.00    -0.247 OA
HETATM    5  H   UNL     1       5.206  25.871  54.425  1.00  0.00     0.165 HD
HETATM    6  H   UNL     1       5.125  27.446  55.919  1.00  0.00     0.164 HD
ENDROOT
BRANCH   1   7
HETATM    7  C   UNL     1       6.774  25.420  53.082  1.00  0.00     0.159 C 
BRANCH   7   8
HETATM    8  C   UNL     1       5.870  25.243  51.832  1.00  0.00     0.008 C 
HETATM    9  C   UNL     1       5.751  26.561  51.056  1.00  0.00     0.012 C 
HETATM   10  C   UNL     1       4.464  24.707  52.142  1.00  0.00     0.012 C 
ENDBRANCH   7   8
BRANCH   7  11
HETATM   11  C   UNL     1       7.260  24.100  53.631  1.00  0.00     0.128 A 
HETATM   12  N   UNL     1       7.205  23.661  54.874  1.00  0.00    -0.231 NA
HETATM   13  C   UNL     1       7.712  22.384  54.844  1.00  0.00     0.085 A 
HETATM   14  C   UNL     1       8.085  22.028  53.554  1.00  0.00     0.062 A 
HETATM   15  C   UNL     1       7.882  21.462  55.885  1.00  0.00     0.034 A 
HETATM   16  N   UNL     1       7.785  23.132  52.803  1.00  0.00    -0.341 N 
HETATM   17  C   UNL     1       8.632  20.786  53.228  1.00  0.00     0.032 A 
HETATM   18  H   UNL     1       7.936  23.253  51.806  1.00  0.00     0.167 HD
HETATM   19  C   UNL     1       8.793  19.876  54.280  1.00  0.00     0.002 A 
HETATM   20  C   UNL     1       8.425  20.205  55.587  1.00  0.00     0.002 A 
ENDBRANCH   7  11
ENDBRANCH   1   7
BRANCH   3  21
HETATM   21  C   UNL     1       5.497  29.476  55.532  1.00  0.00     0.162 C 
BRANCH  21  22
HETATM   22  C   UNL     1       6.413  29.700  56.706  1.00  0.00    -0.040 A 
HETATM   23  C   UNL     1       7.313  28.717  57.128  1.00  0.00     0.011 A 
HETATM   24  C   UNL     1       8.133  28.931  58.244  1.00  0.00     0.030 A 
HETATM   25  C   UNL     1       8.049  30.121  58.969  1.00  0.00     0.036 A 
HETATM   26  C   UNL     1       7.175  31.119  58.525  1.00  0.00     0.030 A 
HETATM   27  C   UNL     1       6.357  30.908  57.411  1.00  0.00     0.011 A 
BRANCH  25  28
HETATM   28  N   UNL     1       8.820  30.420  60.107  1.00  0.00    -0.309 N 
HETATM   29  C   UNL     1       8.501  30.791  61.379  1.00  0.00     0.321 C 
HETATM   30  N   UNL     1       7.227  31.217  61.602  1.00  0.00    -0.339 N 
HETATM   31  O   UNL     1       9.382  30.783  62.235  1.00  0.00    -0.247 OA
HETATM   32  H   UNL     1       6.804  31.635  60.788  1.00  0.00     0.164 HD
HETATM   33  H   UNL     1       9.824  30.331  60.006  1.00  0.00     0.170 HD
BRANCH  30  34
HETATM   34  C   UNL     1       6.759  31.742  62.881  1.00  0.00     0.078 C 
HETATM   35  C   UNL     1       7.342  33.114  63.216  1.00  0.00     0.032 C 
HETATM   36  C   UNL     1       5.235  31.741  62.970  1.00  0.00     0.032 C 
ENDBRANCH  30  34
ENDBRANCH  25  28
ENDBRANCH  21  22
ENDBRANCH   3  21
TORSDOF 7
ENDMDL
MODEL 7
REMARK VINA RESULT:      -9.2      2.797      4.665
REMARK  7 active torsions:
REMARK  status: ('A' for Active; 'I' for Inactive)
REMARK    1  A    between atoms: C_2  and  C_3 
REMARK    2  A    between atoms: C_3  and  N_4 
REMARK    3  A    between atoms: C_3  and  C_22 
REMARK       I    between atoms: N_4  and  C_5 
REMARK       I    between atoms: C_5  and  N_6 
REMARK    4  A    between atoms: N_6  and  C_7 
REMARK    5  A    between atoms: C_7  and  C_8 
REMARK    6  A    between atoms: C_11  and  N_12 
REMARK       I    between atoms: N_12  and  C_13 
REMARK       I    between atoms: C_13  and  N_14 
REMARK    7  A    between atoms: N_14  and  C_15 
ROOT
HETATM    1  N   UNL     1       7.332  26.925  55.931  1.00  0.00    -0.331 N 
HETATM    2  C   UNL     1       8.074  28.070  56.046  1.00  0.00     0.317 C 
HETATM    3  N   UNL     1       8.272  28.405  57.355  1.00  0.00    -0.339 N 
HETATM    4  O   UNL     1       8.493  28.714  55.094  1.00  0.00    -0.247 OA
HETATM    5  H   UNL     1       6.772  26.711  56.741  1.00  0.00     0.165 HD
HETATM    6  H   UNL     1       8.261  27.645  58.018  1.00  0.00     0.164 HD
ENDROOT
BRANCH   1   7
HETATM    7  C   UNL     1       6.818  26.463  54.643  1.00  0.00     0.159 C 
BRANCH   7   8
HETATM    8  C   UNL     1       5.311  26.788  54.458  1.00  0.00     0.008 C 
HETATM    9  C   UNL     1       4.767  26.137  53.180  1.00  0.00     0.012 C 
HETATM   10  C   UNL     1       4.987  28.289  54.439  1.00  0.00     0.012 C 
ENDBRANCH   7   8
BRANCH   7  11
HETATM   11  C   UNL     1       7.113  24.993  54.467  1.00  0.00     0.128 A 
HETATM   12  N   UNL     1       7.466  24.355  53.366  1.00  0.00    -0.231 NA
HETATM   13  C   UNL     1       7.683  23.052  53.740  1.00  0.00     0.085 A 
HETATM   14  C   UNL     1       7.462  22.882  55.101  1.00  0.00     0.062 A 
HETATM   15  C   UNL     1       8.076  21.951  52.968  1.00  0.00     0.034 A 
HETATM   16  N   UNL     1       7.105  24.128  55.540  1.00  0.00    -0.341 N 
HETATM   17  C   UNL     1       7.608  21.658  55.756  1.00  0.00     0.032 A 
HETATM   18  H   UNL     1       6.849  24.394  56.485  1.00  0.00     0.167 HD
HETATM   19  C   UNL     1       8.004  20.570  54.969  1.00  0.00     0.002 A 
HETATM   20  C   UNL     1       8.235  20.709  53.599  1.00  0.00     0.002 A 
ENDBRANCH   7  11
ENDBRANCH   1   7
BRANCH   3  21
HETATM   21  C   UNL     1       9.050  29.568  57.719  1.00  0.00     0.162 C 
BRANCH  21  22
HETATM   22  C   UNL     1       8.171  30.582  58.402  1.00  0.00    -0.040 A 
HETATM   23  C   UNL     1       8.631  31.338  59.484  1.00  0.00     0.011 A 
HETATM   24  C   UNL     1       7.786  32.251  60.128  1.00  0.00     0.030 A 
HETATM   25  C   UNL     1       6.462  32.407  59.714  1.00  0.00     0.036 A 
HETATM   26  C   UNL     1       6.013  31.679  58.608  1.00  0.00     0.030 A 
HETATM   27  C   UNL     1       6.854  30.767  57.964  1.00  0.00     0.011 A 
BRANCH  25  28
HETATM   28  N   UNL     1       5.539  33.288  60.305  1.00  0.00    -0.309 N 
HETATM   29  C   UNL     1       5.463  33.873  61.534  1.00  0.00     0.321 C 
HETATM   30  N   UNL     1       6.257  33.365  62.516  1.00  0.00    -0.339 N 
HETATM   31  O   UNL     1       4.648  34.776  61.709  1.00  0.00    -0.247 OA
HETATM   32  H   UNL     1       6.463  32.386  62.388  1.00  0.00     0.164 HD
HETATM   33  H   UNL     1       4.768  33.591  59.722  1.00  0.00     0.170 HD
BRANCH  30  34
HETATM   34  C   UNL     1       6.218  33.812  63.904  1.00  0.00     0.078 C 
HETATM   35  C   UNL     1       5.009  33.281  64.673  1.00  0.00     0.032 C 
HETATM   36  C   UNL     1       7.525  33.510  64.634  1.00  0.00     0.032 C 
ENDBRANCH  30  34
ENDBRANCH  25  28
ENDBRANCH  21  22
ENDBRANCH   3  21
TORSDOF 7
ENDMDL
MODEL 8
REMARK VINA RESULT:      -8.9      4.245     11.247
REMARK  7 active torsions:
REMARK  status: ('A' for Active; 'I' for Inactive)
REMARK    1  A    between atoms: C_2  and  C_3 
REMARK    2  A    between atoms: C_3  and  N_4 
REMARK    3  A    between atoms: C_3  and  C_22 
REMARK       I    between atoms: N_4  and  C_5 
REMARK       I    between atoms: C_5  and  N_6 
REMARK    4  A    between atoms: N_6  and  C_7 
REMARK    5  A    between atoms: C_7  and  C_8 
REMARK    6  A    between atoms: C_11  and  N_12 
REMARK       I    between atoms: N_12  and  C_13 
REMARK       I    between atoms: C_13  and  N_14 
REMARK    7  A    between atoms: N_14  and  C_15 
ROOT
HETATM    1  N   UNL     1       5.390  31.184  56.506  1.00  0.00    -0.331 N 
HETATM    2  C   UNL     1       4.751  29.985  56.338  1.00  0.00     0.317 C 
HETATM    3  N   UNL     1       5.071  29.413  55.141  1.00  0.00    -0.339 N 
HETATM    4  O   UNL     1       3.981  29.497  57.156  1.00  0.00    -0.247 OA
HETATM    5  H   UNL     1       5.690  31.617  55.647  1.00  0.00     0.165 HD
HETATM    6  H   UNL     1       5.971  29.656  54.755  1.00  0.00     0.164 HD
ENDROOT
BRANCH   1   7
HETATM    7  C   UNL     1       5.069  32.083  57.613  1.00  0.00     0.159 C 
BRANCH   7   8
HETATM    8  C   UNL     1       4.849  33.546  57.139  1.00  0.00     0.008 C 
HETATM    9  C   UNL     1       3.583  34.138  57.773  1.00  0.00     0.012 C 
HETATM   10  C   UNL     1       4.778  33.711  55.614  1.00  0.00     0.012 C 
ENDBRANCH   7   8
BRANCH   7  11
HETATM   11  C   UNL     1       6.126  31.980  58.685  1.00  0.00     0.128 A 
HETATM   12  N   UNL     1       7.437  31.929  58.540  1.00  0.00    -0.231 NA
HETATM   13  C   UNL     1       7.955  31.910  59.812  1.00  0.00     0.085 A 
HETATM   14  C   UNL     1       6.942  31.954  60.762  1.00  0.00     0.062 A 
HETATM   15  C   UNL     1       9.289  31.859  60.236  1.00  0.00     0.034 A 
HETATM   16  N   UNL     1       5.792  32.001  60.022  1.00  0.00    -0.341 N 
HETATM   17  C   UNL     1       7.179  31.946  62.137  1.00  0.00     0.032 A 
HETATM   18  H   UNL     1       4.840  32.025  60.373  1.00  0.00     0.167 HD
HETATM   19  C   UNL     1       8.518  31.897  62.543  1.00  0.00     0.002 A 
HETATM   20  C   UNL     1       9.558  31.855  61.612  1.00  0.00     0.002 A 
ENDBRANCH   7  11
ENDBRANCH   1   7
BRANCH   3  21
HETATM   21  C   UNL     1       4.530  28.128  54.757  1.00  0.00     0.162 C 
BRANCH  21  22
HETATM   22  C   UNL     1       5.563  27.052  54.967  1.00  0.00    -0.040 A 
HETATM   23  C   UNL     1       5.539  26.226  56.095  1.00  0.00     0.011 A 
HETATM   24  C   UNL     1       6.530  25.254  56.290  1.00  0.00     0.030 A 
HETATM   25  C   UNL     1       7.571  25.108  55.371  1.00  0.00     0.036 A 
HETATM   26  C   UNL     1       7.573  25.908  54.225  1.00  0.00     0.030 A 
HETATM   27  C   UNL     1       6.587  26.878  54.028  1.00  0.00     0.011 A 
BRANCH  25  28
HETATM   28  N   UNL     1       8.613  24.171  55.488  1.00  0.00    -0.309 N 
HETATM   29  C   UNL     1       8.762  22.884  55.066  1.00  0.00     0.321 C 
HETATM   30  N   UNL     1       7.639  22.226  54.667  1.00  0.00    -0.339 N 
HETATM   31  O   UNL     1       9.875  22.367  55.125  1.00  0.00    -0.247 OA
HETATM   32  H   UNL     1       6.804  22.558  55.125  1.00  0.00     0.164 HD
HETATM   33  H   UNL     1       9.453  24.488  55.957  1.00  0.00     0.170 HD
BRANCH  30  34
HETATM   34  C   UNL     1       7.615  20.817  54.286  1.00  0.00     0.078 C 
HETATM   35  C   UNL     1       8.254  20.552  52.923  1.00  0.00     0.032 C 
HETATM   36  C   UNL     1       8.216  19.927  55.370  1.00  0.00     0.032 C 
ENDBRANCH  30  34
ENDBRANCH  25  28
ENDBRANCH  21  22
ENDBRANCH   3  21
TORSDOF 7
ENDMDL
MODEL 9
REMARK VINA RESULT:      -8.8      9.124     13.206
REMARK  7 active torsions:
REMARK  status: ('A' for Active; 'I' for Inactive)
REMARK    1  A    between atoms: C_2  and  C_3 
REMARK    2  A    between atoms: C_3  and  N_4 
REMARK    3  A    between atoms: C_3  and  C_22 
REMARK       I    between atoms: N_4  and  C_5 
REMARK       I    between atoms: C_5  and  N_6 
REMARK    4  A    between atoms: N_6  and  C_7 
REMARK    5  A    between atoms: C_7  and  C_8 
REMARK    6  A    between atoms: C_11  and  N_12 
REMARK       I    between atoms: N_12  and  C_13 
REMARK       I    between atoms: C_13  and  N_14 
REMARK    7  A    between atoms: N_14  and  C_15 
ROOT
HETATM    1  N   UNL     1       6.576  26.029  52.737  1.00  0.00    -0.331 N 
HETATM    2  C   UNL     1       5.544  25.767  51.876  1.00  0.00     0.317 C 
HETATM    3  N   UNL     1       5.728  26.388  50.675  1.00  0.00    -0.339 N 
HETATM    4  O   UNL     1       4.576  25.072  52.157  1.00  0.00    -0.247 OA
HETATM    5  H   UNL     1       7.095  26.864  52.520  1.00  0.00     0.165 HD
HETATM    6  H   UNL     1       6.683  26.570  50.406  1.00  0.00     0.164 HD
ENDROOT
BRANCH   1   7
HETATM    7  C   UNL     1       6.524  25.642  54.146  1.00  0.00     0.159 C 
BRANCH   7   8
HETATM    8  C   UNL     1       7.219  26.680  55.069  1.00  0.00     0.008 C 
HETATM    9  C   UNL     1       6.317  27.044  56.255  1.00  0.00     0.012 C 
HETATM   10  C   UNL     1       7.659  27.965  54.353  1.00  0.00     0.012 C 
ENDBRANCH   7   8
BRANCH   7  11
HETATM   11  C   UNL     1       7.086  24.252  54.321  1.00  0.00     0.128 A 
HETATM   12  N   UNL     1       7.306  23.593  55.444  1.00  0.00    -0.231 NA
HETATM   13  C   UNL     1       7.758  22.352  55.068  1.00  0.00     0.085 A 
HETATM   14  C   UNL     1       7.815  22.241  53.684  1.00  0.00     0.062 A 
HETATM   15  C   UNL     1       8.137  21.259  55.859  1.00  0.00     0.034 A 
HETATM   16  N   UNL     1       7.381  23.458  53.234  1.00  0.00    -0.341 N 
HETATM   17  C   UNL     1       8.238  21.087  53.024  1.00  0.00     0.032 A 
HETATM   18  H   UNL     1       7.302  23.760  52.268  1.00  0.00     0.167 HD
HETATM   19  C   UNL     1       8.612  20.004  53.829  1.00  0.00     0.002 A 
HETATM   20  C   UNL     1       8.563  20.084  55.222  1.00  0.00     0.002 A 
ENDBRANCH   7  11
ENDBRANCH   1   7
BRANCH   3  21
HETATM   21  C   UNL     1       4.774  26.235  49.600  1.00  0.00     0.162 C 
BRANCH  21  22
HETATM   22  C   UNL     1       4.367  27.588  49.075  1.00  0.00    -0.040 A 
HETATM   23  C   UNL     1       4.465  27.904  47.717  1.00  0.00     0.011 A 
HETATM   24  C   UNL     1       4.115  29.180  47.254  1.00  0.00     0.030 A 
HETATM   25  C   UNL     1       3.684  30.165  48.145  1.00  0.00     0.036 A 
HETATM   26  C   UNL     1       3.551  29.836  49.497  1.00  0.00     0.030 A 
HETATM   27  C   UNL     1       3.899  28.565  49.962  1.00  0.00     0.011 A 
BRANCH  25  28
HETATM   28  N   UNL     1       3.324  31.473  47.776  1.00  0.00    -0.309 N 
HETATM   29  C   UNL     1       4.025  32.525  47.267  1.00  0.00     0.321 C 
HETATM   30  N   UNL     1       5.383  32.459  47.333  1.00  0.00    -0.339 N 
HETATM   31  O   UNL     1       3.406  33.495  46.837  1.00  0.00    -0.247 OA
HETATM   32  H   UNL     1       5.713  31.906  48.110  1.00  0.00     0.164 HD
HETATM   33  H   UNL     1       2.346  31.715  47.873  1.00  0.00     0.170 HD
BRANCH  30  34
HETATM   34  C   UNL     1       6.270  33.544  46.927  1.00  0.00     0.078 C 
HETATM   35  C   UNL     1       7.430  33.767  47.895  1.00  0.00     0.032 C 
HETATM   36  C   UNL     1       6.762  33.366  45.492  1.00  0.00     0.032 C 
ENDBRANCH  30  34
ENDBRANCH  25  28
ENDBRANCH  21  22
ENDBRANCH   3  21
TORSDOF 7
ENDMDL
MODEL 10
REMARK VINA RESULT:      -8.8      4.210     11.543
REMARK  7 active torsions:
REMARK  status: ('A' for Active; 'I' for Inactive)
REMARK    1  A    between atoms: C_2  and  C_3 
REMARK    2  A    between atoms: C_3  and  N_4 
REMARK    3  A    between atoms: C_3  and  C_22 
REMARK       I    between atoms: N_4  and  C_5 
REMARK       I    between atoms: C_5  and  N_6 
REMARK    4  A    between atoms: N_6  and  C_7 
REMARK    5  A    between atoms: C_7  and  C_8 
REMARK    6  A    between atoms: C_11  and  N_12 
REMARK       I    between atoms: N_12  and  C_13 
REMARK       I    between atoms: C_13  and  N_14 
REMARK    7  A    between atoms: N_14  and  C_15 
ROOT
HETATM    1  N   UNL     1       6.498  29.527  57.427  1.00  0.00    -0.331 N 
HETATM    2  C   UNL     1       6.123  29.175  56.158  1.00  0.00     0.317 C 
HETATM    3  N   UNL     1       5.014  28.379  56.169  1.00  0.00    -0.339 N 
HETATM    4  O   UNL     1       6.717  29.524  55.146  1.00  0.00    -0.247 OA
HETATM    5  H   UNL     1       6.161  28.907  58.146  1.00  0.00     0.165 HD
HETATM    6  H   UNL     1       4.391  28.490  56.955  1.00  0.00     0.164 HD
ENDROOT
BRANCH   1   7
HETATM    7  C   UNL     1       7.761  30.212  57.698  1.00  0.00     0.159 C 
BRANCH   7   8
HETATM    8  C   UNL     1       8.981  29.253  57.620  1.00  0.00     0.008 C 
HETATM    9  C   UNL     1      10.023  29.778  56.624  1.00  0.00     0.012 C 
HETATM   10  C   UNL     1       8.622  27.803  57.261  1.00  0.00     0.012 C 
ENDBRANCH   7   8
BRANCH   7  11
HETATM   11  C   UNL     1       7.684  30.934  59.021  1.00  0.00     0.128 A 
HETATM   12  N   UNL     1       7.083  32.077  59.295  1.00  0.00    -0.231 NA
HETATM   13  C   UNL     1       7.242  32.270  60.645  1.00  0.00     0.085 A 
HETATM   14  C   UNL     1       7.954  31.223  61.217  1.00  0.00     0.062 A 
HETATM   15  C   UNL     1       6.800  33.322  61.459  1.00  0.00     0.034 A 
HETATM   16  N   UNL     1       8.219  30.387  60.166  1.00  0.00    -0.341 N 
HETATM   17  C   UNL     1       8.263  31.157  62.576  1.00  0.00     0.032 A 
HETATM   18  H   UNL     1       8.741  29.517  60.194  1.00  0.00     0.167 HD
HETATM   19  C   UNL     1       7.812  32.215  63.374  1.00  0.00     0.002 A 
HETATM   20  C   UNL     1       7.092  33.281  62.829  1.00  0.00     0.002 A 
ENDBRANCH   7  11
ENDBRANCH   1   7
BRANCH   3  21
HETATM   21  C   UNL     1       4.422  27.904  54.939  1.00  0.00     0.162 C 
BRANCH  21  22
HETATM   22  C   UNL     1       5.106  26.638  54.495  1.00  0.00    -0.040 A 
HETATM   23  C   UNL     1       5.777  25.812  55.402  1.00  0.00     0.011 A 
HETATM   24  C   UNL     1       6.437  24.657  54.963  1.00  0.00     0.030 A 
HETATM   25  C   UNL     1       6.456  24.321  53.608  1.00  0.00     0.036 A 
HETATM   26  C   UNL     1       5.754  25.127  52.706  1.00  0.00     0.030 A 
HETATM   27  C   UNL     1       5.095  26.280  53.141  1.00  0.00     0.011 A 
BRANCH  25  28
HETATM   28  N   UNL     1       7.101  23.191  53.074  1.00  0.00    -0.309 N 
HETATM   29  C   UNL     1       7.578  22.041  53.628  1.00  0.00     0.321 C 
HETATM   30  N   UNL     1       7.720  22.014  54.981  1.00  0.00    -0.339 N 
HETATM   31  O   UNL     1       7.911  21.122  52.884  1.00  0.00    -0.247 OA
HETATM   32  H   UNL     1       7.895  22.925  55.377  1.00  0.00     0.164 HD
HETATM   33  H   UNL     1       7.238  23.183  52.071  1.00  0.00     0.170 HD
BRANCH  30  34
HETATM   34  C   UNL     1       8.311  20.898  55.713  1.00  0.00     0.078 C 
HETATM   35  C   UNL     1       9.749  20.599  55.293  1.00  0.00     0.032 C 
HETATM   36  C   UNL     1       8.194  21.086  57.224  1.00  0.00     0.032 C 
ENDBRANCH  30  34
ENDBRANCH  25  28
ENDBRANCH  21  22
ENDBRANCH   3  21
TORSDOF 7
ENDMDL
