MODEL 1
REMARK VINA RESULT:     -10.4      0.000      0.000
REMARK  6 active torsions:
REMARK  status: ('A' for Active; 'I' for Inactive)
REMARK    1  A    between atoms: C_5  and  N_6 
REMARK    2  A    between atoms: C_17  and  C_29 
REMARK    3  A    between atoms: C_17  and  N_18 
REMARK       I    between atoms: N_18  and  C_19 
REMARK    4  A    between atoms: C_19  and  C_20 
REMARK    5  A    between atoms: C_20  and  C_21 
REMARK    6  A    between atoms: C_21  and  C_22 
ROOT
HETATM    1  N   UNL     1       8.874  30.835  58.719  1.00  0.00    -0.248 N 
HETATM    2  C   UNL     1      10.091  31.202  58.094  1.00  0.00     0.335 A 
HETATM    3  O   UNL     1      10.959  31.944  58.554  1.00  0.00    -0.246 OA
HETATM    4  N   UNL     1      10.342  30.617  56.868  1.00  0.00    -0.274 N 
HETATM    5  C   UNL     1       9.596  29.661  56.245  1.00  0.00     0.262 A 
HETATM    6  O   UNL     1       9.927  29.111  55.204  1.00  0.00    -0.267 OA
HETATM    7  C   UNL     1       8.349  29.354  56.909  1.00  0.00     0.101 A 
HETATM    8  C   UNL     1       8.046  29.941  58.066  1.00  0.00     0.134 A 
HETATM    9  N   UNL     1       6.789  29.559  58.425  1.00  0.00    -0.309 N 
HETATM   10  C   UNL     1       6.220  28.704  57.484  1.00  0.00     0.266 A 
HETATM   11  O   UNL     1       5.075  28.283  57.529  1.00  0.00    -0.270 OA
HETATM   12  C   UNL     1       7.286  28.426  56.408  1.00  0.00     0.249 A 
HETATM   13  H   UNL     1      11.228  30.857  56.448  1.00  0.00     0.173 HD
HETATM   14  H   UNL     1       6.248  29.960  59.179  1.00  0.00     0.170 HD
ENDROOT
BRANCH  12  15
HETATM   15  C   UNL     1       7.669  26.954  56.605  1.00  0.00     0.426 C 
HETATM   16  F   UNL     1       6.729  26.263  57.296  1.00  0.00    -0.167 F 
HETATM   17  F   UNL     1       7.867  26.311  55.432  1.00  0.00    -0.167 F 
HETATM   18  F   UNL     1       8.826  26.841  57.303  1.00  0.00    -0.167 F 
ENDBRANCH  12  15
BRANCH  12  19
HETATM   19  N   UNL     1       6.856  28.749  55.031  1.00  0.00    -0.332 N 
HETATM   20  C   UNL     1       5.705  28.250  54.482  1.00  0.00     0.219 C 
HETATM   21  O   UNL     1       5.002  27.436  55.078  1.00  0.00    -0.274 OA
HETATM   22  H   UNL     1       7.162  29.659  54.696  1.00  0.00     0.164 HD
BRANCH  20  23
HETATM   23  C   UNL     1       5.279  28.803  53.133  1.00  0.00     0.107 C 
BRANCH  23  24
HETATM   24  C   UNL     1       5.535  27.918  51.909  1.00  0.00     0.047 C 
BRANCH  24  25
HETATM   25  C   UNL     1       6.069  26.528  52.185  1.00  0.00    -0.058 A 
HETATM   26  C   UNL     1       5.167  25.476  52.408  1.00  0.00     0.007 A 
HETATM   27  C   UNL     1       5.627  24.181  52.655  1.00  0.00     0.001 A 
HETATM   28  C   UNL     1       6.994  23.918  52.676  1.00  0.00     0.000 A 
HETATM   29  C   UNL     1       7.899  24.947  52.436  1.00  0.00     0.001 A 
HETATM   30  C   UNL     1       7.441  26.241  52.180  1.00  0.00     0.007 A 
ENDBRANCH  24  25
ENDBRANCH  23  24
ENDBRANCH  20  23
ENDBRANCH  12  19
BRANCH   1  31
HETATM   31  C   UNL     1       8.589  31.360  60.032  1.00  0.00     0.045 A 
HETATM   32  C   UNL     1       9.090  30.741  61.186  1.00  0.00     0.031 A 
HETATM   33  C   UNL     1       8.803  31.242  62.460  1.00  0.00     0.009 A 
HETATM   34  C   UNL     1       7.992  32.368  62.615  1.00  0.00    -0.062 A 
HETATM   35  C   UNL     1       7.700  32.918  63.980  1.00  0.00     0.048 C 
HETATM   36  C   UNL     1       7.496  33.000  61.473  1.00  0.00     0.009 A 
HETATM   37  C   UNL     1       7.784  32.497  60.198  1.00  0.00     0.031 A 
ENDBRANCH   1  31
TORSDOF 6
ENDMDL
MODEL 2
REMARK VINA RESULT:     -10.2      3.008      4.526
REMARK  6 active torsions:
REMARK  status: ('A' for Active; 'I' for Inactive)
REMARK    1  A    between atoms: C_5  and  N_6 
REMARK    2  A    between atoms: C_17  and  C_29 
REMARK    3  A    between atoms: C_17  and  N_18 
REMARK       I    between atoms: N_18  and  C_19 
REMARK    4  A    between atoms: C_19  and  C_20 
REMARK    5  A    between atoms: C_20  and  C_21 
REMARK    6  A    between atoms: C_21  and  C_22 
ROOT
HETATM    1  N   UNL     1       5.674  30.726  56.546  1.00  0.00    -0.248 N 
HETATM    2  C   UNL     1       5.139  30.274  55.315  1.00  0.00     0.335 A 
HETATM    3  O   UNL     1       4.097  30.655  54.783  1.00  0.00    -0.246 OA
HETATM    4  N   UNL     1       5.903  29.355  54.624  1.00  0.00    -0.274 N 
HETATM    5  C   UNL     1       7.150  28.910  54.951  1.00  0.00     0.262 A 
HETATM    6  O   UNL     1       7.817  28.169  54.243  1.00  0.00    -0.267 OA
HETATM    7  C   UNL     1       7.629  29.374  56.234  1.00  0.00     0.101 A 
HETATM    8  C   UNL     1       6.894  30.219  56.956  1.00  0.00     0.134 A 
HETATM    9  N   UNL     1       7.517  30.418  58.150  1.00  0.00    -0.309 N 
HETATM   10  C   UNL     1       8.695  29.682  58.248  1.00  0.00     0.266 A 
HETATM   11  O   UNL     1       9.397  29.622  59.244  1.00  0.00    -0.270 OA
HETATM   12  C   UNL     1       8.909  28.972  56.898  1.00  0.00     0.249 A 
HETATM   13  H   UNL     1       5.532  29.067  53.731  1.00  0.00     0.173 HD
HETATM   14  H   UNL     1       7.117  30.895  58.948  1.00  0.00     0.170 HD
ENDROOT
BRANCH  12  15
HETATM   15  C   UNL     1      10.124  29.672  56.275  1.00  0.00     0.426 C 
HETATM   16  F   UNL     1      10.090  29.659  54.920  1.00  0.00    -0.167 F 
HETATM   17  F   UNL     1      10.233  30.961  56.667  1.00  0.00    -0.167 F 
HETATM   18  F   UNL     1      11.279  29.063  56.642  1.00  0.00    -0.167 F 
ENDBRANCH  12  15
BRANCH  12  19
HETATM   19  N   UNL     1       9.056  27.505  57.001  1.00  0.00    -0.332 N 
HETATM   20  C   UNL     1       8.056  26.695  57.470  1.00  0.00     0.219 C 
HETATM   21  O   UNL     1       7.003  27.153  57.910  1.00  0.00    -0.274 OA
HETATM   22  H   UNL     1       9.691  27.096  56.320  1.00  0.00     0.164 HD
BRANCH  20  23
HETATM   23  C   UNL     1       8.260  25.194  57.351  1.00  0.00     0.107 C 
BRANCH  23  24
HETATM   24  C   UNL     1       7.123  24.388  56.717  1.00  0.00     0.047 C 
BRANCH  24  25
HETATM   25  C   UNL     1       7.432  23.711  55.399  1.00  0.00    -0.058 A 
HETATM   26  C   UNL     1       7.602  22.318  55.364  1.00  0.00     0.007 A 
HETATM   27  C   UNL     1       7.879  21.662  54.163  1.00  0.00     0.001 A 
HETATM   28  C   UNL     1       7.983  22.388  52.979  1.00  0.00     0.000 A 
HETATM   29  C   UNL     1       7.799  23.767  52.996  1.00  0.00     0.001 A 
HETATM   30  C   UNL     1       7.513  24.424  54.194  1.00  0.00     0.007 A 
ENDBRANCH  24  25
ENDBRANCH  23  24
ENDBRANCH  20  23
ENDBRANCH  12  19
BRANCH   1  31
HETATM   31  C   UNL     1       4.955  31.738  57.279  1.00  0.00     0.045 A 
HETATM   32  C   UNL     1       5.055  33.093  56.935  1.00  0.00     0.031 A 
HETATM   33  C   UNL     1       4.368  34.077  57.655  1.00  0.00     0.009 A 
HETATM   34  C   UNL     1       3.573  33.731  58.750  1.00  0.00    -0.062 A 
HETATM   35  C   UNL     1       2.820  34.783  59.509  1.00  0.00     0.048 C 
HETATM   36  C   UNL     1       3.455  32.384  59.096  1.00  0.00     0.009 A 
HETATM   37  C   UNL     1       4.145  31.401  58.375  1.00  0.00     0.031 A 
ENDBRANCH   1  31
TORSDOF 6
ENDMDL
MODEL 3
REMARK VINA RESULT:     -10.2      1.418      2.261
REMARK  6 active torsions:
REMARK  status: ('A' for Active; 'I' for Inactive)
REMARK    1  A    between atoms: C_5  and  N_6 
REMARK    2  A    between atoms: C_17  and  C_29 
REMARK    3  A    between atoms: C_17  and  N_18 
REMARK       I    between atoms: N_18  and  C_19 
REMARK    4  A    between atoms: C_19  and  C_20 
REMARK    5  A    between atoms: C_20  and  C_21 
REMARK    6  A    between atoms: C_21  and  C_22 
ROOT
HETATM    1  N   UNL     1       8.909  30.682  58.488  1.00  0.00    -0.248 N 
HETATM    2  C   UNL     1      10.112  31.075  57.853  1.00  0.00     0.335 A 
HETATM    3  O   UNL     1      10.973  31.827  58.310  1.00  0.00    -0.246 OA
HETATM    4  N   UNL     1      10.358  30.505  56.619  1.00  0.00    -0.274 N 
HETATM    5  C   UNL     1       9.621  29.543  55.995  1.00  0.00     0.262 A 
HETATM    6  O   UNL     1       9.948  29.007  54.946  1.00  0.00    -0.267 OA
HETATM    7  C   UNL     1       8.388  29.208  56.671  1.00  0.00     0.101 A 
HETATM    8  C   UNL     1       8.088  29.779  57.837  1.00  0.00     0.134 A 
HETATM    9  N   UNL     1       6.842  29.373  58.207  1.00  0.00    -0.309 N 
HETATM   10  C   UNL     1       6.277  28.517  57.266  1.00  0.00     0.266 A 
HETATM   11  O   UNL     1       5.139  28.078  57.320  1.00  0.00    -0.270 OA
HETATM   12  C   UNL     1       7.334  28.268  56.174  1.00  0.00     0.249 A 
HETATM   13  H   UNL     1      11.235  30.763  56.190  1.00  0.00     0.173 HD
HETATM   14  H   UNL     1       6.303  29.759  58.971  1.00  0.00     0.170 HD
ENDROOT
BRANCH  12  15
HETATM   15  C   UNL     1       7.743  26.800  56.354  1.00  0.00     0.426 C 
HETATM   16  F   UNL     1       8.064  26.205  55.179  1.00  0.00    -0.167 F 
HETATM   17  F   UNL     1       8.801  26.658  57.184  1.00  0.00    -0.167 F 
HETATM   18  F   UNL     1       6.734  26.075  56.896  1.00  0.00    -0.167 F 
ENDBRANCH  12  15
BRANCH  12  19
HETATM   19  N   UNL     1       6.883  28.596  54.806  1.00  0.00    -0.332 N 
HETATM   20  C   UNL     1       5.885  27.903  54.172  1.00  0.00     0.219 C 
HETATM   21  O   UNL     1       5.361  26.912  54.679  1.00  0.00    -0.274 OA
HETATM   22  H   UNL     1       6.990  29.573  54.549  1.00  0.00     0.164 HD
BRANCH  20  23
HETATM   23  C   UNL     1       5.386  28.452  52.847  1.00  0.00     0.107 C 
BRANCH  23  24
HETATM   24  C   UNL     1       4.602  27.491  51.949  1.00  0.00     0.047 C 
BRANCH  24  25
HETATM   25  C   UNL     1       4.810  27.644  50.458  1.00  0.00    -0.058 A 
HETATM   26  C   UNL     1       5.362  28.834  49.959  1.00  0.00     0.007 A 
HETATM   27  C   UNL     1       5.575  29.003  48.589  1.00  0.00     0.001 A 
HETATM   28  C   UNL     1       5.247  27.982  47.700  1.00  0.00     0.000 A 
HETATM   29  C   UNL     1       4.716  26.790  48.182  1.00  0.00     0.001 A 
HETATM   30  C   UNL     1       4.510  26.616  49.553  1.00  0.00     0.007 A 
ENDBRANCH  24  25
ENDBRANCH  23  24
ENDBRANCH  20  23
ENDBRANCH  12  19
BRANCH   1  31
HETATM   31  C   UNL     1       8.631  31.190  59.809  1.00  0.00     0.045 A 
HETATM   32  C   UNL     1       9.125  30.548  60.953  1.00  0.00     0.031 A 
HETATM   33  C   UNL     1       8.844  31.033  62.235  1.00  0.00     0.009 A 
HETATM   34  C   UNL     1       8.047  32.166  62.408  1.00  0.00    -0.062 A 
HETATM   35  C   UNL     1       7.762  32.698  63.781  1.00  0.00     0.048 C 
HETATM   36  C   UNL     1       7.558  32.821  61.276  1.00  0.00     0.009 A 
HETATM   37  C   UNL     1       7.839  32.334  59.994  1.00  0.00     0.031 A 
ENDBRANCH   1  31
TORSDOF 6
ENDMDL
MODEL 4
REMARK VINA RESULT:     -10.0      7.591     10.029
REMARK  6 active torsions:
REMARK  status: ('A' for Active; 'I' for Inactive)
REMARK    1  A    between atoms: C_5  and  N_6 
REMARK    2  A    between atoms: C_17  and  C_29 
REMARK    3  A    between atoms: C_17  and  N_18 
REMARK       I    between atoms: N_18  and  C_19 
REMARK    4  A    between atoms: C_19  and  C_20 
REMARK    5  A    between atoms: C_20  and  C_21 
REMARK    6  A    between atoms: C_21  and  C_22 
ROOT
HETATM    1  N   UNL     1       4.422  31.089  48.813  1.00  0.00    -0.248 N 
HETATM    2  C   UNL     1       3.568  31.576  49.833  1.00  0.00     0.335 A 
HETATM    3  O   UNL     1       3.459  32.744  50.205  1.00  0.00    -0.246 OA
HETATM    4  N   UNL     1       2.737  30.643  50.421  1.00  0.00    -0.274 N 
HETATM    5  C   UNL     1       2.585  29.335  50.066  1.00  0.00     0.262 A 
HETATM    6  O   UNL     1       1.758  28.586  50.564  1.00  0.00    -0.267 OA
HETATM    7  C   UNL     1       3.507  28.886  49.047  1.00  0.00     0.101 A 
HETATM    8  C   UNL     1       4.364  29.745  48.494  1.00  0.00     0.134 A 
HETATM    9  N   UNL     1       5.178  29.055  47.648  1.00  0.00    -0.309 N 
HETATM   10  C   UNL     1       4.877  27.696  47.635  1.00  0.00     0.266 A 
HETATM   11  O   UNL     1       5.509  26.850  47.022  1.00  0.00    -0.270 OA
HETATM   12  C   UNL     1       3.644  27.487  48.533  1.00  0.00     0.249 A 
HETATM   13  H   UNL     1       2.106  31.006  51.121  1.00  0.00     0.173 HD
HETATM   14  H   UNL     1       6.009  29.424  47.205  1.00  0.00     0.170 HD
ENDROOT
BRANCH  12  15
HETATM   15  C   UNL     1       2.512  27.117  47.566  1.00  0.00     0.426 C 
HETATM   16  F   UNL     1       2.224  28.119  46.700  1.00  0.00    -0.167 F 
HETATM   17  F   UNL     1       2.798  26.016  46.835  1.00  0.00    -0.167 F 
HETATM   18  F   UNL     1       1.367  26.842  48.238  1.00  0.00    -0.167 F 
ENDBRANCH  12  15
BRANCH  12  19
HETATM   19  N   UNL     1       3.844  26.503  49.618  1.00  0.00    -0.332 N 
HETATM   20  C   UNL     1       4.882  26.587  50.508  1.00  0.00     0.219 C 
HETATM   21  O   UNL     1       5.757  27.446  50.404  1.00  0.00    -0.274 OA
HETATM   22  H   UNL     1       2.990  26.069  49.957  1.00  0.00     0.164 HD
BRANCH  20  23
HETATM   23  C   UNL     1       4.872  25.628  51.686  1.00  0.00     0.107 C 
BRANCH  23  24
HETATM   24  C   UNL     1       5.855  25.917  52.823  1.00  0.00     0.047 C 
BRANCH  24  25
HETATM   25  C   UNL     1       6.592  24.724  53.394  1.00  0.00    -0.058 A 
HETATM   26  C   UNL     1       7.394  23.942  52.548  1.00  0.00     0.007 A 
HETATM   27  C   UNL     1       8.094  22.841  53.045  1.00  0.00     0.001 A 
HETATM   28  C   UNL     1       8.009  22.510  54.394  1.00  0.00     0.000 A 
HETATM   29  C   UNL     1       7.234  23.288  55.249  1.00  0.00     0.001 A 
HETATM   30  C   UNL     1       6.539  24.395  54.756  1.00  0.00     0.007 A 
ENDBRANCH  24  25
ENDBRANCH  23  24
ENDBRANCH  20  23
ENDBRANCH  12  19
BRANCH   1  31
HETATM   31  C   UNL     1       5.263  32.029  48.114  1.00  0.00     0.045 A 
HETATM   32  C   UNL     1       4.986  32.408  46.792  1.00  0.00     0.031 A 
HETATM   33  C   UNL     1       5.809  33.310  46.109  1.00  0.00     0.009 A 
HETATM   34  C   UNL     1       6.943  33.845  46.725  1.00  0.00    -0.062 A 
HETATM   35  C   UNL     1       7.815  34.827  45.999  1.00  0.00     0.048 C 
HETATM   36  C   UNL     1       7.224  33.484  48.044  1.00  0.00     0.009 A 
HETATM   37  C   UNL     1       6.399  32.581  48.726  1.00  0.00     0.031 A 
ENDBRANCH   1  31
TORSDOF 6
ENDMDL
MODEL 5
REMARK VINA RESULT:      -9.6      2.269      8.657
REMARK  6 active torsions:
REMARK  status: ('A' for Active; 'I' for Inactive)
REMARK    1  A    between atoms: C_5  and  N_6 
REMARK    2  A    between atoms: C_17  and  C_29 
REMARK    3  A    between atoms: C_17  and  N_18 
REMARK       I    between atoms: N_18  and  C_19 
REMARK    4  A    between atoms: C_19  and  C_20 
REMARK    5  A    between atoms: C_20  and  C_21 
REMARK    6  A    between atoms: C_21  and  C_22 
ROOT
HETATM    1  N   UNL     1       4.928  28.643  53.009  1.00  0.00    -0.248 N 
HETATM    2  C   UNL     1       4.007  29.606  53.489  1.00  0.00     0.335 A 
HETATM    3  O   UNL     1       3.283  30.333  52.810  1.00  0.00    -0.246 OA
HETATM    4  N   UNL     1       3.878  29.686  54.862  1.00  0.00    -0.274 N 
HETATM    5  C   UNL     1       4.466  28.882  55.793  1.00  0.00     0.262 A 
HETATM    6  O   UNL     1       4.231  28.942  56.991  1.00  0.00    -0.267 OA
HETATM    7  C   UNL     1       5.422  27.944  55.248  1.00  0.00     0.101 A 
HETATM    8  C   UNL     1       5.616  27.876  53.931  1.00  0.00     0.134 A 
HETATM    9  N   UNL     1       6.627  26.996  53.691  1.00  0.00    -0.309 N 
HETATM   10  C   UNL     1       7.140  26.464  54.871  1.00  0.00     0.266 A 
HETATM   11  O   UNL     1       8.102  25.715  54.935  1.00  0.00    -0.270 OA
HETATM   12  C   UNL     1       6.291  27.011  56.033  1.00  0.00     0.249 A 
HETATM   13  H   UNL     1       3.192  30.349  55.194  1.00  0.00     0.173 HD
HETATM   14  H   UNL     1       7.082  26.856  52.799  1.00  0.00     0.170 HD
ENDROOT
BRANCH  12  15
HETATM   15  C   UNL     1       5.508  25.798  56.551  1.00  0.00     0.426 C 
HETATM   16  F   UNL     1       4.425  26.155  57.283  1.00  0.00    -0.167 F 
HETATM   17  F   UNL     1       5.078  24.996  55.550  1.00  0.00    -0.167 F 
HETATM   18  F   UNL     1       6.282  25.025  57.353  1.00  0.00    -0.167 F 
ENDBRANCH  12  15
BRANCH  12  19
HETATM   19  N   UNL     1       7.069  27.708  57.078  1.00  0.00    -0.332 N 
HETATM   20  C   UNL     1       7.967  28.701  56.790  1.00  0.00     0.219 C 
HETATM   21  O   UNL     1       8.237  29.015  55.632  1.00  0.00    -0.274 OA
HETATM   22  H   UNL     1       6.608  27.761  57.982  1.00  0.00     0.164 HD
BRANCH  20  23
HETATM   23  C   UNL     1       8.562  29.465  57.960  1.00  0.00     0.107 C 
BRANCH  23  24
HETATM   24  C   UNL     1       7.830  30.734  58.404  1.00  0.00     0.047 C 
BRANCH  24  25
HETATM   25  C   UNL     1       8.089  31.200  59.821  1.00  0.00    -0.058 A 
HETATM   26  C   UNL     1       7.307  32.234  60.360  1.00  0.00     0.007 A 
HETATM   27  C   UNL     1       7.515  32.679  61.667  1.00  0.00     0.001 A 
HETATM   28  C   UNL     1       8.501  32.093  62.456  1.00  0.00     0.000 A 
HETATM   29  C   UNL     1       9.270  31.054  61.942  1.00  0.00     0.001 A 
HETATM   30  C   UNL     1       9.058  30.600  60.638  1.00  0.00     0.007 A 
ENDBRANCH  24  25
ENDBRANCH  23  24
ENDBRANCH  20  23
ENDBRANCH  12  19
BRANCH   1  31
HETATM   31  C   UNL     1       5.056  28.465  51.584  1.00  0.00     0.045 A 
HETATM   32  C   UNL     1       5.613  29.464  50.774  1.00  0.00     0.031 A 
HETATM   33  C   UNL     1       5.725  29.297  49.389  1.00  0.00     0.009 A 
HETATM   34  C   UNL     1       5.267  28.130  48.775  1.00  0.00    -0.062 A 
HETATM   35  C   UNL     1       5.405  27.942  47.293  1.00  0.00     0.048 C 
HETATM   36  C   UNL     1       4.720  27.122  49.571  1.00  0.00     0.009 A 
HETATM   37  C   UNL     1       4.608  27.291  50.957  1.00  0.00     0.031 A 
ENDBRANCH   1  31
TORSDOF 6
ENDMDL
MODEL 6
REMARK VINA RESULT:      -9.4      6.826     10.019
REMARK  6 active torsions:
REMARK  status: ('A' for Active; 'I' for Inactive)
REMARK    1  A    between atoms: C_5  and  N_6 
REMARK    2  A    between atoms: C_17  and  C_29 
REMARK    3  A    between atoms: C_17  and  N_18 
REMARK       I    between atoms: N_18  and  C_19 
REMARK    4  A    between atoms: C_19  and  C_20 
REMARK    5  A    between atoms: C_20  and  C_21 
REMARK    6  A    between atoms: C_21  and  C_22 
ROOT
HETATM    1  N   UNL     1       4.558  27.294  51.806  1.00  0.00    -0.248 N 
HETATM    2  C   UNL     1       3.669  27.987  52.664  1.00  0.00     0.335 A 
HETATM    3  O   UNL     1       3.607  27.892  53.889  1.00  0.00    -0.246 OA
HETATM    4  N   UNL     1       2.831  28.901  52.055  1.00  0.00    -0.274 N 
HETATM    5  C   UNL     1       2.832  29.272  50.743  1.00  0.00     0.262 A 
HETATM    6  O   UNL     1       2.130  30.163  50.287  1.00  0.00    -0.267 OA
HETATM    7  C   UNL     1       3.733  28.507  49.911  1.00  0.00     0.101 A 
HETATM    8  C   UNL     1       4.518  27.576  50.453  1.00  0.00     0.134 A 
HETATM    9  N   UNL     1       5.186  26.941  49.451  1.00  0.00    -0.309 N 
HETATM   10  C   UNL     1       4.838  27.441  48.199  1.00  0.00     0.266 A 
HETATM   11  O   UNL     1       5.234  26.990  47.136  1.00  0.00    -0.270 OA
HETATM   12  C   UNL     1       3.873  28.620  48.424  1.00  0.00     0.249 A 
HETATM   13  H   UNL     1       2.227  29.416  52.679  1.00  0.00     0.173 HD
HETATM   14  H   UNL     1       5.737  26.100  49.557  1.00  0.00     0.170 HD
ENDROOT
BRANCH  12  15
HETATM   15  C   UNL     1       4.673  29.864  48.016  1.00  0.00     0.426 C 
HETATM   16  F   UNL     1       3.950  31.005  48.134  1.00  0.00    -0.167 F 
HETATM   17  F   UNL     1       5.798  30.017  48.750  1.00  0.00    -0.167 F 
HETATM   18  F   UNL     1       5.069  29.786  46.722  1.00  0.00    -0.167 F 
ENDBRANCH  12  15
BRANCH  12  19
HETATM   19  N   UNL     1       2.580  28.488  47.722  1.00  0.00    -0.332 N 
HETATM   20  C   UNL     1       1.872  27.315  47.694  1.00  0.00     0.219 C 
HETATM   21  O   UNL     1       2.316  26.278  48.186  1.00  0.00    -0.274 OA
HETATM   22  H   UNL     1       2.038  29.346  47.671  1.00  0.00     0.164 HD
BRANCH  20  23
HETATM   23  C   UNL     1       0.474  27.357  47.102  1.00  0.00     0.107 C 
BRANCH  23  24
HETATM   24  C   UNL     1       0.213  28.403  46.015  1.00  0.00     0.047 C 
BRANCH  24  25
HETATM   25  C   UNL     1      -0.783  29.491  46.354  1.00  0.00    -0.058 A 
HETATM   26  C   UNL     1      -2.124  29.342  45.965  1.00  0.00     0.007 A 
HETATM   27  C   UNL     1      -3.069  30.323  46.271  1.00  0.00     0.001 A 
HETATM   28  C   UNL     1      -2.690  31.462  46.976  1.00  0.00     0.000 A 
HETATM   29  C   UNL     1      -1.369  31.614  47.385  1.00  0.00     0.001 A 
HETATM   30  C   UNL     1      -0.423  30.630  47.087  1.00  0.00     0.007 A 
ENDBRANCH  24  25
ENDBRANCH  23  24
ENDBRANCH  20  23
ENDBRANCH  12  19
BRANCH   1  31
HETATM   31  C   UNL     1       5.505  26.378  52.392  1.00  0.00     0.045 A 
HETATM   32  C   UNL     1       5.205  25.015  52.533  1.00  0.00     0.031 A 
HETATM   33  C   UNL     1       6.119  24.128  53.113  1.00  0.00     0.009 A 
HETATM   34  C   UNL     1       7.351  24.584  53.584  1.00  0.00    -0.062 A 
HETATM   35  C   UNL     1       8.339  23.630  54.188  1.00  0.00     0.048 C 
HETATM   36  C   UNL     1       7.666  25.937  53.440  1.00  0.00     0.009 A 
HETATM   37  C   UNL     1       6.751  26.824  52.860  1.00  0.00     0.031 A 
ENDBRANCH   1  31
TORSDOF 6
ENDMDL
MODEL 7
REMARK VINA RESULT:      -8.7      5.618      8.746
REMARK  6 active torsions:
REMARK  status: ('A' for Active; 'I' for Inactive)
REMARK    1  A    between atoms: C_5  and  N_6 
REMARK    2  A    between atoms: C_17  and  C_29 
REMARK    3  A    between atoms: C_17  and  N_18 
REMARK       I    between atoms: N_18  and  C_19 
REMARK    4  A    between atoms: C_19  and  C_20 
REMARK    5  A    between atoms: C_20  and  C_21 
REMARK    6  A    between atoms: C_21  and  C_22 
ROOT
HETATM    1  N   UNL     1       5.459  27.398  52.085  1.00  0.00    -0.248 N 
HETATM    2  C   UNL     1       5.813  26.296  51.268  1.00  0.00     0.335 A 
HETATM    3  O   UNL     1       6.543  25.356  51.578  1.00  0.00    -0.246 OA
HETATM    4  N   UNL     1       5.225  26.258  50.019  1.00  0.00    -0.274 N 
HETATM    5  C   UNL     1       4.278  27.108  49.528  1.00  0.00     0.262 A 
HETATM    6  O   UNL     1       3.724  26.959  48.448  1.00  0.00    -0.267 OA
HETATM    7  C   UNL     1       3.985  28.231  50.389  1.00  0.00     0.101 A 
HETATM    8  C   UNL     1       4.575  28.333  51.579  1.00  0.00     0.134 A 
HETATM    9  N   UNL     1       4.208  29.518  52.140  1.00  0.00    -0.309 N 
HETATM   10  C   UNL     1       3.360  30.244  51.308  1.00  0.00     0.266 A 
HETATM   11  O   UNL     1       2.954  31.371  51.541  1.00  0.00    -0.270 OA
HETATM   12  C   UNL     1       3.071  29.373  50.071  1.00  0.00     0.249 A 
HETATM   13  H   UNL     1       5.454  25.450  49.457  1.00  0.00     0.173 HD
HETATM   14  H   UNL     1       4.615  29.923  52.973  1.00  0.00     0.170 HD
ENDROOT
BRANCH  12  15
HETATM   15  C   UNL     1       1.594  28.981  50.205  1.00  0.00     0.426 C 
HETATM   16  F   UNL     1       0.760  30.032  50.017  1.00  0.00    -0.167 F 
HETATM   17  F   UNL     1       1.236  28.015  49.328  1.00  0.00    -0.167 F 
HETATM   18  F   UNL     1       1.330  28.490  51.441  1.00  0.00    -0.167 F 
ENDBRANCH  12  15
BRANCH  12  19
HETATM   19  N   UNL     1       3.400  30.020  48.783  1.00  0.00    -0.332 N 
HETATM   20  C   UNL     1       4.625  30.579  48.531  1.00  0.00     0.219 C 
HETATM   21  O   UNL     1       5.497  30.647  49.395  1.00  0.00    -0.274 OA
HETATM   22  H   UNL     1       2.898  29.646  47.983  1.00  0.00     0.164 HD
BRANCH  20  23
HETATM   23  C   UNL     1       4.901  31.044  47.111  1.00  0.00     0.107 C 
BRANCH  23  24
HETATM   24  C   UNL     1       4.765  32.544  46.834  1.00  0.00     0.047 C 
BRANCH  24  25
HETATM   25  C   UNL     1       6.045  33.351  46.861  1.00  0.00    -0.058 A 
HETATM   26  C   UNL     1       6.552  33.795  48.092  1.00  0.00     0.007 A 
HETATM   27  C   UNL     1       7.736  34.534  48.151  1.00  0.00     0.001 A 
HETATM   28  C   UNL     1       8.432  34.832  46.983  1.00  0.00     0.000 A 
HETATM   29  C   UNL     1       7.952  34.382  45.758  1.00  0.00     0.001 A 
HETATM   30  C   UNL     1       6.773  33.635  45.697  1.00  0.00     0.007 A 
ENDBRANCH  24  25
ENDBRANCH  23  24
ENDBRANCH  20  23
ENDBRANCH  12  19
BRANCH   1  31
HETATM   31  C   UNL     1       5.987  27.457  53.426  1.00  0.00     0.045 A 
HETATM   32  C   UNL     1       7.221  28.065  53.695  1.00  0.00     0.031 A 
HETATM   33  C   UNL     1       7.740  28.110  54.994  1.00  0.00     0.009 A 
HETATM   34  C   UNL     1       7.043  27.533  56.058  1.00  0.00    -0.062 A 
HETATM   35  C   UNL     1       7.589  27.599  57.454  1.00  0.00     0.048 C 
HETATM   36  C   UNL     1       5.807  26.934  55.805  1.00  0.00     0.009 A 
HETATM   37  C   UNL     1       5.290  26.889  54.505  1.00  0.00     0.031 A 
ENDBRANCH   1  31
TORSDOF 6
ENDMDL
MODEL 8
REMARK VINA RESULT:      -8.6      6.327      8.978
REMARK  6 active torsions:
REMARK  status: ('A' for Active; 'I' for Inactive)
REMARK    1  A    between atoms: C_5  and  N_6 
REMARK    2  A    between atoms: C_17  and  C_29 
REMARK    3  A    between atoms: C_17  and  N_18 
REMARK       I    between atoms: N_18  and  C_19 
REMARK    4  A    between atoms: C_19  and  C_20 
REMARK    5  A    between atoms: C_20  and  C_21 
REMARK    6  A    between atoms: C_21  and  C_22 
ROOT
HETATM    1  N   UNL     1       6.063  26.915  52.192  1.00  0.00    -0.248 N 
HETATM    2  C   UNL     1       6.455  28.118  52.830  1.00  0.00     0.335 A 
HETATM    3  O   UNL     1       7.138  28.221  53.848  1.00  0.00    -0.246 OA
HETATM    4  N   UNL     1       6.072  29.287  52.202  1.00  0.00    -0.274 N 
HETATM    5  C   UNL     1       5.444  29.407  50.997  1.00  0.00     0.262 A 
HETATM    6  O   UNL     1       5.222  30.477  50.449  1.00  0.00    -0.267 OA
HETATM    7  C   UNL     1       5.037  28.150  50.412  1.00  0.00     0.101 A 
HETATM    8  C   UNL     1       5.339  27.001  51.017  1.00  0.00     0.134 A 
HETATM    9  N   UNL     1       4.759  25.984  50.321  1.00  0.00    -0.309 N 
HETATM   10  C   UNL     1       4.037  26.452  49.227  1.00  0.00     0.266 A 
HETATM   11  O   UNL     1       3.360  25.752  48.490  1.00  0.00    -0.270 OA
HETATM   12  C   UNL     1       4.244  27.976  49.154  1.00  0.00     0.249 A 
HETATM   13  H   UNL     1       6.387  30.138  52.644  1.00  0.00     0.173 HD
HETATM   14  H   UNL     1       4.700  25.023  50.630  1.00  0.00     0.170 HD
ENDROOT
BRANCH  12  15
HETATM   15  C   UNL     1       5.101  28.196  47.901  1.00  0.00     0.426 C 
HETATM   16  F   UNL     1       6.358  28.606  48.199  1.00  0.00    -0.167 F 
HETATM   17  F   UNL     1       5.206  27.079  47.146  1.00  0.00    -0.167 F 
HETATM   18  F   UNL     1       4.559  29.148  47.101  1.00  0.00    -0.167 F 
ENDBRANCH  12  15
BRANCH  12  19
HETATM   19  N   UNL     1       2.991  28.759  49.162  1.00  0.00    -0.332 N 
HETATM   20  C   UNL     1       2.206  28.884  50.278  1.00  0.00     0.219 C 
HETATM   21  O   UNL     1       2.460  28.281  51.320  1.00  0.00    -0.274 OA
HETATM   22  H   UNL     1       2.975  29.536  48.507  1.00  0.00     0.164 HD
BRANCH  20  23
HETATM   23  C   UNL     1       1.048  29.864  50.212  1.00  0.00     0.107 C 
BRANCH  23  24
HETATM   24  C   UNL     1       1.250  31.119  49.357  1.00  0.00     0.047 C 
BRANCH  24  25
HETATM   25  C   UNL     1       2.219  32.150  49.895  1.00  0.00    -0.058 A 
HETATM   26  C   UNL     1       3.014  32.881  48.998  1.00  0.00     0.007 A 
HETATM   27  C   UNL     1       3.910  33.846  49.462  1.00  0.00     0.001 A 
HETATM   28  C   UNL     1       4.019  34.100  50.827  1.00  0.00     0.000 A 
HETATM   29  C   UNL     1       3.223  33.397  51.726  1.00  0.00     0.001 A 
HETATM   30  C   UNL     1       2.319  32.437  51.264  1.00  0.00     0.007 A 
ENDBRANCH  24  25
ENDBRANCH  23  24
ENDBRANCH  20  23
ENDBRANCH  12  19
BRANCH   1  31
HETATM   31  C   UNL     1       6.492  25.662  52.763  1.00  0.00     0.045 A 
HETATM   32  C   UNL     1       5.928  25.173  53.950  1.00  0.00     0.031 A 
HETATM   33  C   UNL     1       6.354  23.964  54.511  1.00  0.00     0.009 A 
HETATM   34  C   UNL     1       7.369  23.219  53.908  1.00  0.00    -0.062 A 
HETATM   35  C   UNL     1       7.812  21.913  54.498  1.00  0.00     0.048 C 
HETATM   36  C   UNL     1       7.932  23.690  52.720  1.00  0.00     0.009 A 
HETATM   37  C   UNL     1       7.505  24.900  52.160  1.00  0.00     0.031 A 
ENDBRANCH   1  31
TORSDOF 6
ENDMDL
MODEL 9
REMARK VINA RESULT:      -8.5     17.467     20.327
REMARK  6 active torsions:
REMARK  status: ('A' for Active; 'I' for Inactive)
REMARK    1  A    between atoms: C_5  and  N_6 
REMARK    2  A    between atoms: C_17  and  C_29 
REMARK    3  A    between atoms: C_17  and  N_18 
REMARK       I    between atoms: N_18  and  C_19 
REMARK    4  A    between atoms: C_19  and  C_20 
REMARK    5  A    between atoms: C_20  and  C_21 
REMARK    6  A    between atoms: C_21  and  C_22 
ROOT
HETATM    1  N   UNL     1       8.623  10.612  54.777  1.00  0.00    -0.248 N 
HETATM    2  C   UNL     1       8.360  11.923  54.308  1.00  0.00     0.335 A 
HETATM    3  O   UNL     1       7.258  12.462  54.214  1.00  0.00    -0.246 OA
HETATM    4  N   UNL     1       9.467  12.681  53.980  1.00  0.00    -0.274 N 
HETATM    5  C   UNL     1      10.777  12.340  54.147  1.00  0.00     0.262 A 
HETATM    6  O   UNL     1      11.711  13.098  53.929  1.00  0.00    -0.267 OA
HETATM    7  C   UNL     1      10.985  10.981  54.592  1.00  0.00     0.101 A 
HETATM    8  C   UNL     1       9.940  10.199  54.865  1.00  0.00     0.134 A 
HETATM    9  N   UNL     1      10.402   8.953  55.163  1.00  0.00    -0.309 N 
HETATM   10  C   UNL     1      11.790   8.882  55.079  1.00  0.00     0.266 A 
HETATM   11  O   UNL     1      12.444   7.861  55.220  1.00  0.00    -0.270 OA
HETATM   12  C   UNL     1      12.307  10.298  54.763  1.00  0.00     0.249 A 
HETATM   13  H   UNL     1       9.272  13.625  53.682  1.00  0.00     0.173 HD
HETATM   14  H   UNL     1       9.830   8.126  55.268  1.00  0.00     0.170 HD
ENDROOT
BRANCH  12  15
HETATM   15  C   UNL     1      13.023  10.748  56.043  1.00  0.00     0.426 C 
HETATM   16  F   UNL     1      12.177  10.873  57.094  1.00  0.00    -0.167 F 
HETATM   17  F   UNL     1      14.006   9.895  56.410  1.00  0.00    -0.167 F 
HETATM   18  F   UNL     1      13.613  11.958  55.871  1.00  0.00    -0.167 F 
ENDBRANCH  12  15
BRANCH  12  19
HETATM   19  N   UNL     1      13.147  10.382  53.551  1.00  0.00    -0.332 N 
HETATM   20  C   UNL     1      12.747   9.879  52.341  1.00  0.00     0.219 C 
HETATM   21  O   UNL     1      11.695   9.254  52.213  1.00  0.00    -0.274 OA
HETATM   22  H   UNL     1      13.773  11.182  53.525  1.00  0.00     0.164 HD
BRANCH  20  23
HETATM   23  C   UNL     1      13.614  10.191  51.134  1.00  0.00     0.107 C 
BRANCH  23  24
HETATM   24  C   UNL     1      14.995  10.795  51.410  1.00  0.00     0.047 C 
BRANCH  24  25
HETATM   25  C   UNL     1      16.184   9.886  51.181  1.00  0.00    -0.058 A 
HETATM   26  C   UNL     1      16.883   9.961  49.967  1.00  0.00     0.007 A 
HETATM   27  C   UNL     1      17.990   9.142  49.728  1.00  0.00     0.001 A 
HETATM   28  C   UNL     1      18.417   8.245  50.703  1.00  0.00     0.000 A 
HETATM   29  C   UNL     1      17.745   8.174  51.920  1.00  0.00     0.001 A 
HETATM   30  C   UNL     1      16.643   8.997  52.163  1.00  0.00     0.007 A 
ENDBRANCH  24  25
ENDBRANCH  23  24
ENDBRANCH  20  23
ENDBRANCH  12  19
BRANCH   1  31
HETATM   31  C   UNL     1       7.512   9.797  55.200  1.00  0.00     0.045 A 
HETATM   32  C   UNL     1       6.817   8.987  54.290  1.00  0.00     0.031 A 
HETATM   33  C   UNL     1       5.730   8.206  54.698  1.00  0.00     0.009 A 
HETATM   34  C   UNL     1       5.298   8.227  56.025  1.00  0.00    -0.062 A 
HETATM   35  C   UNL     1       4.145   7.374  56.467  1.00  0.00     0.048 C 
HETATM   36  C   UNL     1       5.988   9.021  56.944  1.00  0.00     0.009 A 
HETATM   37  C   UNL     1       7.075   9.802  56.534  1.00  0.00     0.031 A 
ENDBRANCH   1  31
TORSDOF 6
ENDMDL
MODEL 10
REMARK VINA RESULT:      -8.4      6.248      9.724
REMARK  6 active torsions:
REMARK  status: ('A' for Active; 'I' for Inactive)
REMARK    1  A    between atoms: C_5  and  N_6 
REMARK    2  A    between atoms: C_17  and  C_29 
REMARK    3  A    between atoms: C_17  and  N_18 
REMARK       I    between atoms: N_18  and  C_19 
REMARK    4  A    between atoms: C_19  and  C_20 
REMARK    5  A    between atoms: C_20  and  C_21 
REMARK    6  A    between atoms: C_21  and  C_22 
ROOT
HETATM    1  N   UNL     1       5.979  26.982  52.263  1.00  0.00    -0.248 N 
HETATM    2  C   UNL     1       6.094  28.184  53.004  1.00  0.00     0.335 A 
HETATM    3  O   UNL     1       6.617  28.319  54.109  1.00  0.00    -0.246 OA
HETATM    4  N   UNL     1       5.616  29.322  52.385  1.00  0.00    -0.274 N 
HETATM    5  C   UNL     1       5.136  29.428  51.113  1.00  0.00     0.262 A 
HETATM    6  O   UNL     1       4.821  30.488  50.590  1.00  0.00    -0.267 OA
HETATM    7  C   UNL     1       5.008  28.166  50.420  1.00  0.00     0.101 A 
HETATM    8  C   UNL     1       5.406  27.038  51.006  1.00  0.00     0.134 A 
HETATM    9  N   UNL     1       5.087  25.995  50.191  1.00  0.00    -0.309 N 
HETATM   10  C   UNL     1       4.446  26.422  49.031  1.00  0.00     0.266 A 
HETATM   11  O   UNL     1       3.986  25.680  48.177  1.00  0.00    -0.270 OA
HETATM   12  C   UNL     1       4.419  27.961  49.058  1.00  0.00     0.249 A 
HETATM   13  H   UNL     1       5.735  30.180  52.904  1.00  0.00     0.173 HD
HETATM   14  H   UNL     1       5.140  25.017  50.444  1.00  0.00     0.170 HD
ENDROOT
BRANCH  12  15
HETATM   15  C   UNL     1       5.384  28.390  47.945  1.00  0.00     0.426 C 
HETATM   16  F   UNL     1       5.509  27.448  46.978  1.00  0.00    -0.167 F 
HETATM   17  F   UNL     1       5.001  29.540  47.346  1.00  0.00    -0.167 F 
HETATM   18  F   UNL     1       6.628  28.611  48.437  1.00  0.00    -0.167 F 
ENDBRANCH  12  15
BRANCH  12  19
HETATM   19  N   UNL     1       3.068  28.547  48.932  1.00  0.00    -0.332 N 
HETATM   20  C   UNL     1       2.279  28.350  47.830  1.00  0.00     0.219 C 
HETATM   21  O   UNL     1       2.684  27.738  46.843  1.00  0.00    -0.274 OA
HETATM   22  H   UNL     1       2.587  28.691  49.816  1.00  0.00     0.164 HD
BRANCH  20  23
HETATM   23  C   UNL     1       0.845  28.846  47.900  1.00  0.00     0.107 C 
BRANCH  23  24
HETATM   24  C   UNL     1      -0.106  28.376  46.796  1.00  0.00     0.047 C 
BRANCH  24  25
HETATM   25  C   UNL     1      -0.836  29.459  46.031  1.00  0.00    -0.058 A 
HETATM   26  C   UNL     1      -2.240  29.487  46.049  1.00  0.00     0.007 A 
HETATM   27  C   UNL     1      -2.943  30.478  45.362  1.00  0.00     0.001 A 
HETATM   28  C   UNL     1      -2.254  31.460  44.655  1.00  0.00     0.000 A 
HETATM   29  C   UNL     1      -0.863  31.457  44.644  1.00  0.00     0.001 A 
HETATM   30  C   UNL     1      -0.157  30.471  45.338  1.00  0.00     0.007 A 
ENDBRANCH  24  25
ENDBRANCH  23  24
ENDBRANCH  20  23
ENDBRANCH  12  19
BRANCH   1  31
HETATM   31  C   UNL     1       6.523  25.772  52.828  1.00  0.00     0.045 A 
HETATM   32  C   UNL     1       7.632  25.136  52.252  1.00  0.00     0.031 A 
HETATM   33  C   UNL     1       8.152  23.954  52.792  1.00  0.00     0.009 A 
HETATM   34  C   UNL     1       7.566  23.368  53.915  1.00  0.00    -0.062 A 
HETATM   35  C   UNL     1       8.135  22.112  54.507  1.00  0.00     0.048 C 
HETATM   36  C   UNL     1       6.467  23.997  54.505  1.00  0.00     0.009 A 
HETATM   37  C   UNL     1       5.948  25.179  53.963  1.00  0.00     0.031 A 
ENDBRANCH   1  31
TORSDOF 6
ENDMDL
