MODEL 1
REMARK VINA RESULT:     -10.9      0.000      0.000
REMARK  6 active torsions:
REMARK  status: ('A' for Active; 'I' for Inactive)
REMARK    1  A    between atoms: C_3  and  C_4 
REMARK       I    between atoms: C_4  and  N_5 
REMARK    2  A    between atoms: N_5  and  C_6 
REMARK    3  A    between atoms: C_6  and  C_7 
REMARK    4  A    between atoms: C_7  and  C_8 
REMARK    5  A    between atoms: C_19  and  O_20 
REMARK    6  A    between atoms: C_29  and  O_30 
ROOT
HETATM    1  C   UNL     1       7.745  30.092  57.589  1.00  0.00     0.158 A 
HETATM    2  N   UNL     1       9.070  30.214  57.741  1.00  0.00    -0.111 NA
HETATM    3  O   UNL     1       9.195  30.790  59.005  1.00  0.00    -0.189 OA
HETATM    4  C   UNL     1       7.927  30.947  59.499  1.00  0.00     0.223 A 
HETATM    5  C   UNL     1       7.630  31.509  60.774  1.00  0.00     0.089 A 
HETATM    6  N   UNL     1       6.341  31.662  61.217  1.00  0.00    -0.352 N 
HETATM    7  H   UNL     1       5.521  31.395  60.687  1.00  0.00     0.166 HD
HETATM    8  C   UNL     1       6.327  32.226  62.471  1.00  0.00     0.045 A 
HETATM    9  C   UNL     1       7.654  32.442  62.837  1.00  0.00    -0.007 A 
HETATM   10  C   UNL     1       8.466  31.987  61.762  1.00  0.00     0.048 A 
HETATM   11  C   UNL     1       5.252  32.561  63.303  1.00  0.00     0.067 A 
HETATM   12  C   UNL     1       5.532  33.136  64.549  1.00  0.00     0.070 A 
HETATM   13  C   UNL     1       6.854  33.364  64.937  1.00  0.00     0.038 A 
HETATM   14  C   UNL     1       7.921  33.021  64.092  1.00  0.00     0.016 A 
HETATM   15  N   UNL     1       7.003  30.516  58.663  1.00  0.00    -0.203 NA
ENDROOT
BRANCH   1  16
HETATM   16  C   UNL     1       7.152  29.495  56.366  1.00  0.00     0.103 C 
BRANCH  16  17
HETATM   17  C   UNL     1       6.455  28.158  56.627  1.00  0.00     0.133 C 
BRANCH  17  18
HETATM   18  N   UNL     1       6.948  27.090  55.752  1.00  0.00    -0.352 N 
HETATM   19  C   UNL     1       6.546  25.783  56.024  1.00  0.00     0.254 C 
HETATM   20  O   UNL     1       5.717  25.500  56.886  1.00  0.00    -0.267 OA
HETATM   21  C   UNL     1       7.737  27.494  54.595  1.00  0.00     0.152 C 
BRANCH  19  22
HETATM   22  C   UNL     1       7.157  24.676  55.250  1.00  0.00     0.038 A 
HETATM   23  C   UNL     1       6.609  24.255  54.026  1.00  0.00    -0.044 A 
HETATM   24  C   UNL     1       5.371  24.892  53.456  1.00  0.00     0.049 C 
HETATM   25  C   UNL     1       7.225  23.192  53.340  1.00  0.00     0.044 A 
HETATM   26  C   UNL     1       8.363  22.566  53.859  1.00  0.00     0.068 A 
HETATM   27  C   UNL     1       8.877  22.984  55.088  1.00  0.00     0.038 A 
HETATM   28  C   UNL     1       8.276  24.030  55.789  1.00  0.00     0.020 A 
BRANCH  26  29
HETATM   29  O   UNL     1       9.052  21.539  53.276  1.00  0.00    -0.356 OA
HETATM   30  C   UNL     1       8.341  20.329  53.054  1.00  0.00     0.210 C 
ENDBRANCH  26  29
ENDBRANCH  19  22
ENDBRANCH  17  18
ENDBRANCH  16  17
ENDBRANCH   1  16
BRANCH  12  31
HETATM   31  O   UNL     1       4.420  33.430  65.293  1.00  0.00    -0.356 OA
HETATM   32  C   UNL     1       4.624  34.139  66.508  1.00  0.00     0.210 C 
ENDBRANCH  12  31
TORSDOF 6
ENDMDL
MODEL 2
REMARK VINA RESULT:      -9.9      2.358      3.339
REMARK  6 active torsions:
REMARK  status: ('A' for Active; 'I' for Inactive)
REMARK    1  A    between atoms: C_3  and  C_4 
REMARK       I    between atoms: C_4  and  N_5 
REMARK    2  A    between atoms: N_5  and  C_6 
REMARK    3  A    between atoms: C_6  and  C_7 
REMARK    4  A    between atoms: C_7  and  C_8 
REMARK    5  A    between atoms: C_19  and  O_20 
REMARK    6  A    between atoms: C_29  and  O_30 
ROOT
HETATM    1  C   UNL     1       8.927  29.492  57.838  1.00  0.00     0.158 A 
HETATM    2  N   UNL     1      10.182  29.917  58.029  1.00  0.00    -0.111 NA
HETATM    3  O   UNL     1      10.092  30.659  59.207  1.00  0.00    -0.189 OA
HETATM    4  C   UNL     1       8.787  30.598  59.618  1.00  0.00     0.223 A 
HETATM    5  C   UNL     1       8.288  31.237  60.790  1.00  0.00     0.089 A 
HETATM    6  N   UNL     1       6.967  31.160  61.151  1.00  0.00    -0.352 N 
HETATM    7  H   UNL     1       6.262  30.657  60.628  1.00  0.00     0.166 HD
HETATM    8  C   UNL     1       6.745  31.860  62.314  1.00  0.00     0.045 A 
HETATM    9  C   UNL     1       7.968  32.403  62.704  1.00  0.00    -0.007 A 
HETATM   10  C   UNL     1       8.933  32.005  61.738  1.00  0.00     0.048 A 
HETATM   11  C   UNL     1       5.568  32.055  63.044  1.00  0.00     0.067 A 
HETATM   12  C   UNL     1       5.630  32.829  64.211  1.00  0.00     0.070 A 
HETATM   13  C   UNL     1       6.844  33.384  64.620  1.00  0.00     0.038 A 
HETATM   14  C   UNL     1       8.017  33.178  63.878  1.00  0.00     0.016 A 
HETATM   15  N   UNL     1       8.036  29.875  58.810  1.00  0.00    -0.203 NA
ENDROOT
BRANCH   1  16
HETATM   16  C   UNL     1       8.560  28.633  56.684  1.00  0.00     0.103 C 
BRANCH  16  17
HETATM   17  C   UNL     1       7.086  28.747  56.294  1.00  0.00     0.133 C 
BRANCH  17  18
HETATM   18  N   UNL     1       6.828  28.271  54.931  1.00  0.00    -0.352 N 
HETATM   19  C   UNL     1       5.504  28.052  54.553  1.00  0.00     0.254 C 
HETATM   20  O   UNL     1       4.545  28.343  55.264  1.00  0.00    -0.267 OA
HETATM   21  C   UNL     1       7.976  28.168  54.039  1.00  0.00     0.152 C 
BRANCH  19  22
HETATM   22  C   UNL     1       5.235  27.425  53.237  1.00  0.00     0.038 A 
HETATM   23  C   UNL     1       5.265  26.029  53.077  1.00  0.00    -0.044 A 
HETATM   24  C   UNL     1       5.588  25.110  54.224  1.00  0.00     0.049 C 
HETATM   25  C   UNL     1       5.013  25.489  51.802  1.00  0.00     0.044 A 
HETATM   26  C   UNL     1       4.732  26.321  50.713  1.00  0.00     0.068 A 
HETATM   27  C   UNL     1       4.732  27.706  50.889  1.00  0.00     0.038 A 
HETATM   28  C   UNL     1       4.988  28.262  52.142  1.00  0.00     0.020 A 
BRANCH  26  29
HETATM   29  O   UNL     1       4.458  25.911  49.438  1.00  0.00    -0.356 OA
HETATM   30  C   UNL     1       3.865  26.865  48.567  1.00  0.00     0.210 C 
ENDBRANCH  26  29
ENDBRANCH  19  22
ENDBRANCH  17  18
ENDBRANCH  16  17
ENDBRANCH   1  16
BRANCH  12  31
HETATM   31  O   UNL     1       4.431  32.964  64.858  1.00  0.00    -0.356 OA
HETATM   32  C   UNL     1       4.356  33.949  65.880  1.00  0.00     0.210 C 
ENDBRANCH  12  31
TORSDOF 6
ENDMDL
MODEL 3
REMARK VINA RESULT:      -9.7      1.667     11.600
REMARK  6 active torsions:
REMARK  status: ('A' for Active; 'I' for Inactive)
REMARK    1  A    between atoms: C_3  and  C_4 
REMARK       I    between atoms: C_4  and  N_5 
REMARK    2  A    between atoms: N_5  and  C_6 
REMARK    3  A    between atoms: C_6  and  C_7 
REMARK    4  A    between atoms: C_7  and  C_8 
REMARK    5  A    between atoms: C_19  and  O_20 
REMARK    6  A    between atoms: C_29  and  O_30 
ROOT
HETATM    1  C   UNL     1       7.165  29.191  57.024  1.00  0.00     0.158 A 
HETATM    2  N   UNL     1       6.557  29.684  55.938  1.00  0.00    -0.111 NA
HETATM    3  O   UNL     1       6.559  28.606  55.053  1.00  0.00    -0.189 OA
HETATM    4  C   UNL     1       7.160  27.560  55.701  1.00  0.00     0.223 A 
HETATM    5  C   UNL     1       7.358  26.271  55.126  1.00  0.00     0.089 A 
HETATM    6  N   UNL     1       7.981  25.259  55.810  1.00  0.00    -0.352 N 
HETATM    7  H   UNL     1       8.341  25.346  56.752  1.00  0.00     0.166 HD
HETATM    8  C   UNL     1       8.047  24.124  55.036  1.00  0.00     0.045 A 
HETATM    9  C   UNL     1       7.446  24.427  53.816  1.00  0.00    -0.007 A 
HETATM   10  C   UNL     1       7.015  25.781  53.882  1.00  0.00     0.048 A 
HETATM   11  C   UNL     1       8.588  22.865  55.318  1.00  0.00     0.067 A 
HETATM   12  C   UNL     1       8.518  21.876  54.327  1.00  0.00     0.070 A 
HETATM   13  C   UNL     1       7.923  22.157  53.096  1.00  0.00     0.038 A 
HETATM   14  C   UNL     1       7.383  23.424  52.829  1.00  0.00     0.016 A 
HETATM   15  N   UNL     1       7.536  27.873  56.925  1.00  0.00    -0.203 NA
ENDROOT
BRANCH   1  16
HETATM   16  C   UNL     1       7.365  30.009  58.246  1.00  0.00     0.103 C 
BRANCH  16  17
HETATM   17  C   UNL     1       6.663  31.367  58.183  1.00  0.00     0.133 C 
BRANCH  17  18
HETATM   18  N   UNL     1       6.404  31.926  59.513  1.00  0.00    -0.352 N 
HETATM   19  C   UNL     1       7.476  32.479  60.212  1.00  0.00     0.254 C 
HETATM   20  O   UNL     1       8.595  32.620  59.724  1.00  0.00    -0.267 OA
HETATM   21  C   UNL     1       5.015  31.958  59.958  1.00  0.00     0.152 C 
BRANCH  19  22
HETATM   22  C   UNL     1       7.266  32.906  61.616  1.00  0.00     0.038 A 
HETATM   23  C   UNL     1       7.808  32.176  62.687  1.00  0.00    -0.044 A 
HETATM   24  C   UNL     1       8.609  30.922  62.462  1.00  0.00     0.049 C 
HETATM   25  C   UNL     1       7.566  32.622  64.000  1.00  0.00     0.044 A 
HETATM   26  C   UNL     1       6.806  33.771  64.239  1.00  0.00     0.068 A 
HETATM   27  C   UNL     1       6.256  34.467  63.161  1.00  0.00     0.038 A 
HETATM   28  C   UNL     1       6.476  34.037  61.852  1.00  0.00     0.020 A 
BRANCH  26  29
HETATM   29  O   UNL     1       6.520  34.305  65.465  1.00  0.00    -0.356 OA
HETATM   30  C   UNL     1       5.243  34.012  66.015  1.00  0.00     0.210 C 
ENDBRANCH  26  29
ENDBRANCH  19  22
ENDBRANCH  17  18
ENDBRANCH  16  17
ENDBRANCH   1  16
BRANCH  12  31
HETATM   31  O   UNL     1       9.073  20.678  54.692  1.00  0.00    -0.356 OA
HETATM   32  C   UNL     1       9.069  20.360  56.078  1.00  0.00     0.210 C 
ENDBRANCH  12  31
TORSDOF 6
ENDMDL
MODEL 4
REMARK VINA RESULT:      -9.5      1.465      1.980
REMARK  6 active torsions:
REMARK  status: ('A' for Active; 'I' for Inactive)
REMARK    1  A    between atoms: C_3  and  C_4 
REMARK       I    between atoms: C_4  and  N_5 
REMARK    2  A    between atoms: N_5  and  C_6 
REMARK    3  A    between atoms: C_6  and  C_7 
REMARK    4  A    between atoms: C_7  and  C_8 
REMARK    5  A    between atoms: C_19  and  O_20 
REMARK    6  A    between atoms: C_29  and  O_30 
ROOT
HETATM    1  C   UNL     1       6.223  29.956  56.738  1.00  0.00     0.158 A 
HETATM    2  N   UNL     1       7.537  29.737  56.603  1.00  0.00    -0.111 NA
HETATM    3  O   UNL     1       8.066  30.213  57.802  1.00  0.00    -0.189 OA
HETATM    4  C   UNL     1       7.012  30.663  58.552  1.00  0.00     0.223 A 
HETATM    5  C   UNL     1       7.141  31.231  59.852  1.00  0.00     0.089 A 
HETATM    6  N   UNL     1       6.055  31.684  60.557  1.00  0.00    -0.352 N 
HETATM    7  H   UNL     1       5.102  31.652  60.218  1.00  0.00     0.166 HD
HETATM    8  C   UNL     1       6.447  32.185  61.776  1.00  0.00     0.045 A 
HETATM    9  C   UNL     1       7.832  32.047  61.847  1.00  0.00    -0.007 A 
HETATM   10  C   UNL     1       8.259  31.446  60.631  1.00  0.00     0.048 A 
HETATM   11  C   UNL     1       5.692  32.745  62.812  1.00  0.00     0.067 A 
HETATM   12  C   UNL     1       6.363  33.183  63.962  1.00  0.00     0.070 A 
HETATM   13  C   UNL     1       7.750  33.057  64.055  1.00  0.00     0.038 A 
HETATM   14  C   UNL     1       8.494  32.492  63.008  1.00  0.00     0.016 A 
HETATM   15  N   UNL     1       5.854  30.510  57.939  1.00  0.00    -0.203 NA
ENDROOT
BRANCH   1  16
HETATM   16  C   UNL     1       5.255  29.575  55.680  1.00  0.00     0.103 C 
BRANCH  16  17
HETATM   17  C   UNL     1       5.912  28.881  54.485  1.00  0.00     0.133 C 
BRANCH  17  18
HETATM   18  N   UNL     1       6.086  27.441  54.700  1.00  0.00    -0.352 N 
HETATM   19  C   UNL     1       7.292  26.861  54.307  1.00  0.00     0.254 C 
HETATM   20  O   UNL     1       8.249  27.514  53.895  1.00  0.00    -0.267 OA
HETATM   21  C   UNL     1       5.021  26.745  55.411  1.00  0.00     0.152 C 
BRANCH  19  22
HETATM   22  C   UNL     1       7.426  25.386  54.371  1.00  0.00     0.038 A 
HETATM   23  C   UNL     1       7.827  24.743  55.555  1.00  0.00    -0.044 A 
HETATM   24  C   UNL     1       8.156  25.519  56.801  1.00  0.00     0.049 C 
HETATM   25  C   UNL     1       7.947  23.341  55.554  1.00  0.00     0.044 A 
HETATM   26  C   UNL     1       7.670  22.597  54.403  1.00  0.00     0.068 A 
HETATM   27  C   UNL     1       7.297  23.258  53.231  1.00  0.00     0.038 A 
HETATM   28  C   UNL     1       7.181  24.648  53.208  1.00  0.00     0.020 A 
BRANCH  26  29
HETATM   29  O   UNL     1       7.737  21.236  54.290  1.00  0.00    -0.356 OA
HETATM   30  C   UNL     1       8.066  20.710  53.011  1.00  0.00     0.210 C 
ENDBRANCH  26  29
ENDBRANCH  19  22
ENDBRANCH  17  18
ENDBRANCH  16  17
ENDBRANCH   1  16
BRANCH  12  31
HETATM   31  O   UNL     1       5.543  33.716  64.920  1.00  0.00    -0.356 OA
HETATM   32  C   UNL     1       4.204  34.001  64.538  1.00  0.00     0.210 C 
ENDBRANCH  12  31
TORSDOF 6
ENDMDL
MODEL 5
REMARK VINA RESULT:      -9.4      3.127      4.836
REMARK  6 active torsions:
REMARK  status: ('A' for Active; 'I' for Inactive)
REMARK    1  A    between atoms: C_3  and  C_4 
REMARK       I    between atoms: C_4  and  N_5 
REMARK    2  A    between atoms: N_5  and  C_6 
REMARK    3  A    between atoms: C_6  and  C_7 
REMARK    4  A    between atoms: C_7  and  C_8 
REMARK    5  A    between atoms: C_19  and  O_20 
REMARK    6  A    between atoms: C_29  and  O_30 
ROOT
HETATM    1  C   UNL     1       4.226  28.837  53.271  1.00  0.00     0.158 A 
HETATM    2  N   UNL     1       3.385  29.880  53.276  1.00  0.00    -0.111 NA
HETATM    3  O   UNL     1       3.763  30.589  54.417  1.00  0.00    -0.189 OA
HETATM    4  C   UNL     1       4.807  29.907  54.982  1.00  0.00     0.223 A 
HETATM    5  C   UNL     1       5.475  30.313  56.174  1.00  0.00     0.089 A 
HETATM    6  N   UNL     1       6.506  29.586  56.711  1.00  0.00    -0.352 N 
HETATM    7  H   UNL     1       6.865  28.726  56.315  1.00  0.00     0.166 HD
HETATM    8  C   UNL     1       6.975  30.189  57.856  1.00  0.00     0.045 A 
HETATM    9  C   UNL     1       6.211  31.338  58.053  1.00  0.00    -0.007 A 
HETATM   10  C   UNL     1       5.270  31.407  56.989  1.00  0.00     0.048 A 
HETATM   11  C   UNL     1       8.003  29.809  58.725  1.00  0.00     0.067 A 
HETATM   12  C   UNL     1       8.269  30.622  59.835  1.00  0.00     0.070 A 
HETATM   13  C   UNL     1       7.517  31.777  60.054  1.00  0.00     0.038 A 
HETATM   14  C   UNL     1       6.489  32.146  59.173  1.00  0.00     0.016 A 
HETATM   15  N   UNL     1       5.135  28.828  54.299  1.00  0.00    -0.203 NA
ENDROOT
BRANCH   1  16
HETATM   16  C   UNL     1       4.191  27.812  52.198  1.00  0.00     0.103 C 
BRANCH  16  17
HETATM   17  C   UNL     1       5.576  27.274  51.835  1.00  0.00     0.133 C 
BRANCH  17  18
HETATM   18  N   UNL     1       5.894  26.026  52.537  1.00  0.00    -0.352 N 
HETATM   19  C   UNL     1       7.131  25.930  53.174  1.00  0.00     0.254 C 
HETATM   20  O   UNL     1       7.913  26.873  53.269  1.00  0.00    -0.267 OA
HETATM   21  C   UNL     1       4.842  25.019  52.604  1.00  0.00     0.152 C 
BRANCH  19  22
HETATM   22  C   UNL     1       7.533  24.625  53.752  1.00  0.00     0.038 A 
HETATM   23  C   UNL     1       7.437  24.380  55.132  1.00  0.00    -0.044 A 
HETATM   24  C   UNL     1       6.942  25.432  56.087  1.00  0.00     0.049 C 
HETATM   25  C   UNL     1       7.843  23.126  55.626  1.00  0.00     0.044 A 
HETATM   26  C   UNL     1       8.329  22.139  54.764  1.00  0.00     0.068 A 
HETATM   27  C   UNL     1       8.439  22.412  53.399  1.00  0.00     0.038 A 
HETATM   28  C   UNL     1       8.050  23.651  52.890  1.00  0.00     0.020 A 
BRANCH  26  29
HETATM   29  O   UNL     1       8.736  20.884  55.126  1.00  0.00    -0.356 OA
HETATM   30  C   UNL     1       7.961  20.213  56.110  1.00  0.00     0.210 C 
ENDBRANCH  26  29
ENDBRANCH  19  22
ENDBRANCH  17  18
ENDBRANCH  16  17
ENDBRANCH   1  16
BRANCH  12  31
HETATM   31  O   UNL     1       9.291  30.172  60.627  1.00  0.00    -0.356 OA
HETATM   32  C   UNL     1       9.187  30.425  62.022  1.00  0.00     0.210 C 
ENDBRANCH  12  31
TORSDOF 6
ENDMDL
MODEL 6
REMARK VINA RESULT:      -9.1      2.218      3.056
REMARK  6 active torsions:
REMARK  status: ('A' for Active; 'I' for Inactive)
REMARK    1  A    between atoms: C_3  and  C_4 
REMARK       I    between atoms: C_4  and  N_5 
REMARK    2  A    between atoms: N_5  and  C_6 
REMARK    3  A    between atoms: C_6  and  C_7 
REMARK    4  A    between atoms: C_7  and  C_8 
REMARK    5  A    between atoms: C_19  and  O_20 
REMARK    6  A    between atoms: C_29  and  O_30 
ROOT
HETATM    1  C   UNL     1       4.440  30.210  56.959  1.00  0.00     0.158 A 
HETATM    2  N   UNL     1       3.352  30.847  56.508  1.00  0.00    -0.111 NA
HETATM    3  O   UNL     1       2.992  31.664  57.580  1.00  0.00    -0.189 OA
HETATM    4  C   UNL     1       3.910  31.446  58.573  1.00  0.00     0.223 A 
HETATM    5  C   UNL     1       3.885  32.096  59.841  1.00  0.00     0.089 A 
HETATM    6  N   UNL     1       4.818  31.830  60.810  1.00  0.00    -0.352 N 
HETATM    7  H   UNL     1       5.578  31.169  60.705  1.00  0.00     0.166 HD
HETATM    8  C   UNL     1       4.572  32.584  61.934  1.00  0.00     0.045 A 
HETATM    9  C   UNL     1       3.440  33.353  61.670  1.00  0.00    -0.007 A 
HETATM   10  C   UNL     1       3.016  33.038  60.350  1.00  0.00     0.048 A 
HETATM   11  C   UNL     1       5.255  32.643  63.154  1.00  0.00     0.067 A 
HETATM   12  C   UNL     1       4.774  33.512  64.142  1.00  0.00     0.070 A 
HETATM   13  C   UNL     1       3.641  34.291  63.901  1.00  0.00     0.038 A 
HETATM   14  C   UNL     1       2.968  34.222  62.672  1.00  0.00     0.016 A 
HETATM   15  N   UNL     1       4.830  30.566  58.227  1.00  0.00    -0.203 NA
ENDROOT
BRANCH   1  16
HETATM   16  C   UNL     1       5.178  29.234  56.119  1.00  0.00     0.103 C 
BRANCH  16  17
HETATM   17  C   UNL     1       5.936  28.187  56.938  1.00  0.00     0.133 C 
BRANCH  17  18
HETATM   18  N   UNL     1       6.579  27.175  56.095  1.00  0.00    -0.352 N 
HETATM   19  C   UNL     1       6.206  25.843  56.270  1.00  0.00     0.254 C 
HETATM   20  O   UNL     1       5.290  25.494  57.012  1.00  0.00    -0.267 OA
HETATM   21  C   UNL     1       7.486  27.656  55.060  1.00  0.00     0.152 C 
BRANCH  19  22
HETATM   22  C   UNL     1       6.956  24.792  55.541  1.00  0.00     0.038 A 
HETATM   23  C   UNL     1       8.121  24.223  56.081  1.00  0.00    -0.044 A 
HETATM   24  C   UNL     1       8.671  24.662  57.410  1.00  0.00     0.049 C 
HETATM   25  C   UNL     1       8.798  23.237  55.338  1.00  0.00     0.044 A 
HETATM   26  C   UNL     1       8.322  22.826  54.090  1.00  0.00     0.068 A 
HETATM   27  C   UNL     1       7.176  23.423  53.561  1.00  0.00     0.038 A 
HETATM   28  C   UNL     1       6.495  24.408  54.276  1.00  0.00     0.020 A 
BRANCH  26  29
HETATM   29  O   UNL     1       8.885  21.870  53.289  1.00  0.00    -0.356 OA
HETATM   30  C   UNL     1       8.130  20.687  53.068  1.00  0.00     0.210 C 
ENDBRANCH  26  29
ENDBRANCH  19  22
ENDBRANCH  17  18
ENDBRANCH  16  17
ENDBRANCH   1  16
BRANCH  12  31
HETATM   31  O   UNL     1       5.506  33.502  65.300  1.00  0.00    -0.356 OA
HETATM   32  C   UNL     1       6.919  33.592  65.172  1.00  0.00     0.210 C 
ENDBRANCH  12  31
TORSDOF 6
ENDMDL
MODEL 7
REMARK VINA RESULT:      -9.0      1.568      2.286
REMARK  6 active torsions:
REMARK  status: ('A' for Active; 'I' for Inactive)
REMARK    1  A    between atoms: C_3  and  C_4 
REMARK       I    between atoms: C_4  and  N_5 
REMARK    2  A    between atoms: N_5  and  C_6 
REMARK    3  A    between atoms: C_6  and  C_7 
REMARK    4  A    between atoms: C_7  and  C_8 
REMARK    5  A    between atoms: C_19  and  O_20 
REMARK    6  A    between atoms: C_29  and  O_30 
ROOT
HETATM    1  C   UNL     1       7.274  29.059  55.481  1.00  0.00     0.158 A 
HETATM    2  N   UNL     1       8.601  29.016  55.303  1.00  0.00    -0.111 NA
HETATM    3  O   UNL     1       9.100  29.578  56.477  1.00  0.00    -0.189 OA
HETATM    4  C   UNL     1       8.020  29.896  57.257  1.00  0.00     0.223 A 
HETATM    5  C   UNL     1       8.114  30.498  58.545  1.00  0.00     0.089 A 
HETATM    6  N   UNL     1       7.001  30.814  59.282  1.00  0.00    -0.352 N 
HETATM    7  H   UNL     1       6.050  30.649  58.976  1.00  0.00     0.166 HD
HETATM    8  C   UNL     1       7.363  31.383  60.481  1.00  0.00     0.045 A 
HETATM    9  C   UNL     1       8.755  31.433  60.505  1.00  0.00    -0.007 A 
HETATM   10  C   UNL     1       9.219  30.873  59.282  1.00  0.00     0.048 A 
HETATM   11  C   UNL     1       6.573  31.855  61.535  1.00  0.00     0.067 A 
HETATM   12  C   UNL     1       7.218  32.397  62.655  1.00  0.00     0.070 A 
HETATM   13  C   UNL     1       8.611  32.460  62.702  1.00  0.00     0.038 A 
HETATM   14  C   UNL     1       9.389  31.981  61.636  1.00  0.00     0.016 A 
HETATM   15  N   UNL     1       6.874  29.579  56.687  1.00  0.00    -0.203 NA
ENDROOT
BRANCH   1  16
HETATM   16  C   UNL     1       6.332  28.535  54.461  1.00  0.00     0.103 C 
BRANCH  16  17
HETATM   17  C   UNL     1       5.347  27.508  55.024  1.00  0.00     0.133 C 
BRANCH  17  18
HETATM   18  N   UNL     1       5.725  26.130  54.694  1.00  0.00    -0.352 N 
HETATM   19  C   UNL     1       6.810  25.570  55.367  1.00  0.00     0.254 C 
HETATM   20  O   UNL     1       7.389  26.131  56.294  1.00  0.00    -0.267 OA
HETATM   21  C   UNL     1       4.864  25.414  53.761  1.00  0.00     0.152 C 
BRANCH  19  22
HETATM   22  C   UNL     1       7.303  24.239  54.937  1.00  0.00     0.038 A 
HETATM   23  C   UNL     1       7.906  24.059  53.681  1.00  0.00    -0.044 A 
HETATM   24  C   UNL     1       8.063  25.197  52.710  1.00  0.00     0.049 C 
HETATM   25  C   UNL     1       8.346  22.770  53.321  1.00  0.00     0.044 A 
HETATM   26  C   UNL     1       8.191  21.690  54.195  1.00  0.00     0.068 A 
HETATM   27  C   UNL     1       7.567  21.887  55.428  1.00  0.00     0.038 A 
HETATM   28  C   UNL     1       7.116  23.153  55.800  1.00  0.00     0.020 A 
BRANCH  26  29
HETATM   29  O   UNL     1       8.592  20.403  53.961  1.00  0.00    -0.356 OA
HETATM   30  C   UNL     1       8.759  20.016  52.604  1.00  0.00     0.210 C 
ENDBRANCH  26  29
ENDBRANCH  19  22
ENDBRANCH  17  18
ENDBRANCH  16  17
ENDBRANCH   1  16
BRANCH  12  31
HETATM   31  O   UNL     1       6.365  32.832  63.635  1.00  0.00    -0.356 OA
HETATM   32  C   UNL     1       6.423  34.212  63.976  1.00  0.00     0.210 C 
ENDBRANCH  12  31
TORSDOF 6
ENDMDL
MODEL 8
REMARK VINA RESULT:      -8.6      5.940      9.691
REMARK  6 active torsions:
REMARK  status: ('A' for Active; 'I' for Inactive)
REMARK    1  A    between atoms: C_3  and  C_4 
REMARK       I    between atoms: C_4  and  N_5 
REMARK    2  A    between atoms: N_5  and  C_6 
REMARK    3  A    between atoms: C_6  and  C_7 
REMARK    4  A    between atoms: C_7  and  C_8 
REMARK    5  A    between atoms: C_19  and  O_20 
REMARK    6  A    between atoms: C_29  and  O_30 
ROOT
HETATM    1  C   UNL     1       4.800  29.714  54.812  1.00  0.00     0.158 A 
HETATM    2  N   UNL     1       5.474  30.044  55.921  1.00  0.00    -0.111 NA
HETATM    3  O   UNL     1       6.253  28.915  56.171  1.00  0.00    -0.189 OA
HETATM    4  C   UNL     1       5.979  28.014  55.175  1.00  0.00     0.223 A 
HETATM    5  C   UNL     1       6.579  26.725  55.078  1.00  0.00     0.089 A 
HETATM    6  N   UNL     1       6.259  25.851  54.070  1.00  0.00    -0.352 N 
HETATM    7  H   UNL     1       5.590  26.047  53.337  1.00  0.00     0.166 HD
HETATM    8  C   UNL     1       6.971  24.682  54.204  1.00  0.00     0.045 A 
HETATM    9  C   UNL     1       7.769  24.817  55.338  1.00  0.00    -0.007 A 
HETATM   10  C   UNL     1       7.515  26.107  55.881  1.00  0.00     0.048 A 
HETATM   11  C   UNL     1       6.969  23.524  53.417  1.00  0.00     0.067 A 
HETATM   12  C   UNL     1       7.806  22.465  53.794  1.00  0.00     0.070 A 
HETATM   13  C   UNL     1       8.614  22.577  54.927  1.00  0.00     0.038 A 
HETATM   14  C   UNL     1       8.605  23.745  55.705  1.00  0.00     0.016 A 
HETATM   15  N   UNL     1       5.099  28.472  54.307  1.00  0.00    -0.203 NA
ENDROOT
BRANCH   1  16
HETATM   16  C   UNL     1       3.847  30.652  54.169  1.00  0.00     0.103 C 
BRANCH  16  17
HETATM   17  C   UNL     1       4.278  31.079  52.765  1.00  0.00     0.133 C 
BRANCH  17  18
HETATM   18  N   UNL     1       3.928  30.086  51.744  1.00  0.00    -0.352 N 
HETATM   19  C   UNL     1       4.928  29.669  50.866  1.00  0.00     0.254 C 
HETATM   20  O   UNL     1       6.104  30.007  50.977  1.00  0.00    -0.267 OA
HETATM   21  C   UNL     1       2.581  29.530  51.798  1.00  0.00     0.152 C 
BRANCH  19  22
HETATM   22  C   UNL     1       4.556  28.788  49.733  1.00  0.00     0.038 A 
HETATM   23  C   UNL     1       4.191  29.322  48.485  1.00  0.00    -0.044 A 
HETATM   24  C   UNL     1       4.142  30.806  48.247  1.00  0.00     0.049 C 
HETATM   25  C   UNL     1       3.837  28.437  47.449  1.00  0.00     0.044 A 
HETATM   26  C   UNL     1       3.851  27.054  47.651  1.00  0.00     0.068 A 
HETATM   27  C   UNL     1       4.193  26.546  48.906  1.00  0.00     0.038 A 
HETATM   28  C   UNL     1       4.538  27.405  49.948  1.00  0.00     0.020 A 
BRANCH  26  29
HETATM   29  O   UNL     1       3.543  26.102  46.718  1.00  0.00    -0.356 OA
HETATM   30  C   UNL     1       2.909  24.920  47.187  1.00  0.00     0.210 C 
ENDBRANCH  26  29
ENDBRANCH  19  22
ENDBRANCH  17  18
ENDBRANCH  16  17
ENDBRANCH   1  16
BRANCH  12  31
HETATM   31  O   UNL     1       7.737  21.376  52.965  1.00  0.00    -0.356 OA
HETATM   32  C   UNL     1       8.742  20.382  53.121  1.00  0.00     0.210 C 
ENDBRANCH  12  31
TORSDOF 6
ENDMDL
MODEL 9
REMARK VINA RESULT:      -8.3      2.823     11.204
REMARK  6 active torsions:
REMARK  status: ('A' for Active; 'I' for Inactive)
REMARK    1  A    between atoms: C_3  and  C_4 
REMARK       I    between atoms: C_4  and  N_5 
REMARK    2  A    between atoms: N_5  and  C_6 
REMARK    3  A    between atoms: C_6  and  C_7 
REMARK    4  A    between atoms: C_7  and  C_8 
REMARK    5  A    between atoms: C_19  and  O_20 
REMARK    6  A    between atoms: C_29  and  O_30 
ROOT
HETATM    1  C   UNL     1       3.878  29.865  55.102  1.00  0.00     0.158 A 
HETATM    2  N   UNL     1       3.796  30.000  53.773  1.00  0.00    -0.111 NA
HETATM    3  O   UNL     1       4.390  28.833  53.295  1.00  0.00    -0.189 OA
HETATM    4  C   UNL     1       4.764  28.099  54.390  1.00  0.00     0.223 A 
HETATM    5  C   UNL     1       5.412  26.832  54.319  1.00  0.00     0.089 A 
HETATM    6  N   UNL     1       5.782  26.143  55.446  1.00  0.00    -0.352 N 
HETATM    7  H   UNL     1       5.629  26.471  56.391  1.00  0.00     0.166 HD
HETATM    8  C   UNL     1       6.388  24.955  55.106  1.00  0.00     0.045 A 
HETATM    9  C   UNL     1       6.405  24.889  53.715  1.00  0.00    -0.007 A 
HETATM   10  C   UNL     1       5.788  26.075  53.229  1.00  0.00     0.048 A 
HETATM   11  C   UNL     1       6.918  23.944  55.915  1.00  0.00     0.067 A 
HETATM   12  C   UNL     1       7.488  22.826  55.292  1.00  0.00     0.070 A 
HETATM   13  C   UNL     1       7.518  22.738  53.899  1.00  0.00     0.038 A 
HETATM   14  C   UNL     1       6.980  23.760  53.101  1.00  0.00     0.016 A 
HETATM   15  N   UNL     1       4.453  28.692  55.526  1.00  0.00    -0.203 NA
ENDROOT
BRANCH   1  16
HETATM   16  C   UNL     1       3.338  30.893  56.027  1.00  0.00     0.103 C 
BRANCH  16  17
HETATM   17  C   UNL     1       4.429  31.725  56.704  1.00  0.00     0.133 C 
BRANCH  17  18
HETATM   18  N   UNL     1       4.265  31.785  58.160  1.00  0.00    -0.352 N 
HETATM   19  C   UNL     1       4.824  32.868  58.838  1.00  0.00     0.254 C 
HETATM   20  O   UNL     1       5.346  33.822  58.266  1.00  0.00    -0.267 OA
HETATM   21  C   UNL     1       3.432  30.758  58.775  1.00  0.00     0.152 C 
BRANCH  19  22
HETATM   22  C   UNL     1       4.805  32.865  60.320  1.00  0.00     0.038 A 
HETATM   23  C   UNL     1       3.733  33.427  61.035  1.00  0.00    -0.044 A 
HETATM   24  C   UNL     1       2.569  34.073  60.333  1.00  0.00     0.049 C 
HETATM   25  C   UNL     1       3.774  33.406  62.442  1.00  0.00     0.044 A 
HETATM   26  C   UNL     1       4.854  32.833  63.120  1.00  0.00     0.068 A 
HETATM   27  C   UNL     1       5.920  32.302  62.390  1.00  0.00     0.038 A 
HETATM   28  C   UNL     1       5.904  32.322  60.996  1.00  0.00     0.020 A 
BRANCH  26  29
HETATM   29  O   UNL     1       4.994  32.741  64.477  1.00  0.00    -0.356 OA
HETATM   30  C   UNL     1       4.542  33.845  65.249  1.00  0.00     0.210 C 
ENDBRANCH  26  29
ENDBRANCH  19  22
ENDBRANCH  17  18
ENDBRANCH  16  17
ENDBRANCH   1  16
BRANCH  12  31
HETATM   31  O   UNL     1       7.980  21.890  56.162  1.00  0.00    -0.356 OA
HETATM   32  C   UNL     1       8.194  20.581  55.651  1.00  0.00     0.210 C 
ENDBRANCH  12  31
TORSDOF 6
ENDMDL
MODEL 10
REMARK VINA RESULT:      -8.1      3.585      4.224
REMARK  6 active torsions:
REMARK  status: ('A' for Active; 'I' for Inactive)
REMARK    1  A    between atoms: C_3  and  C_4 
REMARK       I    between atoms: C_4  and  N_5 
REMARK    2  A    between atoms: N_5  and  C_6 
REMARK    3  A    between atoms: C_6  and  C_7 
REMARK    4  A    between atoms: C_7  and  C_8 
REMARK    5  A    between atoms: C_19  and  O_20 
REMARK    6  A    between atoms: C_29  and  O_30 
ROOT
HETATM    1  C   UNL     1       4.448  29.024  55.663  1.00  0.00     0.158 A 
HETATM    2  N   UNL     1       4.995  28.359  56.689  1.00  0.00    -0.111 NA
HETATM    3  O   UNL     1       5.055  29.320  57.698  1.00  0.00    -0.189 OA
HETATM    4  C   UNL     1       4.525  30.473  57.182  1.00  0.00     0.223 A 
HETATM    5  C   UNL     1       4.409  31.694  57.907  1.00  0.00     0.089 A 
HETATM    6  N   UNL     1       3.886  32.828  57.340  1.00  0.00    -0.352 N 
HETATM    7  H   UNL     1       3.549  32.886  56.388  1.00  0.00     0.166 HD
HETATM    8  C   UNL     1       3.888  33.863  58.246  1.00  0.00     0.045 A 
HETATM    9  C   UNL     1       4.434  33.370  59.429  1.00  0.00    -0.007 A 
HETATM   10  C   UNL     1       4.760  32.004  59.206  1.00  0.00     0.048 A 
HETATM   11  C   UNL     1       3.454  35.187  58.111  1.00  0.00     0.067 A 
HETATM   12  C   UNL     1       3.579  36.042  59.214  1.00  0.00     0.070 A 
HETATM   13  C   UNL     1       4.125  35.571  60.409  1.00  0.00     0.038 A 
HETATM   14  C   UNL     1       4.555  34.240  60.529  1.00  0.00     0.016 A 
HETATM   15  N   UNL     1       4.124  30.331  55.934  1.00  0.00    -0.203 NA
ENDROOT
BRANCH   1  16
HETATM   16  C   UNL     1       4.178  28.366  54.361  1.00  0.00     0.103 C 
BRANCH  16  17
HETATM   17  C   UNL     1       5.451  27.948  53.622  1.00  0.00     0.133 C 
BRANCH  17  18
HETATM   18  N   UNL     1       5.728  26.514  53.749  1.00  0.00    -0.352 N 
HETATM   19  C   UNL     1       6.915  26.129  54.372  1.00  0.00     0.254 C 
HETATM   20  O   UNL     1       7.679  26.925  54.913  1.00  0.00    -0.267 OA
HETATM   21  C   UNL     1       4.684  25.597  53.309  1.00  0.00     0.152 C 
BRANCH  19  22
HETATM   22  C   UNL     1       7.286  24.694  54.369  1.00  0.00     0.038 A 
HETATM   23  C   UNL     1       7.825  24.084  53.224  1.00  0.00    -0.044 A 
HETATM   24  C   UNL     1       8.033  24.850  51.946  1.00  0.00     0.049 C 
HETATM   25  C   UNL     1       8.148  22.715  53.276  1.00  0.00     0.044 A 
HETATM   26  C   UNL     1       7.943  21.973  54.444  1.00  0.00     0.068 A 
HETATM   27  C   UNL     1       7.383  22.594  55.562  1.00  0.00     0.038 A 
HETATM   28  C   UNL     1       7.048  23.947  55.529  1.00  0.00     0.020 A 
BRANCH  26  29
HETATM   29  O   UNL     1       8.232  20.647  54.615  1.00  0.00    -0.356 OA
HETATM   30  C   UNL     1       8.909  20.284  55.811  1.00  0.00     0.210 C 
ENDBRANCH  26  29
ENDBRANCH  19  22
ENDBRANCH  17  18
ENDBRANCH  16  17
ENDBRANCH   1  16
BRANCH  12  31
HETATM   31  O   UNL     1       3.128  37.316  58.988  1.00  0.00    -0.356 OA
HETATM   32  C   UNL     1       4.059  38.373  59.180  1.00  0.00     0.210 C 
ENDBRANCH  12  31
TORSDOF 6
ENDMDL
