MODEL 1
REMARK VINA RESULT:      -8.6      0.000      0.000
REMARK  9 active torsions:
REMARK  status: ('A' for Active; 'I' for Inactive)
REMARK       I    between atoms: N_2  and  C_3 
REMARK    1  A    between atoms: C_3  and  C_4 
REMARK    2  A    between atoms: C_4  and  S_5 
REMARK    3  A    between atoms: S_5  and  C_6 
REMARK    4  A    between atoms: N_7  and  C_8 
REMARK    5  A    between atoms: C_8  and  C_9 
REMARK    6  A    between atoms: C_11  and  C_12 
REMARK    7  A    between atoms: C_12  and  O_13 
REMARK    8  A    between atoms: O_13  and  C_14 
REMARK    9  A    between atoms: C_15  and  C_16 
ROOT
HETATM    1  C   UNL     1       7.478  28.085  57.023  1.00  0.00     0.192 A 
HETATM    2  N   UNL     1       7.175  27.027  56.210  1.00  0.00    -0.306 N 
HETATM    3  C   UNL     1       7.472  25.903  56.955  1.00  0.00     0.155 A 
HETATM    4  N   UNL     1       7.863  26.283  58.157  1.00  0.00    -0.132 NA
HETATM    5  N   UNL     1       7.874  27.653  58.195  1.00  0.00    -0.123 NA
ENDROOT
BRANCH   3   6
HETATM    6  C   UNL     1       7.380  24.494  56.478  1.00  0.00     0.256 C 
BRANCH   6   7
HETATM    7  O   UNL     1       8.450  24.316  55.546  1.00  0.00    -0.343 OA
BRANCH   7   8
HETATM    8  C   UNL     1       8.429  23.059  54.994  1.00  0.00     0.080 A 
HETATM    9  C   UNL     1       7.714  22.802  53.807  1.00  0.00     0.007 A 
HETATM   10  C   UNL     1       7.692  21.465  53.353  1.00  0.00     0.015 A 
HETATM   11  C   UNL     1       8.345  20.440  54.046  1.00  0.00     0.001 A 
HETATM   12  C   UNL     1       9.027  20.722  55.224  1.00  0.00     0.003 A 
HETATM   13  C   UNL     1       9.059  22.028  55.705  1.00  0.00     0.037 A 
BRANCH   9  14
HETATM   14  C   UNL     1       6.994  23.841  53.032  1.00  0.00    -0.023 A 
HETATM   15  C   UNL     1       7.693  24.738  52.201  1.00  0.00     0.012 A 
HETATM   16  C   UNL     1       7.025  25.693  51.427  1.00  0.00     0.001 A 
HETATM   17  C   UNL     1       5.638  25.778  51.476  1.00  0.00     0.000 A 
HETATM   18  C   UNL     1       4.923  24.911  52.297  1.00  0.00     0.001 A 
HETATM   19  C   UNL     1       5.593  23.950  53.061  1.00  0.00     0.012 A 
ENDBRANCH   9  14
ENDBRANCH   7   8
ENDBRANCH   6   7
ENDBRANCH   3   6
BRANCH   2  20
HETATM   20  C   UNL     1       6.538  27.071  54.905  1.00  0.00     0.159 C 
BRANCH  20  21
HETATM   21  C   UNL     1       5.069  27.383  54.884  1.00  0.00    -0.017 C 
HETATM   22  C   UNL     1       4.405  28.194  54.051  1.00  0.00     0.008 C 
ENDBRANCH  20  21
ENDBRANCH   2  20
BRANCH   1  23
HETATM   23  S   UNL     1       7.353  29.752  56.600  1.00  0.00    -0.081 SA
BRANCH  23  24
HETATM   24  C   UNL     1       6.803  30.459  58.173  1.00  0.00     0.185 C 
BRANCH  24  25
HETATM   25  C   UNL     1       7.881  30.970  59.117  1.00  0.00     0.226 C 
HETATM   26  N   UNL     1       8.221  30.202  60.201  1.00  0.00    -0.365 N 
HETATM   27  C   UNL     1       9.092  30.701  61.234  1.00  0.00     0.149 C 
HETATM   28  H   UNL     1       7.610  29.428  60.453  1.00  0.00     0.161 HD
HETATM   29  O   UNL     1       8.385  32.079  58.919  1.00  0.00    -0.273 OA
ENDBRANCH  24  25
ENDBRANCH  23  24
ENDBRANCH   1  23
TORSDOF 9
ENDMDL
MODEL 2
REMARK VINA RESULT:      -8.6      1.578      3.585
REMARK  9 active torsions:
REMARK  status: ('A' for Active; 'I' for Inactive)
REMARK       I    between atoms: N_2  and  C_3 
REMARK    1  A    between atoms: C_3  and  C_4 
REMARK    2  A    between atoms: C_4  and  S_5 
REMARK    3  A    between atoms: S_5  and  C_6 
REMARK    4  A    between atoms: N_7  and  C_8 
REMARK    5  A    between atoms: C_8  and  C_9 
REMARK    6  A    between atoms: C_11  and  C_12 
REMARK    7  A    between atoms: C_12  and  O_13 
REMARK    8  A    between atoms: O_13  and  C_14 
REMARK    9  A    between atoms: C_15  and  C_16 
ROOT
HETATM    1  C   UNL     1       6.917  28.909  57.759  1.00  0.00     0.192 A 
HETATM    2  N   UNL     1       6.039  28.121  57.066  1.00  0.00    -0.306 N 
HETATM    3  C   UNL     1       6.560  26.844  57.146  1.00  0.00     0.155 A 
HETATM    4  N   UNL     1       7.646  26.877  57.897  1.00  0.00    -0.132 NA
HETATM    5  N   UNL     1       7.872  28.174  58.274  1.00  0.00    -0.123 NA
ENDROOT
BRANCH   3   6
HETATM    6  C   UNL     1       6.001  25.633  56.482  1.00  0.00     0.256 C 
BRANCH   6   7
HETATM    7  O   UNL     1       7.123  24.853  56.060  1.00  0.00    -0.343 OA
BRANCH   7   8
HETATM    8  C   UNL     1       7.243  24.846  54.693  1.00  0.00     0.080 A 
HETATM    9  C   UNL     1       7.691  23.697  54.011  1.00  0.00     0.007 A 
HETATM   10  C   UNL     1       7.851  23.808  52.612  1.00  0.00     0.015 A 
HETATM   11  C   UNL     1       7.581  24.999  51.931  1.00  0.00     0.001 A 
HETATM   12  C   UNL     1       7.157  26.121  52.634  1.00  0.00     0.003 A 
HETATM   13  C   UNL     1       7.000  26.049  54.015  1.00  0.00     0.037 A 
BRANCH   9  14
HETATM   14  C   UNL     1       8.003  22.409  54.675  1.00  0.00    -0.023 A 
HETATM   15  C   UNL     1       8.255  21.247  53.919  1.00  0.00     0.012 A 
HETATM   16  C   UNL     1       8.597  20.036  54.529  1.00  0.00     0.001 A 
HETATM   17  C   UNL     1       8.686  19.956  55.915  1.00  0.00     0.000 A 
HETATM   18  C   UNL     1       8.430  21.086  56.687  1.00  0.00     0.001 A 
HETATM   19  C   UNL     1       8.099  22.299  56.073  1.00  0.00     0.012 A 
ENDBRANCH   9  14
ENDBRANCH   7   8
ENDBRANCH   6   7
ENDBRANCH   3   6
BRANCH   2  20
HETATM   20  C   UNL     1       4.760  28.511  56.499  1.00  0.00     0.159 C 
BRANCH  20  21
HETATM   21  C   UNL     1       4.763  28.925  55.055  1.00  0.00    -0.017 C 
HETATM   22  C   UNL     1       4.098  28.371  54.032  1.00  0.00     0.008 C 
ENDBRANCH  20  21
ENDBRANCH   2  20
BRANCH   1  23
HETATM   23  S   UNL     1       6.801  30.619  57.954  1.00  0.00    -0.081 SA
BRANCH  23  24
HETATM   24  C   UNL     1       8.207  30.928  59.052  1.00  0.00     0.185 C 
BRANCH  24  25
HETATM   25  C   UNL     1       9.570  31.101  58.400  1.00  0.00     0.226 C 
HETATM   26  N   UNL     1      10.129  30.028  57.753  1.00  0.00    -0.365 N 
HETATM   27  C   UNL     1      11.488  30.059  57.277  1.00  0.00     0.149 C 
HETATM   28  H   UNL     1       9.718  29.109  57.904  1.00  0.00     0.161 HD
HETATM   29  O   UNL     1      10.164  32.177  58.511  1.00  0.00    -0.273 OA
ENDBRANCH  24  25
ENDBRANCH  23  24
ENDBRANCH   1  23
TORSDOF 9
ENDMDL
MODEL 3
REMARK VINA RESULT:      -8.3      1.438      3.534
REMARK  9 active torsions:
REMARK  status: ('A' for Active; 'I' for Inactive)
REMARK       I    between atoms: N_2  and  C_3 
REMARK    1  A    between atoms: C_3  and  C_4 
REMARK    2  A    between atoms: C_4  and  S_5 
REMARK    3  A    between atoms: S_5  and  C_6 
REMARK    4  A    between atoms: N_7  and  C_8 
REMARK    5  A    between atoms: C_8  and  C_9 
REMARK    6  A    between atoms: C_11  and  C_12 
REMARK    7  A    between atoms: C_12  and  O_13 
REMARK    8  A    between atoms: O_13  and  C_14 
REMARK    9  A    between atoms: C_15  and  C_16 
ROOT
HETATM    1  C   UNL     1       8.082  27.958  57.207  1.00  0.00     0.192 A 
HETATM    2  N   UNL     1       7.054  27.823  56.314  1.00  0.00    -0.306 N 
HETATM    3  C   UNL     1       6.480  26.602  56.607  1.00  0.00     0.155 A 
HETATM    4  N   UNL     1       7.098  26.084  57.653  1.00  0.00    -0.132 NA
HETATM    5  N   UNL     1       8.107  26.933  58.023  1.00  0.00    -0.123 NA
ENDROOT
BRANCH   3   6
HETATM    6  C   UNL     1       5.359  25.965  55.858  1.00  0.00     0.256 C 
BRANCH   6   7
HETATM    7  O   UNL     1       5.812  24.658  55.494  1.00  0.00    -0.343 OA
BRANCH   7   8
HETATM    8  C   UNL     1       6.409  24.661  54.259  1.00  0.00     0.080 A 
HETATM    9  C   UNL     1       7.363  23.683  53.913  1.00  0.00     0.007 A 
HETATM   10  C   UNL     1       7.975  23.809  52.647  1.00  0.00     0.015 A 
HETATM   11  C   UNL     1       7.655  24.853  51.773  1.00  0.00     0.001 A 
HETATM   12  C   UNL     1       6.723  25.814  52.150  1.00  0.00     0.003 A 
HETATM   13  C   UNL     1       6.109  25.725  53.396  1.00  0.00     0.037 A 
BRANCH   9  14
HETATM   14  C   UNL     1       7.752  22.558  54.796  1.00  0.00    -0.023 A 
HETATM   15  C   UNL     1       7.860  21.246  54.293  1.00  0.00     0.012 A 
HETATM   16  C   UNL     1       8.271  20.182  55.102  1.00  0.00     0.001 A 
HETATM   17  C   UNL     1       8.576  20.405  56.440  1.00  0.00     0.000 A 
HETATM   18  C   UNL     1       8.468  21.689  56.967  1.00  0.00     0.001 A 
HETATM   19  C   UNL     1       8.066  22.753  56.152  1.00  0.00     0.012 A 
ENDBRANCH   9  14
ENDBRANCH   7   8
ENDBRANCH   6   7
ENDBRANCH   3   6
BRANCH   2  20
HETATM   20  C   UNL     1       6.574  28.813  55.365  1.00  0.00     0.159 C 
BRANCH  20  21
HETATM   21  C   UNL     1       5.610  29.837  55.893  1.00  0.00    -0.017 C 
HETATM   22  C   UNL     1       4.751  29.719  56.914  1.00  0.00     0.008 C 
ENDBRANCH  20  21
ENDBRANCH   2  20
BRANCH   1  23
HETATM   23  S   UNL     1       9.190  29.278  57.281  1.00  0.00    -0.081 SA
BRANCH  23  24
HETATM   24  C   UNL     1       8.241  30.459  58.272  1.00  0.00     0.185 C 
BRANCH  24  25
HETATM   25  C   UNL     1       9.010  31.278  59.297  1.00  0.00     0.226 C 
HETATM   26  N   UNL     1       9.058  30.831  60.593  1.00  0.00    -0.365 N 
HETATM   27  C   UNL     1       9.603  31.642  61.650  1.00  0.00     0.149 C 
HETATM   28  H   UNL     1       8.417  30.090  60.869  1.00  0.00     0.161 HD
HETATM   29  O   UNL     1       9.526  32.346  58.956  1.00  0.00    -0.273 OA
ENDBRANCH  24  25
ENDBRANCH  23  24
ENDBRANCH   1  23
TORSDOF 9
ENDMDL
MODEL 4
REMARK VINA RESULT:      -7.9      2.956      4.576
REMARK  9 active torsions:
REMARK  status: ('A' for Active; 'I' for Inactive)
REMARK       I    between atoms: N_2  and  C_3 
REMARK    1  A    between atoms: C_3  and  C_4 
REMARK    2  A    between atoms: C_4  and  S_5 
REMARK    3  A    between atoms: S_5  and  C_6 
REMARK    4  A    between atoms: N_7  and  C_8 
REMARK    5  A    between atoms: C_8  and  C_9 
REMARK    6  A    between atoms: C_11  and  C_12 
REMARK    7  A    between atoms: C_12  and  O_13 
REMARK    8  A    between atoms: O_13  and  C_14 
REMARK    9  A    between atoms: C_15  and  C_16 
ROOT
HETATM    1  C   UNL     1       5.953  27.994  52.420  1.00  0.00     0.192 A 
HETATM    2  N   UNL     1       5.806  26.734  51.908  1.00  0.00    -0.306 N 
HETATM    3  C   UNL     1       6.783  25.978  52.525  1.00  0.00     0.155 A 
HETATM    4  N   UNL     1       7.421  26.740  53.395  1.00  0.00    -0.132 NA
HETATM    5  N   UNL     1       6.903  28.006  53.321  1.00  0.00    -0.123 NA
ENDROOT
BRANCH   3   6
HETATM    6  C   UNL     1       7.080  24.544  52.246  1.00  0.00     0.256 C 
BRANCH   6   7
HETATM    7  O   UNL     1       8.200  24.201  53.066  1.00  0.00    -0.343 OA
BRANCH   7   8
HETATM    8  C   UNL     1       8.045  22.960  53.631  1.00  0.00     0.080 A 
HETATM    9  C   UNL     1       7.775  22.820  55.007  1.00  0.00     0.007 A 
HETATM   10  C   UNL     1       7.702  21.503  55.512  1.00  0.00     0.015 A 
HETATM   11  C   UNL     1       7.891  20.387  54.691  1.00  0.00     0.001 A 
HETATM   12  C   UNL     1       8.174  20.557  53.340  1.00  0.00     0.003 A 
HETATM   13  C   UNL     1       8.264  21.842  52.813  1.00  0.00     0.037 A 
BRANCH   9  14
HETATM   14  C   UNL     1       7.575  23.961  55.932  1.00  0.00    -0.023 A 
HETATM   15  C   UNL     1       8.635  24.446  56.723  1.00  0.00     0.012 A 
HETATM   16  C   UNL     1       8.476  25.551  57.565  1.00  0.00     0.001 A 
HETATM   17  C   UNL     1       7.244  26.193  57.643  1.00  0.00     0.000 A 
HETATM   18  C   UNL     1       6.176  25.727  56.881  1.00  0.00     0.001 A 
HETATM   19  C   UNL     1       6.342  24.628  56.032  1.00  0.00     0.012 A 
ENDBRANCH   9  14
ENDBRANCH   7   8
ENDBRANCH   6   7
ENDBRANCH   3   6
BRANCH   2  20
HETATM   20  C   UNL     1       4.756  26.257  51.024  1.00  0.00     0.159 C 
BRANCH  20  21
HETATM   21  C   UNL     1       4.868  26.646  49.577  1.00  0.00    -0.017 C 
HETATM   22  C   UNL     1       4.011  26.387  48.580  1.00  0.00     0.008 C 
ENDBRANCH  20  21
ENDBRANCH   2  20
BRANCH   1  23
HETATM   23  S   UNL     1       5.027  29.380  51.973  1.00  0.00    -0.081 SA
BRANCH  23  24
HETATM   24  C   UNL     1       3.869  29.473  53.360  1.00  0.00     0.185 C 
BRANCH  24  25
HETATM   25  C   UNL     1       4.448  29.316  54.758  1.00  0.00     0.226 C 
HETATM   26  N   UNL     1       5.408  30.203  55.174  1.00  0.00    -0.365 N 
HETATM   27  C   UNL     1       6.132  30.007  56.403  1.00  0.00     0.149 C 
HETATM   28  H   UNL     1       5.845  30.800  54.475  1.00  0.00     0.161 HD
HETATM   29  O   UNL     1       4.083  28.371  55.463  1.00  0.00    -0.273 OA
ENDBRANCH  24  25
ENDBRANCH  23  24
ENDBRANCH   1  23
TORSDOF 9
ENDMDL
MODEL 5
REMARK VINA RESULT:      -7.9      4.085      7.285
REMARK  9 active torsions:
REMARK  status: ('A' for Active; 'I' for Inactive)
REMARK       I    between atoms: N_2  and  C_3 
REMARK    1  A    between atoms: C_3  and  C_4 
REMARK    2  A    between atoms: C_4  and  S_5 
REMARK    3  A    between atoms: S_5  and  C_6 
REMARK    4  A    between atoms: N_7  and  C_8 
REMARK    5  A    between atoms: C_8  and  C_9 
REMARK    6  A    between atoms: C_11  and  C_12 
REMARK    7  A    between atoms: C_12  and  O_13 
REMARK    8  A    between atoms: O_13  and  C_14 
REMARK    9  A    between atoms: C_15  and  C_16 
ROOT
HETATM    1  C   UNL     1       4.408  28.106  50.839  1.00  0.00     0.192 A 
HETATM    2  N   UNL     1       4.266  27.794  52.163  1.00  0.00    -0.306 N 
HETATM    3  C   UNL     1       5.081  26.697  52.364  1.00  0.00     0.155 A 
HETATM    4  N   UNL     1       5.712  26.426  51.235  1.00  0.00    -0.132 NA
HETATM    5  N   UNL     1       5.281  27.307  50.278  1.00  0.00    -0.123 NA
ENDROOT
BRANCH   3   6
HETATM    6  C   UNL     1       5.217  25.935  53.638  1.00  0.00     0.256 C 
BRANCH   6   7
HETATM    7  O   UNL     1       6.512  25.329  53.606  1.00  0.00    -0.343 OA
BRANCH   7   8
HETATM    8  C   UNL     1       7.148  25.442  54.817  1.00  0.00     0.080 A 
HETATM    9  C   UNL     1       7.766  24.327  55.417  1.00  0.00     0.007 A 
HETATM   10  C   UNL     1       8.332  24.523  56.696  1.00  0.00     0.015 A 
HETATM   11  C   UNL     1       8.283  25.762  57.342  1.00  0.00     0.001 A 
HETATM   12  C   UNL     1       7.650  26.839  56.733  1.00  0.00     0.003 A 
HETATM   13  C   UNL     1       7.071  26.677  55.477  1.00  0.00     0.037 A 
BRANCH   9  14
HETATM   14  C   UNL     1       7.844  22.986  54.789  1.00  0.00    -0.023 A 
HETATM   15  C   UNL     1       8.098  22.846  53.410  1.00  0.00     0.012 A 
HETATM   16  C   UNL     1       8.222  21.588  52.812  1.00  0.00     0.001 A 
HETATM   17  C   UNL     1       8.082  20.437  53.580  1.00  0.00     0.000 A 
HETATM   18  C   UNL     1       7.819  20.546  54.942  1.00  0.00     0.001 A 
HETATM   19  C   UNL     1       7.707  21.806  55.540  1.00  0.00     0.012 A 
ENDBRANCH   9  14
ENDBRANCH   7   8
ENDBRANCH   6   7
ENDBRANCH   3   6
BRANCH   2  20
HETATM   20  C   UNL     1       3.538  28.541  53.174  1.00  0.00     0.159 C 
BRANCH  20  21
HETATM   21  C   UNL     1       4.260  29.698  53.804  1.00  0.00    -0.017 C 
HETATM   22  C   UNL     1       4.976  29.711  54.937  1.00  0.00     0.008 C 
ENDBRANCH  20  21
ENDBRANCH   2  20
BRANCH   1  23
HETATM   23  S   UNL     1       3.581  29.371  50.006  1.00  0.00    -0.081 SA
BRANCH  23  24
HETATM   24  C   UNL     1       2.119  28.483  49.413  1.00  0.00     0.185 C 
BRANCH  24  25
HETATM   25  C   UNL     1       2.312  27.539  48.236  1.00  0.00     0.226 C 
HETATM   26  N   UNL     1       2.621  26.228  48.490  1.00  0.00    -0.365 N 
HETATM   27  C   UNL     1       3.000  25.325  47.434  1.00  0.00     0.149 C 
HETATM   28  H   UNL     1       2.912  25.977  49.433  1.00  0.00     0.161 HD
HETATM   29  O   UNL     1       2.238  27.981  47.086  1.00  0.00    -0.273 OA
ENDBRANCH  24  25
ENDBRANCH  23  24
ENDBRANCH   1  23
TORSDOF 9
ENDMDL
MODEL 6
REMARK VINA RESULT:      -7.9      1.866      2.289
REMARK  9 active torsions:
REMARK  status: ('A' for Active; 'I' for Inactive)
REMARK       I    between atoms: N_2  and  C_3 
REMARK    1  A    between atoms: C_3  and  C_4 
REMARK    2  A    between atoms: C_4  and  S_5 
REMARK    3  A    between atoms: S_5  and  C_6 
REMARK    4  A    between atoms: N_7  and  C_8 
REMARK    5  A    between atoms: C_8  and  C_9 
REMARK    6  A    between atoms: C_11  and  C_12 
REMARK    7  A    between atoms: C_12  and  O_13 
REMARK    8  A    between atoms: O_13  and  C_14 
REMARK    9  A    between atoms: C_15  and  C_16 
ROOT
HETATM    1  C   UNL     1       7.056  28.537  57.073  1.00  0.00     0.192 A 
HETATM    2  N   UNL     1       7.218  27.544  56.145  1.00  0.00    -0.306 N 
HETATM    3  C   UNL     1       7.884  26.534  56.811  1.00  0.00     0.155 A 
HETATM    4  N   UNL     1       8.044  26.892  58.072  1.00  0.00    -0.132 NA
HETATM    5  N   UNL     1       7.530  28.152  58.232  1.00  0.00    -0.123 NA
ENDROOT
BRANCH   3   6
HETATM    6  C   UNL     1       8.359  25.258  56.204  1.00  0.00     0.256 C 
BRANCH   6   7
HETATM    7  O   UNL     1       7.260  24.346  56.277  1.00  0.00    -0.343 OA
BRANCH   7   8
HETATM    8  C   UNL     1       7.607  23.105  55.806  1.00  0.00     0.080 A 
HETATM    9  C   UNL     1       7.469  22.784  54.441  1.00  0.00     0.007 A 
HETATM   10  C   UNL     1       7.783  21.460  54.062  1.00  0.00     0.015 A 
HETATM   11  C   UNL     1       8.211  20.509  54.993  1.00  0.00     0.001 A 
HETATM   12  C   UNL     1       8.321  20.851  56.336  1.00  0.00     0.003 A 
HETATM   13  C   UNL     1       8.007  22.143  56.745  1.00  0.00     0.037 A 
BRANCH   9  14
HETATM   14  C   UNL     1       7.012  23.743  53.407  1.00  0.00    -0.023 A 
HETATM   15  C   UNL     1       5.639  23.977  53.193  1.00  0.00     0.012 A 
HETATM   16  C   UNL     1       5.192  24.913  52.254  1.00  0.00     0.001 A 
HETATM   17  C   UNL     1       6.113  25.632  51.498  1.00  0.00     0.000 A 
HETATM   18  C   UNL     1       7.475  25.412  51.681  1.00  0.00     0.001 A 
HETATM   19  C   UNL     1       7.918  24.482  52.628  1.00  0.00     0.012 A 
ENDBRANCH   9  14
ENDBRANCH   7   8
ENDBRANCH   6   7
ENDBRANCH   3   6
BRANCH   2  20
HETATM   20  C   UNL     1       6.676  27.498  54.798  1.00  0.00     0.159 C 
BRANCH  20  21
HETATM   21  C   UNL     1       5.185  27.360  54.678  1.00  0.00    -0.017 C 
HETATM   22  C   UNL     1       4.348  28.060  53.902  1.00  0.00     0.008 C 
ENDBRANCH  20  21
ENDBRANCH   2  20
BRANCH   1  23
HETATM   23  S   UNL     1       6.326  30.074  56.790  1.00  0.00    -0.081 SA
BRANCH  23  24
HETATM   24  C   UNL     1       4.637  29.754  57.356  1.00  0.00     0.185 C 
BRANCH  24  25
HETATM   25  C   UNL     1       3.894  30.909  58.010  1.00  0.00     0.226 C 
HETATM   26  N   UNL     1       4.184  31.222  59.313  1.00  0.00    -0.365 N 
HETATM   27  C   UNL     1       3.396  32.174  60.052  1.00  0.00     0.149 C 
HETATM   28  H   UNL     1       4.725  30.554  59.859  1.00  0.00     0.161 HD
HETATM   29  O   UNL     1       3.018  31.503  57.376  1.00  0.00    -0.273 OA
ENDBRANCH  24  25
ENDBRANCH  23  24
ENDBRANCH   1  23
TORSDOF 9
ENDMDL
MODEL 7
REMARK VINA RESULT:      -7.6      3.600      6.113
REMARK  9 active torsions:
REMARK  status: ('A' for Active; 'I' for Inactive)
REMARK       I    between atoms: N_2  and  C_3 
REMARK    1  A    between atoms: C_3  and  C_4 
REMARK    2  A    between atoms: C_4  and  S_5 
REMARK    3  A    between atoms: S_5  and  C_6 
REMARK    4  A    between atoms: N_7  and  C_8 
REMARK    5  A    between atoms: C_8  and  C_9 
REMARK    6  A    between atoms: C_11  and  C_12 
REMARK    7  A    between atoms: C_12  and  O_13 
REMARK    8  A    between atoms: O_13  and  C_14 
REMARK    9  A    between atoms: C_15  and  C_16 
ROOT
HETATM    1  C   UNL     1       5.881  27.854  52.570  1.00  0.00     0.192 A 
HETATM    2  N   UNL     1       5.830  26.614  51.993  1.00  0.00    -0.306 N 
HETATM    3  C   UNL     1       6.919  25.935  52.503  1.00  0.00     0.155 A 
HETATM    4  N   UNL     1       7.532  26.713  53.376  1.00  0.00    -0.132 NA
HETATM    5  N   UNL     1       6.883  27.919  53.410  1.00  0.00    -0.123 NA
ENDROOT
BRANCH   3   6
HETATM    6  C   UNL     1       7.342  24.558  52.122  1.00  0.00     0.256 C 
BRANCH   6   7
HETATM    7  O   UNL     1       8.384  24.192  53.031  1.00  0.00    -0.343 OA
BRANCH   7   8
HETATM    8  C   UNL     1       8.171  22.944  53.561  1.00  0.00     0.080 A 
HETATM    9  C   UNL     1       7.852  22.781  54.924  1.00  0.00     0.007 A 
HETATM   10  C   UNL     1       7.721  21.456  55.393  1.00  0.00     0.015 A 
HETATM   11  C   UNL     1       7.900  20.354  54.551  1.00  0.00     0.001 A 
HETATM   12  C   UNL     1       8.232  20.547  53.215  1.00  0.00     0.003 A 
HETATM   13  C   UNL     1       8.380  21.840  52.723  1.00  0.00     0.037 A 
BRANCH   9  14
HETATM   14  C   UNL     1       7.658  23.906  55.870  1.00  0.00    -0.023 A 
HETATM   15  C   UNL     1       6.411  24.553  55.979  1.00  0.00     0.012 A 
HETATM   16  C   UNL     1       6.200  25.585  56.900  1.00  0.00     0.001 A 
HETATM   17  C   UNL     1       7.237  26.001  57.727  1.00  0.00     0.000 A 
HETATM   18  C   UNL     1       8.483  25.387  57.632  1.00  0.00     0.001 A 
HETATM   19  C   UNL     1       8.688  24.348  56.718  1.00  0.00     0.012 A 
ENDBRANCH   9  14
ENDBRANCH   7   8
ENDBRANCH   6   7
ENDBRANCH   3   6
BRANCH   2  20
HETATM   20  C   UNL     1       4.778  26.076  51.148  1.00  0.00     0.159 C 
BRANCH  20  21
HETATM   21  C   UNL     1       4.851  26.414  49.687  1.00  0.00    -0.017 C 
HETATM   22  C   UNL     1       3.967  26.123  48.723  1.00  0.00     0.008 C 
ENDBRANCH  20  21
ENDBRANCH   2  20
BRANCH   1  23
HETATM   23  S   UNL     1       4.790  29.155  52.264  1.00  0.00    -0.081 SA
BRANCH  23  24
HETATM   24  C   UNL     1       5.531  29.873  50.777  1.00  0.00     0.185 C 
BRANCH  24  25
HETATM   25  C   UNL     1       4.631  30.031  49.561  1.00  0.00     0.226 C 
HETATM   26  N   UNL     1       3.301  29.719  49.684  1.00  0.00    -0.365 N 
HETATM   27  C   UNL     1       2.430  29.665  48.538  1.00  0.00     0.149 C 
HETATM   28  H   UNL     1       3.003  29.204  50.510  1.00  0.00     0.161 HD
HETATM   29  O   UNL     1       5.121  30.383  48.484  1.00  0.00    -0.273 OA
ENDBRANCH  24  25
ENDBRANCH  23  24
ENDBRANCH   1  23
TORSDOF 9
ENDMDL
MODEL 8
REMARK VINA RESULT:      -7.6      1.472      2.159
REMARK  9 active torsions:
REMARK  status: ('A' for Active; 'I' for Inactive)
REMARK       I    between atoms: N_2  and  C_3 
REMARK    1  A    between atoms: C_3  and  C_4 
REMARK    2  A    between atoms: C_4  and  S_5 
REMARK    3  A    between atoms: S_5  and  C_6 
REMARK    4  A    between atoms: N_7  and  C_8 
REMARK    5  A    between atoms: C_8  and  C_9 
REMARK    6  A    between atoms: C_11  and  C_12 
REMARK    7  A    between atoms: C_12  and  O_13 
REMARK    8  A    between atoms: O_13  and  C_14 
REMARK    9  A    between atoms: C_15  and  C_16 
ROOT
HETATM    1  C   UNL     1       5.773  28.528  56.234  1.00  0.00     0.192 A 
HETATM    2  N   UNL     1       6.970  27.874  56.133  1.00  0.00    -0.306 N 
HETATM    3  C   UNL     1       6.687  26.555  56.429  1.00  0.00     0.155 A 
HETATM    4  N   UNL     1       5.386  26.436  56.629  1.00  0.00    -0.132 NA
HETATM    5  N   UNL     1       4.817  27.677  56.514  1.00  0.00    -0.123 NA
ENDROOT
BRANCH   3   6
HETATM    6  C   UNL     1       7.683  25.451  56.524  1.00  0.00     0.256 C 
BRANCH   6   7
HETATM    7  O   UNL     1       6.951  24.235  56.346  1.00  0.00    -0.343 OA
BRANCH   7   8
HETATM    8  C   UNL     1       7.629  23.356  55.537  1.00  0.00     0.080 A 
HETATM    9  C   UNL     1       7.557  23.461  54.134  1.00  0.00     0.007 A 
HETATM   10  C   UNL     1       8.229  22.471  53.385  1.00  0.00     0.015 A 
HETATM   11  C   UNL     1       8.933  21.431  54.001  1.00  0.00     0.001 A 
HETATM   12  C   UNL     1       8.971  21.344  55.388  1.00  0.00     0.003 A 
HETATM   13  C   UNL     1       8.309  22.298  56.156  1.00  0.00     0.037 A 
BRANCH   9  14
HETATM   14  C   UNL     1       6.820  24.532  53.420  1.00  0.00    -0.023 A 
HETATM   15  C   UNL     1       7.507  25.599  52.808  1.00  0.00     0.012 A 
HETATM   16  C   UNL     1       6.831  26.592  52.091  1.00  0.00     0.001 A 
HETATM   17  C   UNL     1       5.445  26.544  51.978  1.00  0.00     0.000 A 
HETATM   18  C   UNL     1       4.741  25.507  52.583  1.00  0.00     0.001 A 
HETATM   19  C   UNL     1       5.421  24.511  53.290  1.00  0.00     0.012 A 
ENDBRANCH   9  14
ENDBRANCH   7   8
ENDBRANCH   6   7
ENDBRANCH   3   6
BRANCH   2  20
HETATM   20  C   UNL     1       8.236  28.415  55.667  1.00  0.00     0.159 C 
BRANCH  20  21
HETATM   21  C   UNL     1       9.133  29.018  56.709  1.00  0.00    -0.017 C 
HETATM   22  C   UNL     1      10.379  29.486  56.561  1.00  0.00     0.008 C 
ENDBRANCH  20  21
ENDBRANCH   2  20
BRANCH   1  23
HETATM   23  S   UNL     1       5.527  30.222  56.017  1.00  0.00    -0.081 SA
BRANCH  23  24
HETATM   24  C   UNL     1       5.187  30.733  57.721  1.00  0.00     0.185 C 
BRANCH  24  25
HETATM   25  C   UNL     1       6.332  31.369  58.494  1.00  0.00     0.226 C 
HETATM   26  N   UNL     1       7.177  30.555  59.204  1.00  0.00    -0.365 N 
HETATM   27  C   UNL     1       8.163  31.094  60.104  1.00  0.00     0.149 C 
HETATM   28  H   UNL     1       6.895  29.589  59.358  1.00  0.00     0.161 HD
HETATM   29  O   UNL     1       6.445  32.598  58.509  1.00  0.00    -0.273 OA
ENDBRANCH  24  25
ENDBRANCH  23  24
ENDBRANCH   1  23
TORSDOF 9
ENDMDL
MODEL 9
REMARK VINA RESULT:      -7.6      4.235      6.863
REMARK  9 active torsions:
REMARK  status: ('A' for Active; 'I' for Inactive)
REMARK       I    between atoms: N_2  and  C_3 
REMARK    1  A    between atoms: C_3  and  C_4 
REMARK    2  A    between atoms: C_4  and  S_5 
REMARK    3  A    between atoms: S_5  and  C_6 
REMARK    4  A    between atoms: N_7  and  C_8 
REMARK    5  A    between atoms: C_8  and  C_9 
REMARK    6  A    between atoms: C_11  and  C_12 
REMARK    7  A    between atoms: C_12  and  O_13 
REMARK    8  A    between atoms: O_13  and  C_14 
REMARK    9  A    between atoms: C_15  and  C_16 
ROOT
HETATM    1  C   UNL     1       5.056  27.736  50.383  1.00  0.00     0.192 A 
HETATM    2  N   UNL     1       5.446  27.216  51.587  1.00  0.00    -0.306 N 
HETATM    3  C   UNL     1       5.245  25.854  51.473  1.00  0.00     0.155 A 
HETATM    4  N   UNL     1       4.823  25.589  50.250  1.00  0.00    -0.132 NA
HETATM    5  N   UNL     1       4.698  26.772  49.571  1.00  0.00    -0.123 NA
ENDROOT
BRANCH   3   6
HETATM    6  C   UNL     1       5.454  24.851  52.555  1.00  0.00     0.256 C 
BRANCH   6   7
HETATM    7  O   UNL     1       6.869  24.737  52.728  1.00  0.00    -0.343 OA
BRANCH   7   8
HETATM    8  C   UNL     1       7.189  23.692  53.559  1.00  0.00     0.080 A 
HETATM    9  C   UNL     1       7.178  23.851  54.960  1.00  0.00     0.007 A 
HETATM   10  C   UNL     1       7.590  22.743  55.731  1.00  0.00     0.015 A 
HETATM   11  C   UNL     1       7.994  21.542  55.138  1.00  0.00     0.001 A 
HETATM   12  C   UNL     1       8.012  21.421  53.754  1.00  0.00     0.003 A 
HETATM   13  C   UNL     1       7.622  22.499  52.964  1.00  0.00     0.037 A 
BRANCH   9  14
HETATM   14  C   UNL     1       6.770  25.100  55.648  1.00  0.00    -0.023 A 
HETATM   15  C   UNL     1       5.501  25.214  56.250  1.00  0.00     0.012 A 
HETATM   16  C   UNL     1       5.119  26.367  56.943  1.00  0.00     0.001 A 
HETATM   17  C   UNL     1       5.998  27.440  57.041  1.00  0.00     0.000 A 
HETATM   18  C   UNL     1       7.254  27.359  56.446  1.00  0.00     0.001 A 
HETATM   19  C   UNL     1       7.636  26.200  55.763  1.00  0.00     0.012 A 
ENDBRANCH   9  14
ENDBRANCH   7   8
ENDBRANCH   6   7
ENDBRANCH   3   6
BRANCH   2  20
HETATM   20  C   UNL     1       6.077  27.920  52.690  1.00  0.00     0.159 C 
BRANCH  20  21
HETATM   21  C   UNL     1       5.165  28.682  53.609  1.00  0.00    -0.017 C 
HETATM   22  C   UNL     1       3.932  28.352  54.015  1.00  0.00     0.008 C 
ENDBRANCH  20  21
ENDBRANCH   2  20
BRANCH   1  23
HETATM   23  S   UNL     1       5.041  29.409  49.963  1.00  0.00    -0.081 SA
BRANCH  23  24
HETATM   24  C   UNL     1       3.278  29.782  50.129  1.00  0.00     0.185 C 
BRANCH  24  25
HETATM   25  C   UNL     1       2.355  29.267  49.035  1.00  0.00     0.226 C 
HETATM   26  N   UNL     1       1.818  28.012  49.166  1.00  0.00    -0.365 N 
HETATM   27  C   UNL     1       1.091  27.387  48.091  1.00  0.00     0.149 C 
HETATM   28  H   UNL     1       2.210  27.394  49.874  1.00  0.00     0.161 HD
HETATM   29  O   UNL     1       2.151  29.963  48.036  1.00  0.00    -0.273 OA
ENDBRANCH  24  25
ENDBRANCH  23  24
ENDBRANCH   1  23
TORSDOF 9
ENDMDL
MODEL 10
REMARK VINA RESULT:      -7.5      2.548      3.447
REMARK  9 active torsions:
REMARK  status: ('A' for Active; 'I' for Inactive)
REMARK       I    between atoms: N_2  and  C_3 
REMARK    1  A    between atoms: C_3  and  C_4 
REMARK    2  A    between atoms: C_4  and  S_5 
REMARK    3  A    between atoms: S_5  and  C_6 
REMARK    4  A    between atoms: N_7  and  C_8 
REMARK    5  A    between atoms: C_8  and  C_9 
REMARK    6  A    between atoms: C_11  and  C_12 
REMARK    7  A    between atoms: C_12  and  O_13 
REMARK    8  A    between atoms: O_13  and  C_14 
REMARK    9  A    between atoms: C_15  and  C_16 
ROOT
HETATM    1  C   UNL     1       5.839  28.926  56.971  1.00  0.00     0.192 A 
HETATM    2  N   UNL     1       6.816  28.049  57.356  1.00  0.00    -0.306 N 
HETATM    3  C   UNL     1       6.311  26.797  57.067  1.00  0.00     0.155 A 
HETATM    4  N   UNL     1       5.133  26.939  56.487  1.00  0.00    -0.132 NA
HETATM    5  N   UNL     1       4.836  28.275  56.436  1.00  0.00    -0.123 NA
ENDROOT
BRANCH   3   6
HETATM    6  C   UNL     1       6.977  25.498  57.372  1.00  0.00     0.256 C 
BRANCH   6   7
HETATM    7  O   UNL     1       7.841  25.221  56.266  1.00  0.00    -0.343 OA
BRANCH   7   8
HETATM    8  C   UNL     1       7.925  23.873  56.022  1.00  0.00     0.080 A 
HETATM    9  C   UNL     1       7.458  23.326  54.810  1.00  0.00     0.007 A 
HETATM   10  C   UNL     1       7.521  21.922  54.678  1.00  0.00     0.015 A 
HETATM   11  C   UNL     1       8.021  21.107  55.699  1.00  0.00     0.001 A 
HETATM   12  C   UNL     1       8.457  21.675  56.891  1.00  0.00     0.003 A 
HETATM   13  C   UNL     1       8.398  23.055  57.058  1.00  0.00     0.037 A 
BRANCH   9  14
HETATM   14  C   UNL     1       6.909  24.134  53.694  1.00  0.00    -0.023 A 
HETATM   15  C   UNL     1       5.586  24.617  53.733  1.00  0.00     0.012 A 
HETATM   16  C   UNL     1       5.069  25.419  52.711  1.00  0.00     0.001 A 
HETATM   17  C   UNL     1       5.863  25.749  51.618  1.00  0.00     0.000 A 
HETATM   18  C   UNL     1       7.170  25.276  51.548  1.00  0.00     0.001 A 
HETATM   19  C   UNL     1       7.688  24.483  52.578  1.00  0.00     0.012 A 
ENDBRANCH   9  14
ENDBRANCH   7   8
ENDBRANCH   6   7
ENDBRANCH   3   6
BRANCH   2  20
HETATM   20  C   UNL     1       8.154  28.368  57.825  1.00  0.00     0.159 C 
BRANCH  20  21
HETATM   21  C   UNL     1       9.166  28.728  56.775  1.00  0.00    -0.017 C 
HETATM   22  C   UNL     1      10.325  29.380  56.929  1.00  0.00     0.008 C 
ENDBRANCH  20  21
ENDBRANCH   2  20
BRANCH   1  23
HETATM   23  S   UNL     1       5.897  30.642  57.142  1.00  0.00    -0.081 SA
BRANCH  23  24
HETATM   24  C   UNL     1       4.239  31.093  56.571  1.00  0.00     0.185 C 
BRANCH  24  25
HETATM   25  C   UNL     1       3.531  32.213  57.318  1.00  0.00     0.226 C 
HETATM   26  N   UNL     1       3.380  33.424  56.694  1.00  0.00    -0.365 N 
HETATM   27  C   UNL     1       2.890  34.580  57.400  1.00  0.00     0.149 C 
HETATM   28  H   UNL     1       3.919  33.600  55.848  1.00  0.00     0.161 HD
HETATM   29  O   UNL     1       3.156  32.026  58.478  1.00  0.00    -0.273 OA
ENDBRANCH  24  25
ENDBRANCH  23  24
ENDBRANCH   1  23
TORSDOF 9
ENDMDL
