MODEL 1
REMARK VINA RESULT:     -11.0      0.000      0.000
REMARK  4 active torsions:
REMARK  status: ('A' for Active; 'I' for Inactive)
REMARK    1  A    between atoms: C_5  and  N_6 
REMARK       I    between atoms: N_6  and  C_7 
REMARK    2  A    between atoms: C_7  and  C_8 
REMARK    3  A    between atoms: C_12  and  C_13 
REMARK    4  A    between atoms: N_24  and  C_25 
ROOT
HETATM    1  N   UNL     1       6.351  32.045  59.520  1.00  0.00    -0.348 N 
HETATM    2  C   UNL     1       7.322  32.603  60.311  1.00  0.00     0.257 C 
HETATM    3  O   UNL     1       8.467  32.797  59.905  1.00  0.00    -0.267 OA
HETATM    4  H   UNL     1       5.404  31.950  59.887  1.00  0.00     0.163 HD
ENDROOT
BRANCH   1   5
HETATM    5  C   UNL     1       6.623  31.682  58.147  1.00  0.00     0.122 C 
HETATM    6  C   UNL     1       5.427  31.946  57.203  1.00  0.00     0.039 C 
HETATM    7  C   UNL     1       4.342  30.827  57.177  1.00  0.00    -0.040 C 
HETATM    8  C   UNL     1       3.315  31.176  56.079  1.00  0.00     0.015 C 
HETATM    9  C   UNL     1       3.584  30.758  58.518  1.00  0.00     0.015 C 
HETATM   10  C   UNL     1       4.960  29.430  56.852  1.00  0.00     0.069 C 
HETATM   11  C   UNL     1       6.283  29.232  57.520  1.00  0.00     0.047 A 
HETATM   12  C   UNL     1       7.030  30.254  58.086  1.00  0.00     0.008 A 
HETATM   13  N   UNL     1       7.091  28.097  57.526  1.00  0.00    -0.238 N 
HETATM   14  C   UNL     1       8.235  29.656  58.461  1.00  0.00     0.150 A 
HETATM   15  N   UNL     1       8.292  28.374  58.117  1.00  0.00    -0.179 NA
BRANCH  13  16
HETATM   16  C   UNL     1       6.886  26.789  56.982  1.00  0.00     0.058 A 
HETATM   17  C   UNL     1       7.809  25.776  57.307  1.00  0.00     0.031 A 
HETATM   18  C   UNL     1       7.679  24.489  56.779  1.00  0.00     0.002 A 
HETATM   19  C   UNL     1       6.612  24.189  55.939  1.00  0.00     0.000 A 
HETATM   20  C   UNL     1       5.676  25.172  55.632  1.00  0.00     0.002 A 
HETATM   21  C   UNL     1       5.812  26.467  56.149  1.00  0.00     0.031 A 
ENDBRANCH  13  16
ENDBRANCH   1   5
BRANCH   2  22
HETATM   22  C   UNL     1       6.926  32.956  61.703  1.00  0.00     0.100 A 
HETATM   23  C   UNL     1       5.599  33.533  62.083  1.00  0.00     0.261 A 
HETATM   24  O   UNL     1       4.729  33.771  61.249  1.00  0.00    -0.267 OA
HETATM   25  N   UNL     1       5.400  33.785  63.422  1.00  0.00    -0.322 N 
HETATM   26  C   UNL     1       6.330  33.536  64.401  1.00  0.00     0.045 A 
HETATM   27  H   UNL     1       4.497  34.166  63.680  1.00  0.00     0.169 HD
HETATM   28  C   UNL     1       7.525  33.026  64.068  1.00  0.00     0.031 A 
HETATM   29  C   UNL     1       7.822  32.734  62.684  1.00  0.00     0.025 A 
BRANCH  26  30
HETATM   30  C   UNL     1       5.993  33.839  65.794  1.00  0.00    -0.009 A 
HETATM   31  C   UNL     1       4.655  33.887  66.203  1.00  0.00     0.013 A 
HETATM   32  C   UNL     1       4.334  34.211  67.522  1.00  0.00     0.001 A 
HETATM   33  C   UNL     1       5.347  34.487  68.440  1.00  0.00     0.000 A 
HETATM   34  C   UNL     1       6.681  34.438  68.042  1.00  0.00     0.001 A 
HETATM   35  C   UNL     1       7.005  34.116  66.722  1.00  0.00     0.013 A 
ENDBRANCH  26  30
ENDBRANCH   2  22
TORSDOF 4
ENDMDL
MODEL 2
REMARK VINA RESULT:     -10.4      1.685      2.105
REMARK  4 active torsions:
REMARK  status: ('A' for Active; 'I' for Inactive)
REMARK    1  A    between atoms: C_5  and  N_6 
REMARK       I    between atoms: N_6  and  C_7 
REMARK    2  A    between atoms: C_7  and  C_8 
REMARK    3  A    between atoms: C_12  and  C_13 
REMARK    4  A    between atoms: N_24  and  C_25 
ROOT
HETATM    1  N   UNL     1       6.876  30.792  58.389  1.00  0.00    -0.348 N 
HETATM    2  C   UNL     1       7.809  31.502  59.100  1.00  0.00     0.257 C 
HETATM    3  O   UNL     1       8.913  31.784  58.636  1.00  0.00    -0.267 OA
HETATM    4  H   UNL     1       5.958  30.625  58.802  1.00  0.00     0.163 HD
ENDROOT
BRANCH   1   5
HETATM    5  C   UNL     1       7.137  30.364  57.033  1.00  0.00     0.122 C 
HETATM    6  C   UNL     1       5.910  30.515  56.104  1.00  0.00     0.039 C 
HETATM    7  C   UNL     1       4.882  29.346  56.166  1.00  0.00    -0.040 C 
HETATM    8  C   UNL     1       3.816  29.581  55.076  1.00  0.00     0.015 C 
HETATM    9  C   UNL     1       4.156  29.316  57.528  1.00  0.00     0.015 C 
HETATM   10  C   UNL     1       5.562  27.964  55.907  1.00  0.00     0.069 C 
HETATM   11  C   UNL     1       6.907  27.869  56.553  1.00  0.00     0.047 A 
HETATM   12  C   UNL     1       7.614  28.956  57.042  1.00  0.00     0.008 A 
HETATM   13  N   UNL     1       7.770  26.776  56.603  1.00  0.00    -0.238 N 
HETATM   14  C   UNL     1       8.855  28.440  57.422  1.00  0.00     0.150 A 
HETATM   15  N   UNL     1       8.968  27.145  57.150  1.00  0.00    -0.179 NA
BRANCH  13  16
HETATM   16  C   UNL     1       7.620  25.432  56.139  1.00  0.00     0.058 A 
HETATM   17  C   UNL     1       8.173  24.391  56.909  1.00  0.00     0.031 A 
HETATM   18  C   UNL     1       8.086  23.061  56.489  1.00  0.00     0.002 A 
HETATM   19  C   UNL     1       7.424  22.749  55.306  1.00  0.00     0.000 A 
HETATM   20  C   UNL     1       6.847  23.765  54.548  1.00  0.00     0.002 A 
HETATM   21  C   UNL     1       6.945  25.100  54.961  1.00  0.00     0.031 A 
ENDBRANCH  13  16
ENDBRANCH   1   5
BRANCH   2  22
HETATM   22  C   UNL     1       7.426  31.907  60.482  1.00  0.00     0.100 A 
HETATM   23  C   UNL     1       8.068  31.379  61.725  1.00  0.00     0.261 A 
HETATM   24  O   UNL     1       8.969  30.545  61.690  1.00  0.00    -0.267 OA
HETATM   25  N   UNL     1       7.595  31.876  62.920  1.00  0.00    -0.322 N 
HETATM   26  C   UNL     1       6.595  32.811  63.024  1.00  0.00     0.045 A 
HETATM   27  H   UNL     1       8.037  31.525  63.761  1.00  0.00     0.169 HD
HETATM   28  C   UNL     1       6.009  33.285  61.914  1.00  0.00     0.031 A 
HETATM   29  C   UNL     1       6.440  32.814  60.617  1.00  0.00     0.025 A 
BRANCH  26  30
HETATM   30  C   UNL     1       6.187  33.269  64.354  1.00  0.00    -0.009 A 
HETATM   31  C   UNL     1       4.831  33.435  64.659  1.00  0.00     0.013 A 
HETATM   32  C   UNL     1       4.445  33.906  65.916  1.00  0.00     0.001 A 
HETATM   33  C   UNL     1       5.411  34.212  66.874  1.00  0.00     0.000 A 
HETATM   34  C   UNL     1       6.763  34.047  66.579  1.00  0.00     0.001 A 
HETATM   35  C   UNL     1       7.151  33.578  65.322  1.00  0.00     0.013 A 
ENDBRANCH  26  30
ENDBRANCH   2  22
TORSDOF 4
ENDMDL
MODEL 3
REMARK VINA RESULT:     -10.1      9.254     12.452
REMARK  4 active torsions:
REMARK  status: ('A' for Active; 'I' for Inactive)
REMARK    1  A    between atoms: C_5  and  N_6 
REMARK       I    between atoms: N_6  and  C_7 
REMARK    2  A    between atoms: C_7  and  C_8 
REMARK    3  A    between atoms: C_12  and  C_13 
REMARK    4  A    between atoms: N_24  and  C_25 
ROOT
HETATM    1  N   UNL     1       4.212  27.685  51.232  1.00  0.00    -0.348 N 
HETATM    2  C   UNL     1       4.230  27.437  52.580  1.00  0.00     0.257 C 
HETATM    3  O   UNL     1       3.605  28.129  53.382  1.00  0.00    -0.267 OA
HETATM    4  H   UNL     1       4.709  27.053  50.603  1.00  0.00     0.163 HD
ENDROOT
BRANCH   1   5
HETATM    5  C   UNL     1       3.425  28.765  50.680  1.00  0.00     0.122 C 
HETATM    6  C   UNL     1       2.552  28.327  49.482  1.00  0.00     0.039 C 
HETATM    7  C   UNL     1       3.281  28.293  48.105  1.00  0.00    -0.040 C 
HETATM    8  C   UNL     1       2.235  27.991  47.012  1.00  0.00     0.015 C 
HETATM    9  C   UNL     1       4.335  27.167  48.063  1.00  0.00     0.015 C 
HETATM   10  C   UNL     1       3.962  29.659  47.778  1.00  0.00     0.069 C 
HETATM   11  C   UNL     1       4.585  30.281  48.987  1.00  0.00     0.047 A 
HETATM   12  C   UNL     1       4.325  29.881  50.289  1.00  0.00     0.008 A 
HETATM   13  N   UNL     1       5.338  31.451  49.071  1.00  0.00    -0.238 N 
HETATM   14  C   UNL     1       4.995  30.807  51.092  1.00  0.00     0.150 A 
HETATM   15  N   UNL     1       5.589  31.758  50.379  1.00  0.00    -0.179 NA
BRANCH  13  16
HETATM   16  C   UNL     1       5.800  32.350  48.060  1.00  0.00     0.058 A 
HETATM   17  C   UNL     1       6.896  33.184  48.355  1.00  0.00     0.031 A 
HETATM   18  C   UNL     1       7.371  34.106  47.419  1.00  0.00     0.002 A 
HETATM   19  C   UNL     1       6.773  34.192  46.166  1.00  0.00     0.000 A 
HETATM   20  C   UNL     1       5.707  33.355  45.849  1.00  0.00     0.002 A 
HETATM   21  C   UNL     1       5.221  32.439  46.791  1.00  0.00     0.031 A 
ENDBRANCH  13  16
ENDBRANCH   1   5
BRANCH   2  22
HETATM   22  C   UNL     1       5.061  26.286  53.035  1.00  0.00     0.100 A 
HETATM   23  C   UNL     1       5.587  26.123  54.425  1.00  0.00     0.261 A 
HETATM   24  O   UNL     1       5.373  26.953  55.305  1.00  0.00    -0.267 OA
HETATM   25  N   UNL     1       6.328  24.988  54.672  1.00  0.00    -0.322 N 
HETATM   26  C   UNL     1       6.596  24.023  53.733  1.00  0.00     0.045 A 
HETATM   27  H   UNL     1       6.675  24.873  55.616  1.00  0.00     0.169 HD
HETATM   28  C   UNL     1       6.134  24.165  52.482  1.00  0.00     0.031 A 
HETATM   29  C   UNL     1       5.351  25.329  52.133  1.00  0.00     0.025 A 
BRANCH  26  30
HETATM   30  C   UNL     1       7.388  22.854  54.123  1.00  0.00    -0.009 A 
HETATM   31  C   UNL     1       7.935  22.014  53.146  1.00  0.00     0.013 A 
HETATM   32  C   UNL     1       8.660  20.880  53.518  1.00  0.00     0.001 A 
HETATM   33  C   UNL     1       8.844  20.581  54.868  1.00  0.00     0.000 A 
HETATM   34  C   UNL     1       8.305  21.415  55.847  1.00  0.00     0.001 A 
HETATM   35  C   UNL     1       7.578  22.548  55.476  1.00  0.00     0.013 A 
ENDBRANCH  26  30
ENDBRANCH   2  22
TORSDOF 4
ENDMDL
MODEL 4
REMARK VINA RESULT:      -9.9      7.172     11.294
REMARK  4 active torsions:
REMARK  status: ('A' for Active; 'I' for Inactive)
REMARK    1  A    between atoms: C_5  and  N_6 
REMARK       I    between atoms: N_6  and  C_7 
REMARK    2  A    between atoms: C_7  and  C_8 
REMARK    3  A    between atoms: C_12  and  C_13 
REMARK    4  A    between atoms: N_24  and  C_25 
ROOT
HETATM    1  N   UNL     1       5.483  28.908  53.319  1.00  0.00    -0.348 N 
HETATM    2  C   UNL     1       4.471  29.382  52.524  1.00  0.00     0.257 C 
HETATM    3  O   UNL     1       3.300  29.043  52.682  1.00  0.00    -0.267 OA
HETATM    4  H   UNL     1       6.432  29.256  53.177  1.00  0.00     0.163 HD
ENDROOT
BRANCH   1   5
HETATM    5  C   UNL     1       5.212  28.001  54.412  1.00  0.00     0.122 C 
HETATM    6  C   UNL     1       5.987  28.360  55.701  1.00  0.00     0.039 C 
HETATM    7  C   UNL     1       7.453  27.834  55.764  1.00  0.00    -0.040 C 
HETATM    8  C   UNL     1       8.017  28.143  57.166  1.00  0.00     0.015 C 
HETATM    9  C   UNL     1       8.346  28.556  54.733  1.00  0.00     0.015 C 
HETATM   10  C   UNL     1       7.524  26.292  55.528  1.00  0.00     0.069 C 
HETATM   11  C   UNL     1       6.567  25.840  54.472  1.00  0.00     0.047 A 
HETATM   12  C   UNL     1       5.521  26.610  53.988  1.00  0.00     0.008 A 
HETATM   13  N   UNL     1       6.399  24.562  53.942  1.00  0.00    -0.238 N 
HETATM   14  C   UNL     1       4.811  25.762  53.136  1.00  0.00     0.150 A 
HETATM   15  N   UNL     1       5.313  24.533  53.113  1.00  0.00    -0.179 NA
BRANCH  13  16
HETATM   16  C   UNL     1       7.111  23.343  54.174  1.00  0.00     0.058 A 
HETATM   17  C   UNL     1       7.634  22.651  53.064  1.00  0.00     0.031 A 
HETATM   18  C   UNL     1       8.310  21.439  53.227  1.00  0.00     0.002 A 
HETATM   19  C   UNL     1       8.494  20.912  54.500  1.00  0.00     0.000 A 
HETATM   20  C   UNL     1       8.007  21.599  55.609  1.00  0.00     0.002 A 
HETATM   21  C   UNL     1       7.318  22.808  55.448  1.00  0.00     0.031 A 
ENDBRANCH  13  16
ENDBRANCH   1   5
BRANCH   2  22
HETATM   22  C   UNL     1       4.863  30.325  51.439  1.00  0.00     0.100 A 
HETATM   23  C   UNL     1       4.592  31.795  51.461  1.00  0.00     0.261 A 
HETATM   24  O   UNL     1       4.004  32.336  52.393  1.00  0.00    -0.267 OA
HETATM   25  N   UNL     1       5.039  32.518  50.376  1.00  0.00    -0.322 N 
HETATM   26  C   UNL     1       5.706  31.972  49.307  1.00  0.00     0.045 A 
HETATM   27  H   UNL     1       4.864  33.516  50.396  1.00  0.00     0.169 HD
HETATM   28  C   UNL     1       5.946  30.653  49.276  1.00  0.00     0.031 A 
HETATM   29  C   UNL     1       5.509  29.817  50.371  1.00  0.00     0.025 A 
BRANCH  26  30
HETATM   30  C   UNL     1       6.139  32.850  48.218  1.00  0.00    -0.009 A 
HETATM   31  C   UNL     1       5.491  32.809  46.977  1.00  0.00     0.013 A 
HETATM   32  C   UNL     1       5.927  33.620  45.928  1.00  0.00     0.001 A 
HETATM   33  C   UNL     1       7.012  34.478  46.113  1.00  0.00     0.000 A 
HETATM   34  C   UNL     1       7.659  34.527  47.346  1.00  0.00     0.001 A 
HETATM   35  C   UNL     1       7.226  33.715  48.396  1.00  0.00     0.013 A 
ENDBRANCH  26  30
ENDBRANCH   2  22
TORSDOF 4
ENDMDL
MODEL 5
REMARK VINA RESULT:      -9.9      9.480     12.348
REMARK  4 active torsions:
REMARK  status: ('A' for Active; 'I' for Inactive)
REMARK    1  A    between atoms: C_5  and  N_6 
REMARK       I    between atoms: N_6  and  C_7 
REMARK    2  A    between atoms: C_7  and  C_8 
REMARK    3  A    between atoms: C_12  and  C_13 
REMARK    4  A    between atoms: N_24  and  C_25 
ROOT
HETATM    1  N   UNL     1       5.850  27.456  50.993  1.00  0.00    -0.348 N 
HETATM    2  C   UNL     1       6.469  27.502  52.216  1.00  0.00     0.257 C 
HETATM    3  O   UNL     1       6.765  28.564  52.761  1.00  0.00    -0.267 OA
HETATM    4  H   UNL     1       5.582  26.551  50.605  1.00  0.00     0.163 HD
ENDROOT
BRANCH   1   5
HETATM    5  C   UNL     1       5.484  28.668  50.294  1.00  0.00     0.122 C 
HETATM    6  C   UNL     1       4.893  29.750  51.228  1.00  0.00     0.039 C 
HETATM    7  C   UNL     1       3.375  29.596  51.545  1.00  0.00    -0.040 C 
HETATM    8  C   UNL     1       2.922  30.833  52.350  1.00  0.00     0.015 C 
HETATM    9  C   UNL     1       3.113  28.351  52.418  1.00  0.00     0.015 C 
HETATM   10  C   UNL     1       2.518  29.511  50.242  1.00  0.00     0.069 C 
HETATM   11  C   UNL     1       3.190  28.701  49.180  1.00  0.00     0.047 A 
HETATM   12  C   UNL     1       4.527  28.340  49.205  1.00  0.00     0.008 A 
HETATM   13  N   UNL     1       2.704  28.345  47.923  1.00  0.00    -0.238 N 
HETATM   14  C   UNL     1       4.760  27.724  47.973  1.00  0.00     0.150 A 
HETATM   15  N   UNL     1       3.685  27.736  47.192  1.00  0.00    -0.179 NA
BRANCH  13  16
HETATM   16  C   UNL     1       1.433  28.567  47.304  1.00  0.00     0.058 A 
HETATM   17  C   UNL     1       0.765  27.466  46.733  1.00  0.00     0.031 A 
HETATM   18  C   UNL     1      -0.463  27.628  46.086  1.00  0.00     0.002 A 
HETATM   19  C   UNL     1      -1.052  28.886  46.020  1.00  0.00     0.000 A 
HETATM   20  C   UNL     1      -0.417  29.978  46.605  1.00  0.00     0.002 A 
HETATM   21  C   UNL     1       0.820  29.821  47.243  1.00  0.00     0.031 A 
ENDBRANCH  13  16
ENDBRANCH   1   5
BRANCH   2  22
HETATM   22  C   UNL     1       6.782  26.192  52.853  1.00  0.00     0.100 A 
HETATM   23  C   UNL     1       6.165  25.702  54.124  1.00  0.00     0.261 A 
HETATM   24  O   UNL     1       5.344  26.369  54.749  1.00  0.00    -0.267 OA
HETATM   25  N   UNL     1       6.563  24.459  54.561  1.00  0.00    -0.322 N 
HETATM   26  C   UNL     1       7.471  23.665  53.905  1.00  0.00     0.045 A 
HETATM   27  H   UNL     1       6.136  24.123  55.417  1.00  0.00     0.169 HD
HETATM   28  C   UNL     1       8.036  24.099  52.769  1.00  0.00     0.031 A 
HETATM   29  C   UNL     1       7.679  25.396  52.239  1.00  0.00     0.025 A 
BRANCH  26  30
HETATM   30  C   UNL     1       7.805  22.355  54.468  1.00  0.00    -0.009 A 
HETATM   31  C   UNL     1       7.749  22.145  55.851  1.00  0.00     0.013 A 
HETATM   32  C   UNL     1       8.103  20.906  56.390  1.00  0.00     0.001 A 
HETATM   33  C   UNL     1       8.512  19.871  55.550  1.00  0.00     0.000 A 
HETATM   34  C   UNL     1       8.567  20.070  54.172  1.00  0.00     0.001 A 
HETATM   35  C   UNL     1       8.216  21.310  53.632  1.00  0.00     0.013 A 
ENDBRANCH  26  30
ENDBRANCH   2  22
TORSDOF 4
ENDMDL
MODEL 6
REMARK VINA RESULT:      -9.4      9.519     12.764
REMARK  4 active torsions:
REMARK  status: ('A' for Active; 'I' for Inactive)
REMARK    1  A    between atoms: C_5  and  N_6 
REMARK       I    between atoms: N_6  and  C_7 
REMARK    2  A    between atoms: C_7  and  C_8 
REMARK    3  A    between atoms: C_12  and  C_13 
REMARK    4  A    between atoms: N_24  and  C_25 
ROOT
HETATM    1  N   UNL     1       4.456  29.048  50.660  1.00  0.00    -0.348 N 
HETATM    2  C   UNL     1       4.124  28.544  51.891  1.00  0.00     0.257 C 
HETATM    3  O   UNL     1       3.285  29.079  52.614  1.00  0.00    -0.267 OA
HETATM    4  H   UNL     1       5.123  28.541  50.078  1.00  0.00     0.163 HD
ENDROOT
BRANCH   1   5
HETATM    5  C   UNL     1       3.805  30.228  50.135  1.00  0.00     0.122 C 
HETATM    6  C   UNL     1       2.732  29.903  49.069  1.00  0.00     0.039 C 
HETATM    7  C   UNL     1       3.276  29.686  47.624  1.00  0.00    -0.040 C 
HETATM    8  C   UNL     1       2.071  29.531  46.673  1.00  0.00     0.015 C 
HETATM    9  C   UNL     1       4.110  28.391  47.534  1.00  0.00     0.015 C 
HETATM   10  C   UNL     1       4.136  30.897  47.142  1.00  0.00     0.069 C 
HETATM   11  C   UNL     1       4.995  31.446  48.236  1.00  0.00     0.047 A 
HETATM   12  C   UNL     1       4.829  31.151  49.580  1.00  0.00     0.008 A 
HETATM   13  N   UNL     1       5.942  32.467  48.166  1.00  0.00    -0.238 N 
HETATM   14  C   UNL     1       5.738  31.975  50.247  1.00  0.00     0.150 A 
HETATM   15  N   UNL     1       6.396  32.777  49.417  1.00  0.00    -0.179 NA
BRANCH  13  16
HETATM   16  C   UNL     1       6.428  33.230  47.058  1.00  0.00     0.058 A 
HETATM   17  C   UNL     1       7.404  34.216  47.299  1.00  0.00     0.031 A 
HETATM   18  C   UNL     1       7.891  35.014  46.261  1.00  0.00     0.002 A 
HETATM   19  C   UNL     1       7.428  34.824  44.963  1.00  0.00     0.000 A 
HETATM   20  C   UNL     1       6.484  33.833  44.704  1.00  0.00     0.002 A 
HETATM   21  C   UNL     1       5.985  33.041  45.745  1.00  0.00     0.031 A 
ENDBRANCH  13  16
ENDBRANCH   1   5
BRANCH   2  22
HETATM   22  C   UNL     1       4.845  27.314  52.323  1.00  0.00     0.100 A 
HETATM   23  C   UNL     1       5.314  26.240  51.394  1.00  0.00     0.261 A 
HETATM   24  O   UNL     1       5.122  26.297  50.182  1.00  0.00    -0.267 OA
HETATM   25  N   UNL     1       5.977  25.178  51.968  1.00  0.00    -0.322 N 
HETATM   26  C   UNL     1       6.226  25.060  53.313  1.00  0.00     0.045 A 
HETATM   27  H   UNL     1       6.304  24.456  51.337  1.00  0.00     0.169 HD
HETATM   28  C   UNL     1       5.802  26.015  54.154  1.00  0.00     0.031 A 
HETATM   29  C   UNL     1       5.094  27.164  53.639  1.00  0.00     0.025 A 
BRANCH  26  30
HETATM   30  C   UNL     1       6.952  23.885  53.800  1.00  0.00    -0.009 A 
HETATM   31  C   UNL     1       7.554  23.001  52.896  1.00  0.00     0.013 A 
HETATM   32  C   UNL     1       8.214  21.861  53.359  1.00  0.00     0.001 A 
HETATM   33  C   UNL     1       8.279  21.600  54.727  1.00  0.00     0.000 A 
HETATM   34  C   UNL     1       7.686  22.476  55.634  1.00  0.00     0.001 A 
HETATM   35  C   UNL     1       7.022  23.615  55.172  1.00  0.00     0.013 A 
ENDBRANCH  26  30
ENDBRANCH   2  22
TORSDOF 4
ENDMDL
MODEL 7
REMARK VINA RESULT:      -9.1      9.148     12.550
REMARK  4 active torsions:
REMARK  status: ('A' for Active; 'I' for Inactive)
REMARK    1  A    between atoms: C_5  and  N_6 
REMARK       I    between atoms: N_6  and  C_7 
REMARK    2  A    between atoms: C_7  and  C_8 
REMARK    3  A    between atoms: C_12  and  C_13 
REMARK    4  A    between atoms: N_24  and  C_25 
ROOT
HETATM    1  N   UNL     1       4.462  29.551  50.905  1.00  0.00    -0.348 N 
HETATM    2  C   UNL     1       3.809  28.713  51.770  1.00  0.00     0.257 C 
HETATM    3  O   UNL     1       2.636  28.889  52.094  1.00  0.00    -0.267 OA
HETATM    4  H   UNL     1       5.421  29.335  50.630  1.00  0.00     0.163 HD
ENDROOT
BRANCH   1   5
HETATM    5  C   UNL     1       3.785  30.678  50.302  1.00  0.00     0.122 C 
HETATM    6  C   UNL     1       3.027  30.306  49.007  1.00  0.00     0.039 C 
HETATM    7  C   UNL     1       3.897  30.268  47.715  1.00  0.00    -0.040 C 
HETATM    8  C   UNL     1       2.961  30.038  46.509  1.00  0.00     0.015 C 
HETATM    9  C   UNL     1       4.900  29.097  47.755  1.00  0.00     0.015 C 
HETATM   10  C   UNL     1       4.667  31.610  47.497  1.00  0.00     0.069 C 
HETATM   11  C   UNL     1       5.182  32.176  48.781  1.00  0.00     0.047 A 
HETATM   12  C   UNL     1       4.769  31.761  50.037  1.00  0.00     0.008 A 
HETATM   13  N   UNL     1       5.972  33.308  48.975  1.00  0.00    -0.238 N 
HETATM   14  C   UNL     1       5.388  32.637  50.931  1.00  0.00     0.150 A 
HETATM   15  N   UNL     1       6.095  33.576  50.310  1.00  0.00    -0.179 NA
BRANCH  13  16
HETATM   16  C   UNL     1       6.578  34.208  48.043  1.00  0.00     0.058 A 
HETATM   17  C   UNL     1       6.166  35.555  48.046  1.00  0.00     0.031 A 
HETATM   18  C   UNL     1       6.699  36.471  47.136  1.00  0.00     0.002 A 
HETATM   19  C   UNL     1       7.667  36.062  46.225  1.00  0.00     0.000 A 
HETATM   20  C   UNL     1       8.104  34.740  46.228  1.00  0.00     0.002 A 
HETATM   21  C   UNL     1       7.562  33.816  47.131  1.00  0.00     0.031 A 
ENDBRANCH  13  16
ENDBRANCH   1   5
BRANCH   2  22
HETATM   22  C   UNL     1       4.599  27.573  52.317  1.00  0.00     0.100 A 
HETATM   23  C   UNL     1       4.834  27.331  53.773  1.00  0.00     0.261 A 
HETATM   24  O   UNL     1       4.389  28.080  54.639  1.00  0.00    -0.267 OA
HETATM   25  N   UNL     1       5.578  26.218  54.099  1.00  0.00    -0.322 N 
HETATM   26  C   UNL     1       6.096  25.341  53.179  1.00  0.00     0.045 A 
HETATM   27  H   UNL     1       5.728  26.049  55.086  1.00  0.00     0.169 HD
HETATM   28  C   UNL     1       5.897  25.555  51.870  1.00  0.00     0.031 A 
HETATM   29  C   UNL     1       5.131  26.702  51.437  1.00  0.00     0.025 A 
BRANCH  26  30
HETATM   30  C   UNL     1       6.863  24.187  53.652  1.00  0.00    -0.009 A 
HETATM   31  C   UNL     1       6.899  23.874  55.017  1.00  0.00     0.013 A 
HETATM   32  C   UNL     1       7.659  22.795  55.472  1.00  0.00     0.001 A 
HETATM   33  C   UNL     1       8.386  22.022  54.566  1.00  0.00     0.000 A 
HETATM   34  C   UNL     1       8.353  22.325  53.206  1.00  0.00     0.001 A 
HETATM   35  C   UNL     1       7.595  23.405  52.750  1.00  0.00     0.013 A 
ENDBRANCH  26  30
ENDBRANCH   2  22
TORSDOF 4
ENDMDL
MODEL 8
REMARK VINA RESULT:      -8.7      8.836     12.356
REMARK  4 active torsions:
REMARK  status: ('A' for Active; 'I' for Inactive)
REMARK    1  A    between atoms: C_5  and  N_6 
REMARK       I    between atoms: N_6  and  C_7 
REMARK    2  A    between atoms: C_7  and  C_8 
REMARK    3  A    between atoms: C_12  and  C_13 
REMARK    4  A    between atoms: N_24  and  C_25 
ROOT
HETATM    1  N   UNL     1       4.808  29.420  51.703  1.00  0.00    -0.348 N 
HETATM    2  C   UNL     1       4.843  28.942  52.987  1.00  0.00     0.257 C 
HETATM    3  O   UNL     1       4.446  29.605  53.944  1.00  0.00    -0.267 OA
HETATM    4  H   UNL     1       5.105  28.813  50.938  1.00  0.00     0.163 HD
ENDROOT
BRANCH   1   5
HETATM    5  C   UNL     1       4.268  30.728  51.406  1.00  0.00     0.122 C 
HETATM    6  C   UNL     1       2.723  30.742  51.330  1.00  0.00     0.039 C 
HETATM    7  C   UNL     1       2.121  30.296  49.963  1.00  0.00    -0.040 C 
HETATM    8  C   UNL     1       0.595  30.519  50.012  1.00  0.00     0.015 C 
HETATM    9  C   UNL     1       2.364  28.793  49.713  1.00  0.00     0.015 C 
HETATM   10  C   UNL     1       2.706  31.125  48.776  1.00  0.00     0.069 C 
HETATM   11  C   UNL     1       4.167  31.396  48.946  1.00  0.00     0.047 A 
HETATM   12  C   UNL     1       4.857  31.228  50.136  1.00  0.00     0.008 A 
HETATM   13  N   UNL     1       5.039  32.034  48.065  1.00  0.00    -0.238 N 
HETATM   14  C   UNL     1       6.138  31.723  49.885  1.00  0.00     0.150 A 
HETATM   15  N   UNL     1       6.256  32.222  48.659  1.00  0.00    -0.179 NA
BRANCH  13  16
HETATM   16  C   UNL     1       4.842  32.543  46.743  1.00  0.00     0.058 A 
HETATM   17  C   UNL     1       4.658  31.624  45.692  1.00  0.00     0.031 A 
HETATM   18  C   UNL     1       4.494  32.063  44.375  1.00  0.00     0.002 A 
HETATM   19  C   UNL     1       4.486  33.424  44.093  1.00  0.00     0.000 A 
HETATM   20  C   UNL     1       4.638  34.345  45.126  1.00  0.00     0.002 A 
HETATM   21  C   UNL     1       4.816  33.908  46.445  1.00  0.00     0.031 A 
ENDBRANCH  13  16
ENDBRANCH   1   5
BRANCH   2  22
HETATM   22  C   UNL     1       5.403  27.574  53.174  1.00  0.00     0.100 A 
HETATM   23  C   UNL     1       5.352  26.493  52.143  1.00  0.00     0.261 A 
HETATM   24  O   UNL     1       4.822  26.661  51.048  1.00  0.00    -0.267 OA
HETATM   25  N   UNL     1       5.934  25.291  52.483  1.00  0.00    -0.322 N 
HETATM   26  C   UNL     1       6.545  25.045  53.687  1.00  0.00     0.045 A 
HETATM   27  H   UNL     1       5.908  24.563  51.780  1.00  0.00     0.169 HD
HETATM   28  C   UNL     1       6.589  26.006  54.621  1.00  0.00     0.031 A 
HETATM   29  C   UNL     1       5.999  27.298  54.351  1.00  0.00     0.025 A 
BRANCH  26  30
HETATM   30  C   UNL     1       7.137  23.726  53.925  1.00  0.00    -0.009 A 
HETATM   31  C   UNL     1       7.601  22.956  52.852  1.00  0.00     0.013 A 
HETATM   32  C   UNL     1       8.132  21.684  53.076  1.00  0.00     0.001 A 
HETATM   33  C   UNL     1       8.204  21.176  54.373  1.00  0.00     0.000 A 
HETATM   34  C   UNL     1       7.747  21.938  55.447  1.00  0.00     0.001 A 
HETATM   35  C   UNL     1       7.214  23.209  55.224  1.00  0.00     0.013 A 
ENDBRANCH  26  30
ENDBRANCH   2  22
TORSDOF 4
ENDMDL
MODEL 9
REMARK VINA RESULT:      -8.4      8.133     11.828
REMARK  4 active torsions:
REMARK  status: ('A' for Active; 'I' for Inactive)
REMARK    1  A    between atoms: C_5  and  N_6 
REMARK       I    between atoms: N_6  and  C_7 
REMARK    2  A    between atoms: C_7  and  C_8 
REMARK    3  A    between atoms: C_12  and  C_13 
REMARK    4  A    between atoms: N_24  and  C_25 
ROOT
HETATM    1  N   UNL     1       4.515  30.220  52.230  1.00  0.00    -0.348 N 
HETATM    2  C   UNL     1       3.842  29.026  52.170  1.00  0.00     0.257 C 
HETATM    3  O   UNL     1       2.684  28.946  51.764  1.00  0.00    -0.267 OA
HETATM    4  H   UNL     1       5.490  30.227  52.530  1.00  0.00     0.163 HD
ENDROOT
BRANCH   1   5
HETATM    5  C   UNL     1       3.897  31.449  51.785  1.00  0.00     0.122 C 
HETATM    6  C   UNL     1       3.754  31.531  50.247  1.00  0.00     0.039 C 
HETATM    7  C   UNL     1       5.025  32.014  49.486  1.00  0.00    -0.040 C 
HETATM    8  C   UNL     1       4.660  32.186  47.997  1.00  0.00     0.015 C 
HETATM    9  C   UNL     1       6.154  30.966  49.570  1.00  0.00     0.015 C 
HETATM   10  C   UNL     1       5.540  33.383  50.033  1.00  0.00     0.069 C 
HETATM   11  C   UNL     1       5.428  33.472  51.521  1.00  0.00     0.047 A 
HETATM   12  C   UNL     1       4.675  32.607  52.298  1.00  0.00     0.008 A 
HETATM   13  N   UNL     1       5.852  34.499  52.363  1.00  0.00    -0.238 N 
HETATM   14  C   UNL     1       4.739  33.132  53.591  1.00  0.00     0.150 A 
HETATM   15  N   UNL     1       5.423  34.269  53.641  1.00  0.00    -0.179 NA
BRANCH  13  16
HETATM   16  C   UNL     1       6.567  35.708  52.092  1.00  0.00     0.058 A 
HETATM   17  C   UNL     1       7.593  36.092  52.977  1.00  0.00     0.031 A 
HETATM   18  C   UNL     1       8.303  37.280  52.782  1.00  0.00     0.002 A 
HETATM   19  C   UNL     1       8.015  38.089  51.688  1.00  0.00     0.000 A 
HETATM   20  C   UNL     1       7.022  37.707  50.789  1.00  0.00     0.002 A 
HETATM   21  C   UNL     1       6.301  36.524  50.989  1.00  0.00     0.031 A 
ENDBRANCH  13  16
ENDBRANCH   1   5
BRANCH   2  22
HETATM   22  C   UNL     1       4.582  27.821  52.638  1.00  0.00     0.100 A 
HETATM   23  C   UNL     1       4.903  27.530  54.070  1.00  0.00     0.261 A 
HETATM   24  O   UNL     1       4.580  28.291  54.978  1.00  0.00    -0.267 OA
HETATM   25  N   UNL     1       5.584  26.359  54.321  1.00  0.00    -0.322 N 
HETATM   26  C   UNL     1       5.968  25.467  53.351  1.00  0.00     0.045 A 
HETATM   27  H   UNL     1       5.792  26.158  55.292  1.00  0.00     0.169 HD
HETATM   28  C   UNL     1       5.691  25.724  52.064  1.00  0.00     0.031 A 
HETATM   29  C   UNL     1       4.983  26.932  51.708  1.00  0.00     0.025 A 
BRANCH  26  30
HETATM   30  C   UNL     1       6.679  24.250  53.748  1.00  0.00    -0.009 A 
HETATM   31  C   UNL     1       6.808  23.916  55.101  1.00  0.00     0.013 A 
HETATM   32  C   UNL     1       7.517  22.775  55.481  1.00  0.00     0.001 A 
HETATM   33  C   UNL     1       8.099  21.960  54.510  1.00  0.00     0.000 A 
HETATM   34  C   UNL     1       7.972  22.283  53.160  1.00  0.00     0.001 A 
HETATM   35  C   UNL     1       7.266  23.426  52.779  1.00  0.00     0.013 A 
ENDBRANCH  26  30
ENDBRANCH   2  22
TORSDOF 4
ENDMDL
MODEL 10
REMARK VINA RESULT:      -8.2      7.364     11.442
REMARK  4 active torsions:
REMARK  status: ('A' for Active; 'I' for Inactive)
REMARK    1  A    between atoms: C_5  and  N_6 
REMARK       I    between atoms: N_6  and  C_7 
REMARK    2  A    between atoms: C_7  and  C_8 
REMARK    3  A    between atoms: C_12  and  C_13 
REMARK    4  A    between atoms: N_24  and  C_25 
ROOT
HETATM    1  N   UNL     1       4.491  31.094  52.761  1.00  0.00    -0.348 N 
HETATM    2  C   UNL     1       4.049  30.156  53.657  1.00  0.00     0.257 C 
HETATM    3  O   UNL     1       3.130  30.381  54.443  1.00  0.00    -0.267 OA
HETATM    4  H   UNL     1       5.224  30.842  52.098  1.00  0.00     0.163 HD
ENDROOT
BRANCH   1   5
HETATM    5  C   UNL     1       3.869  32.397  52.675  1.00  0.00     0.122 C 
HETATM    6  C   UNL     1       3.600  32.845  51.220  1.00  0.00     0.039 C 
HETATM    7  C   UNL     1       4.815  33.490  50.488  1.00  0.00    -0.040 C 
HETATM    8  C   UNL     1       4.331  34.015  49.120  1.00  0.00     0.015 C 
HETATM    9  C   UNL     1       5.921  32.447  50.222  1.00  0.00     0.015 C 
HETATM   10  C   UNL     1       5.409  34.686  51.297  1.00  0.00     0.069 C 
HETATM   11  C   UNL     1       5.424  34.417  52.768  1.00  0.00     0.047 A 
HETATM   12  C   UNL     1       4.717  33.395  53.380  1.00  0.00     0.008 A 
HETATM   13  N   UNL     1       5.943  35.211  53.790  1.00  0.00    -0.238 N 
HETATM   14  C   UNL     1       4.902  33.595  54.749  1.00  0.00     0.150 A 
HETATM   15  N   UNL     1       5.617  34.685  55.008  1.00  0.00    -0.179 NA
BRANCH  13  16
HETATM   16  C   UNL     1       6.663  36.446  53.753  1.00  0.00     0.058 A 
HETATM   17  C   UNL     1       7.961  36.449  53.206  1.00  0.00     0.031 A 
HETATM   18  C   UNL     1       8.724  37.619  53.174  1.00  0.00     0.002 A 
HETATM   19  C   UNL     1       8.194  38.808  53.665  1.00  0.00     0.000 A 
HETATM   20  C   UNL     1       6.902  38.826  54.183  1.00  0.00     0.002 A 
HETATM   21  C   UNL     1       6.139  37.652  54.228  1.00  0.00     0.031 A 
ENDBRANCH  13  16
ENDBRANCH   1   5
BRANCH   2  22
HETATM   22  C   UNL     1       4.750  28.841  53.645  1.00  0.00     0.100 A 
HETATM   23  C   UNL     1       5.527  28.309  52.483  1.00  0.00     0.261 A 
HETATM   24  O   UNL     1       5.633  28.932  51.429  1.00  0.00    -0.267 OA
HETATM   25  N   UNL     1       6.122  27.079  52.653  1.00  0.00    -0.322 N 
HETATM   26  C   UNL     1       6.045  26.338  53.806  1.00  0.00     0.045 A 
HETATM   27  H   UNL     1       6.657  26.724  51.869  1.00  0.00     0.169 HD
HETATM   28  C   UNL     1       5.344  26.803  54.850  1.00  0.00     0.031 A 
HETATM   29  C   UNL     1       4.682  28.085  54.758  1.00  0.00     0.025 A 
BRANCH  26  30
HETATM   30  C   UNL     1       6.732  25.046  53.867  1.00  0.00    -0.009 A 
HETATM   31  C   UNL     1       7.313  24.500  52.716  1.00  0.00     0.013 A 
HETATM   32  C   UNL     1       7.937  23.252  52.766  1.00  0.00     0.001 A 
HETATM   33  C   UNL     1       7.985  22.543  53.967  1.00  0.00     0.000 A 
HETATM   34  C   UNL     1       7.412  23.082  55.118  1.00  0.00     0.001 A 
HETATM   35  C   UNL     1       6.786  24.329  55.068  1.00  0.00     0.013 A 
ENDBRANCH  26  30
ENDBRANCH   2  22
TORSDOF 4
ENDMDL
