MODEL 1
REMARK VINA RESULT:      -8.6      0.000      0.000
REMARK  1 active torsions:
REMARK  status: ('A' for Active; 'I' for Inactive)
REMARK    1  A    between atoms: C_6  and  N_7 
ROOT
HETATM    1  N   UNL     1       6.408  26.295  54.372  1.00  0.00    -0.320 N 
HETATM    2  C   UNL     1       5.080  26.670  53.983  1.00  0.00     0.141 C 
HETATM    3  N   UNL     1       4.333  25.912  53.230  1.00  0.00    -0.380 N 
HETATM    4  H   UNL     1       4.703  25.028  52.909  1.00  0.00     0.158 HD
HETATM    5  H   UNL     1       3.408  26.220  52.971  1.00  0.00     0.158 HD
HETATM    6  S   UNL     1       4.597  28.214  54.589  1.00  0.00    -0.086 SA
HETATM    7  C   UNL     1       6.317  28.576  55.063  1.00  0.00     0.093 C 
HETATM    8  C   UNL     1       6.888  27.192  55.441  1.00  0.00     0.121 C 
HETATM    9  C   UNL     1       6.659  29.471  56.228  1.00  0.00     0.158 C 
HETATM   10  S   UNL     1       8.362  28.976  56.569  1.00  0.00     0.147 S 
HETATM   11  O   UNL     1       9.252  29.918  55.928  1.00  0.00    -0.228 OA
HETATM   12  O   UNL     1       8.462  28.633  57.971  1.00  0.00    -0.228 OA
HETATM   13  C   UNL     1       8.367  27.449  55.607  1.00  0.00     0.167 C 
ENDROOT
BRANCH   1  14
HETATM   14  C   UNL     1       6.895  24.973  54.413  1.00  0.00     0.048 A 
HETATM   15  C   UNL     1       7.472  24.420  53.245  1.00  0.00    -0.034 A 
HETATM   16  C   UNL     1       7.955  23.101  53.258  1.00  0.00     0.015 A 
HETATM   17  C   UNL     1       7.615  25.195  51.959  1.00  0.00     0.050 C 
HETATM   18  C   UNL     1       7.849  22.305  54.398  1.00  0.00    -0.061 A 
HETATM   19  C   UNL     1       8.314  20.877  54.379  1.00  0.00     0.048 C 
HETATM   20  C   UNL     1       7.239  22.836  55.535  1.00  0.00     0.015 A 
HETATM   21  C   UNL     1       6.772  24.163  55.566  1.00  0.00    -0.034 A 
HETATM   22  C   UNL     1       6.093  24.619  56.833  1.00  0.00     0.050 C 
ENDBRANCH   1  14
TORSDOF 1
ENDMDL
MODEL 2
REMARK VINA RESULT:      -7.4      9.783     11.243
REMARK  1 active torsions:
REMARK  status: ('A' for Active; 'I' for Inactive)
REMARK    1  A    between atoms: C_6  and  N_7 
ROOT
HETATM    1  N   UNL     1       4.872  33.763  62.120  1.00  0.00    -0.320 N 
HETATM    2  C   UNL     1       3.615  33.158  62.451  1.00  0.00     0.141 C 
HETATM    3  N   UNL     1       3.391  31.884  62.295  1.00  0.00    -0.380 N 
HETATM    4  H   UNL     1       4.130  31.300  61.928  1.00  0.00     0.158 HD
HETATM    5  H   UNL     1       2.488  31.501  62.531  1.00  0.00     0.158 HD
HETATM    6  S   UNL     1       2.447  34.283  63.045  1.00  0.00    -0.086 SA
HETATM    7  C   UNL     1       3.491  35.670  62.497  1.00  0.00     0.093 C 
HETATM    8  C   UNL     1       4.928  35.132  62.667  1.00  0.00     0.121 C 
HETATM    9  C   UNL     1       3.488  37.006  63.198  1.00  0.00     0.158 C 
HETATM   10  S   UNL     1       5.058  37.703  62.642  1.00  0.00     0.147 S 
HETATM   11  O   UNL     1       4.799  38.588  61.528  1.00  0.00    -0.228 OA
HETATM   12  O   UNL     1       5.811  38.111  63.808  1.00  0.00    -0.228 OA
HETATM   13  C   UNL     1       5.784  36.181  61.998  1.00  0.00     0.167 C 
ENDROOT
BRANCH   1  14
HETATM   14  C   UNL     1       6.102  33.080  62.044  1.00  0.00     0.048 A 
HETATM   15  C   UNL     1       6.523  32.563  60.795  1.00  0.00    -0.034 A 
HETATM   16  C   UNL     1       7.740  31.870  60.697  1.00  0.00     0.015 A 
HETATM   17  C   UNL     1       5.722  32.736  59.529  1.00  0.00     0.050 C 
HETATM   18  C   UNL     1       8.537  31.648  61.819  1.00  0.00    -0.061 A 
HETATM   19  C   UNL     1       9.806  30.852  61.711  1.00  0.00     0.048 C 
HETATM   20  C   UNL     1       8.100  32.118  63.059  1.00  0.00     0.015 A 
HETATM   21  C   UNL     1       6.901  32.843  63.188  1.00  0.00    -0.034 A 
HETATM   22  C   UNL     1       6.505  33.267  64.579  1.00  0.00     0.050 C 
ENDBRANCH   1  14
TORSDOF 1
ENDMDL
MODEL 3
REMARK VINA RESULT:      -7.1     10.463     12.575
REMARK  1 active torsions:
REMARK  status: ('A' for Active; 'I' for Inactive)
REMARK    1  A    between atoms: C_6  and  N_7 
ROOT
HETATM    1  N   UNL     1       4.966  33.440  62.718  1.00  0.00    -0.320 N 
HETATM    2  C   UNL     1       4.482  32.173  62.252  1.00  0.00     0.141 C 
HETATM    3  N   UNL     1       4.762  31.053  62.856  1.00  0.00    -0.380 N 
HETATM    4  H   UNL     1       5.341  31.077  63.684  1.00  0.00     0.158 HD
HETATM    5  H   UNL     1       4.408  30.183  62.487  1.00  0.00     0.158 HD
HETATM    6  S   UNL     1       3.526  32.290  60.818  1.00  0.00    -0.086 SA
HETATM    7  C   UNL     1       4.074  34.010  60.581  1.00  0.00     0.093 C 
HETATM    8  C   UNL     1       4.261  34.533  62.022  1.00  0.00     0.121 C 
HETATM    9  C   UNL     1       3.213  35.043  59.900  1.00  0.00     0.158 C 
HETATM   10  S   UNL     1       3.965  36.577  60.485  1.00  0.00     0.147 S 
HETATM   11  O   UNL     1       4.877  37.058  59.472  1.00  0.00    -0.228 OA
HETATM   12  O   UNL     1       2.923  37.402  61.057  1.00  0.00    -0.228 OA
HETATM   13  C   UNL     1       4.936  35.870  61.832  1.00  0.00     0.167 C 
ENDROOT
BRANCH   1  14
HETATM   14  C   UNL     1       5.372  33.712  64.040  1.00  0.00     0.048 A 
HETATM   15  C   UNL     1       6.718  33.475  64.406  1.00  0.00    -0.034 A 
HETATM   16  C   UNL     1       7.142  33.729  65.721  1.00  0.00     0.015 A 
HETATM   17  C   UNL     1       7.752  32.967  63.433  1.00  0.00     0.050 C 
HETATM   18  C   UNL     1       6.252  34.185  66.692  1.00  0.00    -0.061 A 
HETATM   19  C   UNL     1       6.705  34.394  68.108  1.00  0.00     0.048 C 
HETATM   20  C   UNL     1       4.914  34.375  66.342  1.00  0.00     0.015 A 
HETATM   21  C   UNL     1       4.462  34.160  65.027  1.00  0.00    -0.034 A 
HETATM   22  C   UNL     1       2.989  34.357  64.770  1.00  0.00     0.050 C 
ENDBRANCH   1  14
TORSDOF 1
ENDMDL
MODEL 4
REMARK VINA RESULT:      -7.1      9.758     11.348
REMARK  1 active torsions:
REMARK  status: ('A' for Active; 'I' for Inactive)
REMARK    1  A    between atoms: C_6  and  N_7 
ROOT
HETATM    1  N   UNL     1       4.822  33.682  62.091  1.00  0.00    -0.320 N 
HETATM    2  C   UNL     1       3.566  33.088  62.447  1.00  0.00     0.141 C 
HETATM    3  N   UNL     1       3.321  31.820  62.280  1.00  0.00    -0.380 N 
HETATM    4  H   UNL     1       4.042  31.231  61.885  1.00  0.00     0.158 HD
HETATM    5  H   UNL     1       2.419  31.446  62.535  1.00  0.00     0.158 HD
HETATM    6  S   UNL     1       2.429  34.221  63.088  1.00  0.00    -0.086 SA
HETATM    7  C   UNL     1       3.477  35.602  62.532  1.00  0.00     0.093 C 
HETATM    8  C   UNL     1       4.911  35.042  62.656  1.00  0.00     0.121 C 
HETATM    9  C   UNL     1       3.511  36.927  63.251  1.00  0.00     0.158 C 
HETATM   10  S   UNL     1       5.075  37.611  62.663  1.00  0.00     0.147 S 
HETATM   11  O   UNL     1       4.798  38.516  61.569  1.00  0.00    -0.228 OA
HETATM   12  O   UNL     1       5.864  37.993  63.813  1.00  0.00    -0.228 OA
HETATM   13  C   UNL     1       5.763  36.090  61.979  1.00  0.00     0.167 C 
ENDROOT
BRANCH   1  14
HETATM   14  C   UNL     1       6.040  32.984  61.972  1.00  0.00     0.048 A 
HETATM   15  C   UNL     1       6.837  32.794  63.127  1.00  0.00    -0.034 A 
HETATM   16  C   UNL     1       8.060  32.111  63.030  1.00  0.00     0.015 A 
HETATM   17  C   UNL     1       6.425  33.283  64.492  1.00  0.00     0.050 C 
HETATM   18  C   UNL     1       8.529  31.638  61.805  1.00  0.00    -0.061 A 
HETATM   19  C   UNL     1       9.867  30.963  61.707  1.00  0.00     0.048 C 
HETATM   20  C   UNL     1       7.765  31.866  60.660  1.00  0.00     0.015 A 
HETATM   21  C   UNL     1       6.520  32.519  60.725  1.00  0.00    -0.034 A 
HETATM   22  C   UNL     1       5.800  32.748  59.420  1.00  0.00     0.050 C 
ENDBRANCH   1  14
TORSDOF 1
ENDMDL
MODEL 5
REMARK VINA RESULT:      -7.0      2.836      4.372
REMARK  1 active torsions:
REMARK  status: ('A' for Active; 'I' for Inactive)
REMARK    1  A    between atoms: C_6  and  N_7 
ROOT
HETATM    1  N   UNL     1       6.310  28.133  56.519  1.00  0.00    -0.320 N 
HETATM    2  C   UNL     1       7.279  28.546  57.491  1.00  0.00     0.141 C 
HETATM    3  N   UNL     1       8.193  27.741  57.953  1.00  0.00    -0.380 N 
HETATM    4  H   UNL     1       8.221  26.789  57.613  1.00  0.00     0.158 HD
HETATM    5  H   UNL     1       8.849  28.071  58.645  1.00  0.00     0.158 HD
HETATM    6  S   UNL     1       7.092  30.190  57.990  1.00  0.00    -0.086 SA
HETATM    7  C   UNL     1       5.457  30.256  57.192  1.00  0.00     0.093 C 
HETATM    8  C   UNL     1       5.608  29.312  55.979  1.00  0.00     0.121 C 
HETATM    9  C   UNL     1       4.889  31.533  56.626  1.00  0.00     0.158 C 
HETATM   10  S   UNL     1       3.635  30.894  55.495  1.00  0.00     0.147 S 
HETATM   11  O   UNL     1       2.352  30.933  56.161  1.00  0.00    -0.228 OA
HETATM   12  O   UNL     1       3.858  31.481  54.192  1.00  0.00    -0.228 OA
HETATM   13  C   UNL     1       4.198  29.180  55.453  1.00  0.00     0.167 C 
ENDROOT
BRANCH   1  14
HETATM   14  C   UNL     1       6.469  27.051  55.630  1.00  0.00     0.048 A 
HETATM   15  C   UNL     1       5.814  25.829  55.914  1.00  0.00    -0.034 A 
HETATM   16  C   UNL     1       5.966  24.734  55.048  1.00  0.00     0.015 A 
HETATM   17  C   UNL     1       4.925  25.640  57.117  1.00  0.00     0.050 C 
HETATM   18  C   UNL     1       6.781  24.812  53.920  1.00  0.00    -0.061 A 
HETATM   19  C   UNL     1       6.983  23.615  53.037  1.00  0.00     0.048 C 
HETATM   20  C   UNL     1       7.464  26.003  53.665  1.00  0.00     0.015 A 
HETATM   21  C   UNL     1       7.310  27.130  54.494  1.00  0.00    -0.034 A 
HETATM   22  C   UNL     1       8.127  28.349  54.149  1.00  0.00     0.050 C 
ENDBRANCH   1  14
TORSDOF 1
ENDMDL
MODEL 6
REMARK VINA RESULT:      -6.2      5.165      6.410
REMARK  1 active torsions:
REMARK  status: ('A' for Active; 'I' for Inactive)
REMARK    1  A    between atoms: C_6  and  N_7 
ROOT
HETATM    1  N   UNL     1       3.604  29.055  49.935  1.00  0.00    -0.320 N 
HETATM    2  C   UNL     1       2.219  29.143  49.576  1.00  0.00     0.141 C 
HETATM    3  N   UNL     1       1.428  28.107  49.585  1.00  0.00    -0.380 N 
HETATM    4  H   UNL     1       1.803  27.209  49.856  1.00  0.00     0.158 HD
HETATM    5  H   UNL     1       0.461  28.213  49.314  1.00  0.00     0.158 HD
HETATM    6  S   UNL     1       1.729  30.735  49.116  1.00  0.00    -0.086 SA
HETATM    7  C   UNL     1       3.471  31.253  49.020  1.00  0.00     0.093 C 
HETATM    8  C   UNL     1       4.162  30.409  50.113  1.00  0.00     0.121 C 
HETATM    9  C   UNL     1       3.905  32.672  49.289  1.00  0.00     0.158 C 
HETATM   10  S   UNL     1       5.662  32.447  49.639  1.00  0.00     0.147 S 
HETATM   11  O   UNL     1       6.411  32.730  48.435  1.00  0.00    -0.228 OA
HETATM   12  O   UNL     1       5.956  33.074  50.909  1.00  0.00    -0.228 OA
HETATM   13  C   UNL     1       5.634  30.658  49.880  1.00  0.00     0.167 C 
ENDROOT
BRANCH   1  14
HETATM   14  C   UNL     1       4.166  28.047  50.744  1.00  0.00     0.048 A 
HETATM   15  C   UNL     1       4.762  26.923  50.123  1.00  0.00    -0.034 A 
HETATM   16  C   UNL     1       5.319  25.901  50.909  1.00  0.00     0.015 A 
HETATM   17  C   UNL     1       4.848  26.769  48.626  1.00  0.00     0.050 C 
HETATM   18  C   UNL     1       5.270  25.952  52.301  1.00  0.00    -0.061 A 
HETATM   19  C   UNL     1       5.815  24.823  53.128  1.00  0.00     0.048 C 
HETATM   20  C   UNL     1       4.641  27.038  52.913  1.00  0.00     0.015 A 
HETATM   21  C   UNL     1       4.100  28.094  52.157  1.00  0.00    -0.034 A 
HETATM   22  C   UNL     1       3.408  29.195  52.919  1.00  0.00     0.050 C 
ENDBRANCH   1  14
TORSDOF 1
ENDMDL
MODEL 7
REMARK VINA RESULT:      -6.0      5.905      7.498
REMARK  1 active torsions:
REMARK  status: ('A' for Active; 'I' for Inactive)
REMARK    1  A    between atoms: C_6  and  N_7 
ROOT
HETATM    1  N   UNL     1       3.409  29.539  50.524  1.00  0.00    -0.320 N 
HETATM    2  C   UNL     1       3.218  29.528  51.945  1.00  0.00     0.141 C 
HETATM    3  N   UNL     1       2.559  28.584  52.554  1.00  0.00    -0.380 N 
HETATM    4  H   UNL     1       2.167  27.830  52.006  1.00  0.00     0.158 HD
HETATM    5  H   UNL     1       2.439  28.621  53.556  1.00  0.00     0.158 HD
HETATM    6  S   UNL     1       3.923  30.889  52.742  1.00  0.00    -0.086 SA
HETATM    7  C   UNL     1       4.161  31.717  51.138  1.00  0.00     0.093 C 
HETATM    8  C   UNL     1       4.421  30.549  50.163  1.00  0.00     0.121 C 
HETATM    9  C   UNL     1       5.288  32.689  50.894  1.00  0.00     0.158 C 
HETATM   10  S   UNL     1       5.376  32.686  49.090  1.00  0.00     0.147 S 
HETATM   11  O   UNL     1       4.640  33.827  48.592  1.00  0.00    -0.228 OA
HETATM   12  O   UNL     1       6.741  32.405  48.704  1.00  0.00    -0.228 OA
HETATM   13  C   UNL     1       4.386  31.205  48.803  1.00  0.00     0.167 C 
ENDROOT
BRANCH   1  14
HETATM   14  C   UNL     1       3.349  28.402  49.693  1.00  0.00     0.048 A 
HETATM   15  C   UNL     1       2.254  28.258  48.808  1.00  0.00    -0.034 A 
HETATM   16  C   UNL     1       2.168  27.128  47.978  1.00  0.00     0.015 A 
HETATM   17  C   UNL     1       1.156  29.285  48.693  1.00  0.00     0.050 C 
HETATM   18  C   UNL     1       3.128  26.120  48.028  1.00  0.00    -0.061 A 
HETATM   19  C   UNL     1       2.991  24.889  47.178  1.00  0.00     0.048 C 
HETATM   20  C   UNL     1       4.184  26.240  48.934  1.00  0.00     0.015 A 
HETATM   21  C   UNL     1       4.318  27.373  49.758  1.00  0.00    -0.034 A 
HETATM   22  C   UNL     1       5.472  27.379  50.727  1.00  0.00     0.050 C 
ENDBRANCH   1  14
TORSDOF 1
ENDMDL
MODEL 8
REMARK VINA RESULT:      -6.0      8.072     10.286
REMARK  1 active torsions:
REMARK  status: ('A' for Active; 'I' for Inactive)
REMARK    1  A    between atoms: C_6  and  N_7 
ROOT
HETATM    1  N   UNL     1       3.900  31.020  48.381  1.00  0.00    -0.320 N 
HETATM    2  C   UNL     1       2.521  31.388  48.510  1.00  0.00     0.141 C 
HETATM    3  N   UNL     1       2.126  32.629  48.519  1.00  0.00    -0.380 N 
HETATM    4  H   UNL     1       2.818  33.362  48.432  1.00  0.00     0.158 HD
HETATM    5  H   UNL     1       1.145  32.843  48.623  1.00  0.00     0.158 HD
HETATM    6  S   UNL     1       1.462  30.032  48.672  1.00  0.00    -0.086 SA
HETATM    7  C   UNL     1       2.890  28.940  48.964  1.00  0.00     0.093 C 
HETATM    8  C   UNL     1       4.011  29.574  48.112  1.00  0.00     0.121 C 
HETATM    9  C   UNL     1       2.881  27.483  48.576  1.00  0.00     0.158 C 
HETATM   10  S   UNL     1       4.649  27.116  48.532  1.00  0.00     0.147 S 
HETATM   11  O   UNL     1       5.023  26.504  49.787  1.00  0.00    -0.228 OA
HETATM   12  O   UNL     1       4.956  26.522  47.249  1.00  0.00    -0.228 OA
HETATM   13  C   UNL     1       5.249  28.818  48.531  1.00  0.00     0.167 C 
ENDROOT
BRANCH   1  14
HETATM   14  C   UNL     1       4.902  31.831  47.811  1.00  0.00     0.048 A 
HETATM   15  C   UNL     1       5.813  32.498  48.664  1.00  0.00    -0.034 A 
HETATM   16  C   UNL     1       6.813  33.320  48.118  1.00  0.00     0.015 A 
HETATM   17  C   UNL     1       5.778  32.357  50.165  1.00  0.00     0.050 C 
HETATM   18  C   UNL     1       6.910  33.522  46.742  1.00  0.00    -0.061 A 
HETATM   19  C   UNL     1       7.946  34.451  46.177  1.00  0.00     0.048 C 
HETATM   20  C   UNL     1       5.983  32.901  45.904  1.00  0.00     0.015 A 
HETATM   21  C   UNL     1       4.988  32.046  46.414  1.00  0.00    -0.034 A 
HETATM   22  C   UNL     1       4.015  31.461  45.423  1.00  0.00     0.050 C 
ENDBRANCH   1  14
TORSDOF 1
ENDMDL
MODEL 9
REMARK VINA RESULT:      -5.9      5.725      7.663
REMARK  1 active torsions:
REMARK  status: ('A' for Active; 'I' for Inactive)
REMARK    1  A    between atoms: C_6  and  N_7 
ROOT
HETATM    1  N   UNL     1       4.431  32.176  58.375  1.00  0.00    -0.320 N 
HETATM    2  C   UNL     1       3.773  32.398  59.629  1.00  0.00     0.141 C 
HETATM    3  N   UNL     1       3.622  31.455  60.516  1.00  0.00    -0.380 N 
HETATM    4  H   UNL     1       3.983  30.533  60.313  1.00  0.00     0.158 HD
HETATM    5  H   UNL     1       3.142  31.653  61.381  1.00  0.00     0.158 HD
HETATM    6  S   UNL     1       3.192  34.014  59.822  1.00  0.00    -0.086 SA
HETATM    7  C   UNL     1       3.476  34.337  58.053  1.00  0.00     0.093 C 
HETATM    8  C   UNL     1       4.707  33.468  57.719  1.00  0.00     0.121 C 
HETATM    9  C   UNL     1       3.813  35.711  57.530  1.00  0.00     0.158 C 
HETATM   10  S   UNL     1       4.547  35.312  55.929  1.00  0.00     0.147 S 
HETATM   11  O   UNL     1       3.534  35.464  54.908  1.00  0.00    -0.228 OA
HETATM   12  O   UNL     1       5.840  35.954  55.851  1.00  0.00    -0.228 OA
HETATM   13  C   UNL     1       4.802  33.548  56.213  1.00  0.00     0.167 C 
ENDROOT
BRANCH   1  14
HETATM   14  C   UNL     1       5.359  31.146  58.122  1.00  0.00     0.048 A 
HETATM   15  C   UNL     1       4.964  30.051  57.318  1.00  0.00    -0.034 A 
HETATM   16  C   UNL     1       5.869  29.007  57.061  1.00  0.00     0.015 A 
HETATM   17  C   UNL     1       3.596  29.948  56.693  1.00  0.00     0.050 C 
HETATM   18  C   UNL     1       7.150  29.010  57.610  1.00  0.00    -0.061 A 
HETATM   19  C   UNL     1       8.085  27.859  57.377  1.00  0.00     0.048 C 
HETATM   20  C   UNL     1       7.523  30.068  58.440  1.00  0.00     0.015 A 
HETATM   21  C   UNL     1       6.654  31.145  58.694  1.00  0.00    -0.034 A 
HETATM   22  C   UNL     1       7.145  32.212  59.638  1.00  0.00     0.050 C 
ENDBRANCH   1  14
TORSDOF 1
ENDMDL
MODEL 10
REMARK VINA RESULT:      -5.8     12.496     13.748
REMARK  1 active torsions:
REMARK  status: ('A' for Active; 'I' for Inactive)
REMARK    1  A    between atoms: C_6  and  N_7 
ROOT
HETATM    1  N   UNL     1      12.252  38.899  53.536  1.00  0.00    -0.320 N 
HETATM    2  C   UNL     1      12.598  40.159  52.945  1.00  0.00     0.141 C 
HETATM    3  N   UNL     1      13.826  40.590  52.888  1.00  0.00    -0.380 N 
HETATM    4  H   UNL     1      14.563  40.016  53.274  1.00  0.00     0.158 HD
HETATM    5  H   UNL     1      14.023  41.489  52.473  1.00  0.00     0.158 HD
HETATM    6  S   UNL     1      11.232  41.035  52.350  1.00  0.00    -0.086 SA
HETATM    7  C   UNL     1      10.111  39.903  53.231  1.00  0.00     0.093 C 
HETATM    8  C   UNL     1      10.859  38.553  53.198  1.00  0.00     0.121 C 
HETATM    9  C   UNL     1       8.723  39.593  52.730  1.00  0.00     0.158 C 
HETATM   10  S   UNL     1       8.366  38.052  53.599  1.00  0.00     0.147 S 
HETATM   11  O   UNL     1       7.583  38.358  54.776  1.00  0.00    -0.228 OA
HETATM   12  O   UNL     1       7.958  37.065  52.623  1.00  0.00    -0.228 OA
HETATM   13  C   UNL     1      10.050  37.674  54.124  1.00  0.00     0.167 C 
ENDROOT
BRANCH   1  14
HETATM   14  C   UNL     1      13.136  37.812  53.694  1.00  0.00     0.048 A 
HETATM   15  C   UNL     1      13.683  37.555  54.973  1.00  0.00    -0.034 A 
HETATM   16  C   UNL     1      14.574  36.484  55.153  1.00  0.00     0.015 A 
HETATM   17  C   UNL     1      13.341  38.380  56.189  1.00  0.00     0.050 C 
HETATM   18  C   UNL     1      14.960  35.679  54.082  1.00  0.00    -0.061 A 
HETATM   19  C   UNL     1      15.960  34.575  54.277  1.00  0.00     0.048 C 
HETATM   20  C   UNL     1      14.455  35.961  52.812  1.00  0.00     0.015 A 
HETATM   21  C   UNL     1      13.537  37.006  52.602  1.00  0.00    -0.034 A 
HETATM   22  C   UNL     1      13.089  37.248  51.183  1.00  0.00     0.050 C 
ENDBRANCH   1  14
TORSDOF 1
ENDMDL
