MODEL 1
REMARK VINA RESULT:      -8.9      0.000      0.000
REMARK  9 active torsions:
REMARK  status: ('A' for Active; 'I' for Inactive)
REMARK    1  A    between atoms: C_2  and  O_3 
REMARK    2  A    between atoms: O_3  and  C_4 
REMARK    3  A    between atoms: C_5  and  O_6 
REMARK    4  A    between atoms: O_6  and  C_7 
REMARK    5  A    between atoms: C_7  and  C_8 
REMARK       I    between atoms: C_8  and  N_9 
REMARK    6  A    between atoms: N_9  and  C_10 
REMARK    7  A    between atoms: C_17  and  C_18 
REMARK    8  A    between atoms: C_18  and  N_19 
REMARK    9  A    between atoms: N_19  and  C_20 
ROOT
HETATM    1  C   UNL     1       8.073  28.410  56.803  1.00  0.00     0.102 A 
HETATM    2  C   UNL     1       7.025  28.994  57.533  1.00  0.00     0.102 A 
HETATM    3  C   UNL     1       5.715  28.830  57.073  1.00  0.00     0.040 A 
HETATM    4  C   UNL     1       5.459  28.124  55.892  1.00  0.00     0.012 A 
HETATM    5  C   UNL     1       6.507  27.578  55.140  1.00  0.00    -0.038 A 
HETATM    6  C   UNL     1       7.816  27.734  55.605  1.00  0.00     0.048 A 
ENDROOT
BRANCH   5   7
HETATM    7  C   UNL     1       6.225  26.869  53.834  1.00  0.00     0.158 C 
BRANCH   7   8
HETATM    8  N   UNL     1       5.662  25.557  54.120  1.00  0.00    -0.386 N 
HETATM    9  H   UNL     1       4.839  25.356  53.557  1.00  0.00     0.160 HD
BRANCH   8  10
HETATM   10  C   UNL     1       6.499  24.445  54.242  1.00  0.00     0.031 A 
HETATM   11  C   UNL     1       6.881  23.889  55.469  1.00  0.00     0.068 A 
HETATM   12  C   UNL     1       7.655  22.726  55.521  1.00  0.00     0.104 A 
HETATM   13  C   UNL     1       8.059  22.096  54.343  1.00  0.00     0.102 A 
HETATM   14  O   UNL     1       7.984  22.261  56.771  1.00  0.00    -0.346 OA
HETATM   15  O   UNL     1       8.843  20.970  54.319  1.00  0.00    -0.346 OA
HETATM   16  C   UNL     1       7.644  22.599  53.117  1.00  0.00     0.042 A 
HETATM   17  C   UNL     1       9.465  20.742  55.588  1.00  0.00     0.202 C 
HETATM   18  C   UNL     1       8.461  20.912  56.716  1.00  0.00     0.202 C 
HETATM   19  C   UNL     1       6.861  23.756  53.072  1.00  0.00     0.032 A 
ENDBRANCH   8  10
ENDBRANCH   7   8
ENDBRANCH   5   7
BRANCH   1  20
HETATM   20  O   UNL     1       9.402  28.529  57.123  1.00  0.00    -0.349 OA
BRANCH  20  21
HETATM   21  C   UNL     1      10.116  29.559  56.427  1.00  0.00     0.171 C 
HETATM   22  C   UNL     1      10.873  30.490  57.361  1.00  0.00     0.034 C 
ENDBRANCH  20  21
ENDBRANCH   1  20
BRANCH   2  23
HETATM   23  O   UNL     1       7.379  29.757  58.613  1.00  0.00    -0.339 OA
BRANCH  23  24
HETATM   24  C   UNL     1       7.391  31.173  58.498  1.00  0.00     0.278 C 
BRANCH  24  25
HETATM   25  C   UNL     1       7.710  31.944  59.787  1.00  0.00     0.242 C 
HETATM   26  N   UNL     1       6.833  31.703  60.822  1.00  0.00    -0.351 N 
HETATM   27  H   UNL     1       6.017  31.146  60.584  1.00  0.00     0.163 HD
HETATM   28  O   UNL     1       8.667  32.709  59.852  1.00  0.00    -0.271 OA
BRANCH  26  29
HETATM   29  C   UNL     1       6.853  32.354  62.137  1.00  0.00     0.022 C 
HETATM   30  C   UNL     1       6.610  33.862  61.987  1.00  0.00     0.037 C 
HETATM   31  C   UNL     1       5.716  31.749  62.981  1.00  0.00     0.037 C 
HETATM   32  C   UNL     1       8.179  32.102  62.872  1.00  0.00     0.037 C 
ENDBRANCH  26  29
ENDBRANCH  24  25
ENDBRANCH  23  24
ENDBRANCH   2  23
TORSDOF 9
ENDMDL
MODEL 2
REMARK VINA RESULT:      -8.6      1.692      3.026
REMARK  9 active torsions:
REMARK  status: ('A' for Active; 'I' for Inactive)
REMARK    1  A    between atoms: C_2  and  O_3 
REMARK    2  A    between atoms: O_3  and  C_4 
REMARK    3  A    between atoms: C_5  and  O_6 
REMARK    4  A    between atoms: O_6  and  C_7 
REMARK    5  A    between atoms: C_7  and  C_8 
REMARK       I    between atoms: C_8  and  N_9 
REMARK    6  A    between atoms: N_9  and  C_10 
REMARK    7  A    between atoms: C_17  and  C_18 
REMARK    8  A    between atoms: C_18  and  N_19 
REMARK    9  A    between atoms: N_19  and  C_20 
ROOT
HETATM    1  C   UNL     1       7.394  30.719  58.384  1.00  0.00     0.102 A 
HETATM    2  C   UNL     1       8.777  30.959  58.369  1.00  0.00     0.102 A 
HETATM    3  C   UNL     1       9.614  30.022  57.757  1.00  0.00     0.040 A 
HETATM    4  C   UNL     1       9.085  28.854  57.198  1.00  0.00     0.012 A 
HETATM    5  C   UNL     1       7.710  28.591  57.250  1.00  0.00    -0.038 A 
HETATM    6  C   UNL     1       6.872  29.533  57.854  1.00  0.00     0.048 A 
ENDROOT
BRANCH   5   7
HETATM    7  C   UNL     1       7.155  27.297  56.697  1.00  0.00     0.158 C 
BRANCH   7   8
HETATM    8  N   UNL     1       8.020  26.199  57.108  1.00  0.00    -0.386 N 
HETATM    9  H   UNL     1       8.010  26.052  58.114  1.00  0.00     0.160 HD
BRANCH   8  10
HETATM   10  C   UNL     1       8.009  24.994  56.400  1.00  0.00     0.031 A 
HETATM   11  C   UNL     1       8.315  23.753  56.970  1.00  0.00     0.068 A 
HETATM   12  C   UNL     1       8.206  22.574  56.226  1.00  0.00     0.104 A 
HETATM   13  C   UNL     1       7.787  22.617  54.896  1.00  0.00     0.102 A 
HETATM   14  O   UNL     1       8.534  21.407  56.872  1.00  0.00    -0.346 OA
HETATM   15  O   UNL     1       7.687  21.505  54.100  1.00  0.00    -0.346 OA
HETATM   16  C   UNL     1       7.425  23.831  54.328  1.00  0.00     0.042 A 
HETATM   17  C   UNL     1       8.380  20.391  54.672  1.00  0.00     0.202 C 
HETATM   18  C   UNL     1       8.062  20.263  56.152  1.00  0.00     0.202 C 
HETATM   19  C   UNL     1       7.526  25.005  55.080  1.00  0.00     0.032 A 
ENDBRANCH   8  10
ENDBRANCH   7   8
ENDBRANCH   5   7
BRANCH   1  20
HETATM   20  O   UNL     1       6.469  31.536  58.985  1.00  0.00    -0.349 OA
BRANCH  20  21
HETATM   21  C   UNL     1       5.369  31.936  58.159  1.00  0.00     0.171 C 
HETATM   22  C   UNL     1       4.100  32.209  58.952  1.00  0.00     0.034 C 
ENDBRANCH  20  21
ENDBRANCH   1  20
BRANCH   2  23
HETATM   23  O   UNL     1       9.214  32.073  59.035  1.00  0.00    -0.339 OA
BRANCH  23  24
HETATM   24  C   UNL     1       9.822  31.934  60.311  1.00  0.00     0.278 C 
BRANCH  24  25
HETATM   25  C   UNL     1       8.858  31.788  61.497  1.00  0.00     0.242 C 
HETATM   26  N   UNL     1       7.930  32.801  61.602  1.00  0.00    -0.351 N 
HETATM   27  H   UNL     1       8.063  33.582  60.965  1.00  0.00     0.163 HD
HETATM   28  O   UNL     1       8.941  30.841  62.273  1.00  0.00    -0.271 OA
BRANCH  26  29
HETATM   29  C   UNL     1       6.939  32.955  62.673  1.00  0.00     0.022 C 
HETATM   30  C   UNL     1       7.637  32.989  64.040  1.00  0.00     0.037 C 
HETATM   31  C   UNL     1       6.212  34.294  62.453  1.00  0.00     0.037 C 
HETATM   32  C   UNL     1       5.892  31.831  62.640  1.00  0.00     0.037 C 
ENDBRANCH  26  29
ENDBRANCH  24  25
ENDBRANCH  23  24
ENDBRANCH   2  23
TORSDOF 9
ENDMDL
MODEL 3
REMARK VINA RESULT:      -8.6      0.937      1.228
REMARK  9 active torsions:
REMARK  status: ('A' for Active; 'I' for Inactive)
REMARK    1  A    between atoms: C_2  and  O_3 
REMARK    2  A    between atoms: O_3  and  C_4 
REMARK    3  A    between atoms: C_5  and  O_6 
REMARK    4  A    between atoms: O_6  and  C_7 
REMARK    5  A    between atoms: C_7  and  C_8 
REMARK       I    between atoms: C_8  and  N_9 
REMARK    6  A    between atoms: N_9  and  C_10 
REMARK    7  A    between atoms: C_17  and  C_18 
REMARK    8  A    between atoms: C_18  and  N_19 
REMARK    9  A    between atoms: N_19  and  C_20 
ROOT
HETATM    1  C   UNL     1       7.976  28.445  57.138  1.00  0.00     0.102 A 
HETATM    2  C   UNL     1       6.992  29.212  57.782  1.00  0.00     0.102 A 
HETATM    3  C   UNL     1       5.655  29.030  57.419  1.00  0.00     0.040 A 
HETATM    4  C   UNL     1       5.308  28.123  56.412  1.00  0.00     0.012 A 
HETATM    5  C   UNL     1       6.292  27.388  55.737  1.00  0.00    -0.038 A 
HETATM    6  C   UNL     1       7.629  27.563  56.107  1.00  0.00     0.048 A 
ENDROOT
BRANCH   5   7
HETATM    7  C   UNL     1       5.913  26.455  54.609  1.00  0.00     0.158 C 
BRANCH   7   8
HETATM    8  N   UNL     1       7.128  25.976  53.964  1.00  0.00    -0.386 N 
HETATM    9  H   UNL     1       7.928  26.577  54.146  1.00  0.00     0.160 HD
BRANCH   8  10
HETATM   10  C   UNL     1       7.466  24.621  54.021  1.00  0.00     0.031 A 
HETATM   11  C   UNL     1       7.624  23.907  55.214  1.00  0.00     0.068 A 
HETATM   12  C   UNL     1       7.883  22.533  55.201  1.00  0.00     0.104 A 
HETATM   13  C   UNL     1       7.986  21.848  53.989  1.00  0.00     0.102 A 
HETATM   14  O   UNL     1       8.027  21.922  56.422  1.00  0.00    -0.346 OA
HETATM   15  O   UNL     1       8.268  20.508  53.901  1.00  0.00    -0.346 OA
HETATM   16  C   UNL     1       7.777  22.526  52.796  1.00  0.00     0.042 A 
HETATM   17  C   UNL     1       8.775  20.000  55.139  1.00  0.00     0.202 C 
HETATM   18  C   UNL     1       7.938  20.498  56.307  1.00  0.00     0.202 C 
HETATM   19  C   UNL     1       7.509  23.898  52.817  1.00  0.00     0.032 A 
ENDBRANCH   8  10
ENDBRANCH   7   8
ENDBRANCH   5   7
BRANCH   1  20
HETATM   20  O   UNL     1       9.324  28.553  57.371  1.00  0.00    -0.349 OA
BRANCH  20  21
HETATM   21  C   UNL     1      10.003  29.562  56.614  1.00  0.00     0.171 C 
HETATM   22  C   UNL     1      11.329  29.977  57.233  1.00  0.00     0.034 C 
ENDBRANCH  20  21
ENDBRANCH   1  20
BRANCH   2  23
HETATM   23  O   UNL     1       7.434  30.151  58.676  1.00  0.00    -0.339 OA
BRANCH  23  24
HETATM   24  C   UNL     1       6.981  31.493  58.564  1.00  0.00     0.278 C 
BRANCH  24  25
HETATM   25  C   UNL     1       6.326  32.081  59.823  1.00  0.00     0.242 C 
HETATM   26  N   UNL     1       7.162  32.156  60.915  1.00  0.00    -0.351 N 
HETATM   27  H   UNL     1       8.068  31.708  60.803  1.00  0.00     0.163 HD
HETATM   28  O   UNL     1       5.151  32.436  59.823  1.00  0.00    -0.271 OA
BRANCH  26  29
HETATM   29  C   UNL     1       6.785  32.605  62.260  1.00  0.00     0.022 C 
HETATM   30  C   UNL     1       5.626  31.755  62.798  1.00  0.00     0.037 C 
HETATM   31  C   UNL     1       8.006  32.418  63.179  1.00  0.00     0.037 C 
HETATM   32  C   UNL     1       6.402  34.093  62.272  1.00  0.00     0.037 C 
ENDBRANCH  26  29
ENDBRANCH  24  25
ENDBRANCH  23  24
ENDBRANCH   2  23
TORSDOF 9
ENDMDL
MODEL 4
REMARK VINA RESULT:      -8.5      1.785      3.367
REMARK  9 active torsions:
REMARK  status: ('A' for Active; 'I' for Inactive)
REMARK    1  A    between atoms: C_2  and  O_3 
REMARK    2  A    between atoms: O_3  and  C_4 
REMARK    3  A    between atoms: C_5  and  O_6 
REMARK    4  A    between atoms: O_6  and  C_7 
REMARK    5  A    between atoms: C_7  and  C_8 
REMARK       I    between atoms: C_8  and  N_9 
REMARK    6  A    between atoms: N_9  and  C_10 
REMARK    7  A    between atoms: C_17  and  C_18 
REMARK    8  A    between atoms: C_18  and  N_19 
REMARK    9  A    between atoms: N_19  and  C_20 
ROOT
HETATM    1  C   UNL     1       7.294  31.219  58.362  1.00  0.00     0.102 A 
HETATM    2  C   UNL     1       8.685  31.155  58.538  1.00  0.00     0.102 A 
HETATM    3  C   UNL     1       9.363  30.010  58.111  1.00  0.00     0.040 A 
HETATM    4  C   UNL     1       8.663  28.937  57.547  1.00  0.00     0.012 A 
HETATM    5  C   UNL     1       7.270  28.981  57.410  1.00  0.00    -0.038 A 
HETATM    6  C   UNL     1       6.593  30.131  57.829  1.00  0.00     0.048 A 
ENDROOT
BRANCH   5   7
HETATM    7  C   UNL     1       6.516  27.793  56.856  1.00  0.00     0.158 C 
BRANCH   7   8
HETATM    8  N   UNL     1       7.376  27.083  55.919  1.00  0.00    -0.386 N 
HETATM    9  H   UNL     1       8.230  27.594  55.711  1.00  0.00     0.160 HD
BRANCH   8  10
HETATM   10  C   UNL     1       7.608  25.714  56.077  1.00  0.00     0.031 A 
HETATM   11  C   UNL     1       7.306  24.756  55.102  1.00  0.00     0.068 A 
HETATM   12  C   UNL     1       7.639  23.410  55.290  1.00  0.00     0.104 A 
HETATM   13  C   UNL     1       8.283  23.001  56.459  1.00  0.00     0.102 A 
HETATM   14  O   UNL     1       7.298  22.545  54.280  1.00  0.00    -0.346 OA
HETATM   15  O   UNL     1       8.611  21.696  56.723  1.00  0.00    -0.346 OA
HETATM   16  C   UNL     1       8.640  23.944  57.413  1.00  0.00     0.042 A 
HETATM   17  C   UNL     1       7.919  20.798  55.848  1.00  0.00     0.202 C 
HETATM   18  C   UNL     1       7.980  21.293  54.413  1.00  0.00     0.202 C 
HETATM   19  C   UNL     1       8.315  25.289  57.214  1.00  0.00     0.032 A 
ENDBRANCH   8  10
ENDBRANCH   7   8
ENDBRANCH   5   7
BRANCH   1  20
HETATM   20  O   UNL     1       6.505  32.265  58.772  1.00  0.00    -0.349 OA
BRANCH  20  21
HETATM   21  C   UNL     1       5.097  32.092  58.575  1.00  0.00     0.171 C 
HETATM   22  C   UNL     1       4.257  32.956  59.503  1.00  0.00     0.034 C 
ENDBRANCH  20  21
ENDBRANCH   1  20
BRANCH   2  23
HETATM   23  O   UNL     1       9.269  32.203  59.197  1.00  0.00    -0.339 OA
BRANCH  23  24
HETATM   24  C   UNL     1       9.816  32.001  60.492  1.00  0.00     0.278 C 
BRANCH  24  25
HETATM   25  C   UNL     1       8.797  31.866  61.632  1.00  0.00     0.242 C 
HETATM   26  N   UNL     1       7.856  32.871  61.673  1.00  0.00    -0.351 N 
HETATM   27  H   UNL     1       8.011  33.642  61.029  1.00  0.00     0.163 HD
HETATM   28  O   UNL     1       8.851  30.933  62.429  1.00  0.00    -0.271 OA
BRANCH  26  29
HETATM   29  C   UNL     1       6.812  33.034  62.692  1.00  0.00     0.022 C 
HETATM   30  C   UNL     1       5.859  31.830  62.672  1.00  0.00     0.037 C 
HETATM   31  C   UNL     1       7.501  33.099  64.067  1.00  0.00     0.037 C 
HETATM   32  C   UNL     1       6.024  34.337  62.490  1.00  0.00     0.037 C 
ENDBRANCH  26  29
ENDBRANCH  24  25
ENDBRANCH  23  24
ENDBRANCH   2  23
TORSDOF 9
ENDMDL
MODEL 5
REMARK VINA RESULT:      -8.3      2.521     10.532
REMARK  9 active torsions:
REMARK  status: ('A' for Active; 'I' for Inactive)
REMARK    1  A    between atoms: C_2  and  O_3 
REMARK    2  A    between atoms: O_3  and  C_4 
REMARK    3  A    between atoms: C_5  and  O_6 
REMARK    4  A    between atoms: O_6  and  C_7 
REMARK    5  A    between atoms: C_7  and  C_8 
REMARK       I    between atoms: C_8  and  N_9 
REMARK    6  A    between atoms: N_9  and  C_10 
REMARK    7  A    between atoms: C_17  and  C_18 
REMARK    8  A    between atoms: C_18  and  N_19 
REMARK    9  A    between atoms: N_19  and  C_20 
ROOT
HETATM    1  C   UNL     1       8.086  29.467  57.599  1.00  0.00     0.102 A 
HETATM    2  C   UNL     1       6.930  29.124  56.881  1.00  0.00     0.102 A 
HETATM    3  C   UNL     1       5.757  29.848  57.114  1.00  0.00     0.040 A 
HETATM    4  C   UNL     1       5.731  30.873  58.066  1.00  0.00     0.012 A 
HETATM    5  C   UNL     1       6.872  31.188  58.815  1.00  0.00    -0.038 A 
HETATM    6  C   UNL     1       8.048  30.469  58.575  1.00  0.00     0.048 A 
ENDROOT
BRANCH   5   7
HETATM    7  C   UNL     1       6.817  32.255  59.884  1.00  0.00     0.158 C 
BRANCH   7   8
HETATM    8  N   UNL     1       6.106  31.729  61.042  1.00  0.00    -0.386 N 
HETATM    9  H   UNL     1       6.161  30.715  61.102  1.00  0.00     0.160 HD
BRANCH   8  10
HETATM   10  C   UNL     1       6.248  32.339  62.291  1.00  0.00     0.031 A 
HETATM   11  C   UNL     1       5.170  32.725  63.095  1.00  0.00     0.068 A 
HETATM   12  C   UNL     1       5.380  33.256  64.372  1.00  0.00     0.104 A 
HETATM   13  C   UNL     1       6.676  33.409  64.866  1.00  0.00     0.102 A 
HETATM   14  O   UNL     1       4.259  33.610  65.083  1.00  0.00    -0.346 OA
HETATM   15  O   UNL     1       6.956  33.950  66.095  1.00  0.00    -0.346 OA
HETATM   16  C   UNL     1       7.756  32.981  64.106  1.00  0.00     0.042 A 
HETATM   17  C   UNL     1       5.822  34.638  66.632  1.00  0.00     0.202 C 
HETATM   18  C   UNL     1       4.561  33.805  66.469  1.00  0.00     0.202 C 
HETATM   19  C   UNL     1       7.539  32.440  62.836  1.00  0.00     0.032 A 
ENDBRANCH   8  10
ENDBRANCH   7   8
ENDBRANCH   5   7
BRANCH   1  20
HETATM   20  O   UNL     1       9.288  28.812  57.495  1.00  0.00    -0.349 OA
BRANCH  20  21
HETATM   21  C   UNL     1      10.228  29.387  56.579  1.00  0.00     0.171 C 
HETATM   22  C   UNL     1      11.436  29.997  57.272  1.00  0.00     0.034 C 
ENDBRANCH  20  21
ENDBRANCH   1  20
BRANCH   2  23
HETATM   23  O   UNL     1       7.021  28.038  56.052  1.00  0.00    -0.339 OA
BRANCH  23  24
HETATM   24  C   UNL     1       7.101  26.734  56.609  1.00  0.00     0.278 C 
BRANCH  24  25
HETATM   25  C   UNL     1       6.690  25.585  55.677  1.00  0.00     0.242 C 
HETATM   26  N   UNL     1       7.270  25.632  54.429  1.00  0.00    -0.351 N 
HETATM   27  H   UNL     1       7.802  26.475  54.226  1.00  0.00     0.163 HD
HETATM   28  O   UNL     1       5.900  24.720  56.043  1.00  0.00    -0.271 OA
BRANCH  26  29
HETATM   29  C   UNL     1       7.004  24.710  53.319  1.00  0.00     0.022 C 
HETATM   30  C   UNL     1       7.879  25.068  52.110  1.00  0.00     0.037 C 
HETATM   31  C   UNL     1       7.364  23.289  53.789  1.00  0.00     0.037 C 
HETATM   32  C   UNL     1       5.520  24.719  52.920  1.00  0.00     0.037 C 
ENDBRANCH  26  29
ENDBRANCH  24  25
ENDBRANCH  23  24
ENDBRANCH   2  23
TORSDOF 9
ENDMDL
MODEL 6
REMARK VINA RESULT:      -8.1      2.205     10.040
REMARK  9 active torsions:
REMARK  status: ('A' for Active; 'I' for Inactive)
REMARK    1  A    between atoms: C_2  and  O_3 
REMARK    2  A    between atoms: O_3  and  C_4 
REMARK    3  A    between atoms: C_5  and  O_6 
REMARK    4  A    between atoms: O_6  and  C_7 
REMARK    5  A    between atoms: C_7  and  C_8 
REMARK       I    between atoms: C_8  and  N_9 
REMARK    6  A    between atoms: N_9  and  C_10 
REMARK    7  A    between atoms: C_17  and  C_18 
REMARK    8  A    between atoms: C_18  and  N_19 
REMARK    9  A    between atoms: N_19  and  C_20 
ROOT
HETATM    1  C   UNL     1       5.724  27.735  56.424  1.00  0.00     0.102 A 
HETATM    2  C   UNL     1       6.439  26.529  56.347  1.00  0.00     0.102 A 
HETATM    3  C   UNL     1       7.762  26.504  56.800  1.00  0.00     0.040 A 
HETATM    4  C   UNL     1       8.367  27.666  57.292  1.00  0.00     0.012 A 
HETATM    5  C   UNL     1       7.669  28.880  57.329  1.00  0.00    -0.038 A 
HETATM    6  C   UNL     1       6.343  28.903  56.884  1.00  0.00     0.048 A 
ENDROOT
BRANCH   5   7
HETATM    7  C   UNL     1       8.351  30.143  57.805  1.00  0.00     0.158 C 
BRANCH   7   8
HETATM    8  N   UNL     1       8.653  30.011  59.224  1.00  0.00    -0.386 N 
HETATM    9  H   UNL     1       9.621  29.749  59.392  1.00  0.00     0.160 HD
BRANCH   8  10
HETATM   10  C   UNL     1       8.204  30.976  60.130  1.00  0.00     0.031 A 
HETATM   11  C   UNL     1       7.079  31.781  59.917  1.00  0.00     0.068 A 
HETATM   12  C   UNL     1       6.635  32.670  60.901  1.00  0.00     0.104 A 
HETATM   13  C   UNL     1       7.311  32.768  62.118  1.00  0.00     0.102 A 
HETATM   14  O   UNL     1       5.526  33.420  60.596  1.00  0.00    -0.346 OA
HETATM   15  O   UNL     1       6.949  33.638  63.114  1.00  0.00    -0.346 OA
HETATM   16  C   UNL     1       8.395  31.938  62.371  1.00  0.00     0.042 A 
HETATM   17  C   UNL     1       6.053  34.642  62.628  1.00  0.00     0.202 C 
HETATM   18  C   UNL     1       4.965  34.020  61.769  1.00  0.00     0.202 C 
HETATM   19  C   UNL     1       8.827  31.044  61.388  1.00  0.00     0.032 A 
ENDBRANCH   8  10
ENDBRANCH   7   8
ENDBRANCH   5   7
BRANCH   1  20
HETATM   20  O   UNL     1       4.437  27.904  55.978  1.00  0.00    -0.349 OA
BRANCH  20  21
HETATM   21  C   UNL     1       4.271  28.843  54.909  1.00  0.00     0.171 C 
HETATM   22  C   UNL     1       3.932  28.179  53.584  1.00  0.00     0.034 C 
ENDBRANCH  20  21
ENDBRANCH   1  20
BRANCH   2  23
HETATM   23  O   UNL     1       5.802  25.473  55.752  1.00  0.00    -0.339 OA
BRANCH  23  24
HETATM   24  C   UNL     1       6.016  25.212  54.372  1.00  0.00     0.278 C 
BRANCH  24  25
HETATM   25  C   UNL     1       7.137  24.214  54.049  1.00  0.00     0.242 C 
HETATM   26  N   UNL     1       7.051  23.023  54.736  1.00  0.00    -0.351 N 
HETATM   27  H   UNL     1       6.336  22.986  55.458  1.00  0.00     0.163 HD
HETATM   28  O   UNL     1       8.025  24.491  53.248  1.00  0.00    -0.271 OA
BRANCH  26  29
HETATM   29  C   UNL     1       8.021  21.923  54.679  1.00  0.00     0.022 C 
HETATM   30  C   UNL     1       7.615  20.808  55.651  1.00  0.00     0.037 C 
HETATM   31  C   UNL     1       8.012  21.360  53.246  1.00  0.00     0.037 C 
HETATM   32  C   UNL     1       9.445  22.409  54.992  1.00  0.00     0.037 C 
ENDBRANCH  26  29
ENDBRANCH  24  25
ENDBRANCH  23  24
ENDBRANCH   2  23
TORSDOF 9
ENDMDL
MODEL 7
REMARK VINA RESULT:      -7.9      2.570     10.409
REMARK  9 active torsions:
REMARK  status: ('A' for Active; 'I' for Inactive)
REMARK    1  A    between atoms: C_2  and  O_3 
REMARK    2  A    between atoms: O_3  and  C_4 
REMARK    3  A    between atoms: C_5  and  O_6 
REMARK    4  A    between atoms: O_6  and  C_7 
REMARK    5  A    between atoms: C_7  and  C_8 
REMARK       I    between atoms: C_8  and  N_9 
REMARK    6  A    between atoms: N_9  and  C_10 
REMARK    7  A    between atoms: C_17  and  C_18 
REMARK    8  A    between atoms: C_18  and  N_19 
REMARK    9  A    between atoms: N_19  and  C_20 
ROOT
HETATM    1  C   UNL     1       6.808  29.574  57.423  1.00  0.00     0.102 A 
HETATM    2  C   UNL     1       7.720  29.290  56.394  1.00  0.00     0.102 A 
HETATM    3  C   UNL     1       9.084  29.476  56.637  1.00  0.00     0.040 A 
HETATM    4  C   UNL     1       9.527  29.966  57.870  1.00  0.00     0.012 A 
HETATM    5  C   UNL     1       8.616  30.292  58.883  1.00  0.00    -0.038 A 
HETATM    6  C   UNL     1       7.252  30.096  58.644  1.00  0.00     0.048 A 
ENDROOT
BRANCH   5   7
HETATM    7  C   UNL     1       9.100  30.878  60.191  1.00  0.00     0.158 C 
BRANCH   7   8
HETATM    8  N   UNL     1       8.103  30.621  61.221  1.00  0.00    -0.386 N 
HETATM    9  H   UNL     1       8.347  29.826  61.807  1.00  0.00     0.160 HD
BRANCH   8  10
HETATM   10  C   UNL     1       7.571  31.678  61.964  1.00  0.00     0.031 A 
HETATM   11  C   UNL     1       6.329  32.267  61.701  1.00  0.00     0.068 A 
HETATM   12  C   UNL     1       5.817  33.268  62.533  1.00  0.00     0.104 A 
HETATM   13  C   UNL     1       6.542  33.697  63.646  1.00  0.00     0.102 A 
HETATM   14  O   UNL     1       4.593  33.787  62.189  1.00  0.00    -0.346 OA
HETATM   15  O   UNL     1       6.115  34.693  64.486  1.00  0.00    -0.346 OA
HETATM   16  C   UNL     1       7.750  33.087  63.956  1.00  0.00     0.042 A 
HETATM   17  C   UNL     1       5.053  35.450  63.898  1.00  0.00     0.202 C 
HETATM   18  C   UNL     1       4.020  34.529  63.271  1.00  0.00     0.202 C 
HETATM   19  C   UNL     1       8.250  32.079  63.127  1.00  0.00     0.032 A 
ENDBRANCH   8  10
ENDBRANCH   7   8
ENDBRANCH   5   7
BRANCH   1  20
HETATM   20  O   UNL     1       5.445  29.472  57.304  1.00  0.00    -0.349 OA
BRANCH  20  21
HETATM   21  C   UNL     1       4.745  30.710  57.131  1.00  0.00     0.171 C 
HETATM   22  C   UNL     1       3.654  30.924  58.169  1.00  0.00     0.034 C 
ENDBRANCH  20  21
ENDBRANCH   1  20
BRANCH   2  23
HETATM   23  O   UNL     1       7.189  28.920  55.188  1.00  0.00    -0.339 OA
BRANCH  23  24
HETATM   24  C   UNL     1       7.989  28.201  54.260  1.00  0.00     0.278 C 
BRANCH  24  25
HETATM   25  C   UNL     1       7.293  27.033  53.546  1.00  0.00     0.242 C 
HETATM   26  N   UNL     1       7.474  25.809  54.152  1.00  0.00    -0.351 N 
HETATM   27  H   UNL     1       8.137  25.797  54.923  1.00  0.00     0.163 HD
HETATM   28  O   UNL     1       6.646  27.208  52.518  1.00  0.00    -0.271 OA
BRANCH  26  29
HETATM   29  C   UNL     1       6.988  24.518  53.652  1.00  0.00     0.022 C 
HETATM   30  C   UNL     1       7.817  24.073  52.440  1.00  0.00     0.037 C 
HETATM   31  C   UNL     1       7.156  23.481  54.777  1.00  0.00     0.037 C 
HETATM   32  C   UNL     1       5.498  24.582  53.280  1.00  0.00     0.037 C 
ENDBRANCH  26  29
ENDBRANCH  24  25
ENDBRANCH  23  24
ENDBRANCH   2  23
TORSDOF 9
ENDMDL
MODEL 8
REMARK VINA RESULT:      -7.9      2.700     10.627
REMARK  9 active torsions:
REMARK  status: ('A' for Active; 'I' for Inactive)
REMARK    1  A    between atoms: C_2  and  O_3 
REMARK    2  A    between atoms: O_3  and  C_4 
REMARK    3  A    between atoms: C_5  and  O_6 
REMARK    4  A    between atoms: O_6  and  C_7 
REMARK    5  A    between atoms: C_7  and  C_8 
REMARK       I    between atoms: C_8  and  N_9 
REMARK    6  A    between atoms: N_9  and  C_10 
REMARK    7  A    between atoms: C_17  and  C_18 
REMARK    8  A    between atoms: C_18  and  N_19 
REMARK    9  A    between atoms: N_19  and  C_20 
ROOT
HETATM    1  C   UNL     1       6.393  30.612  57.840  1.00  0.00     0.102 A 
HETATM    2  C   UNL     1       7.244  29.592  57.387  1.00  0.00     0.102 A 
HETATM    3  C   UNL     1       8.500  29.451  57.985  1.00  0.00     0.040 A 
HETATM    4  C   UNL     1       8.910  30.330  58.994  1.00  0.00     0.012 A 
HETATM    5  C   UNL     1       8.079  31.375  59.418  1.00  0.00    -0.038 A 
HETATM    6  C   UNL     1       6.819  31.510  58.826  1.00  0.00     0.048 A 
ENDROOT
BRANCH   5   7
HETATM    7  C   UNL     1       8.555  32.357  60.465  1.00  0.00     0.158 C 
BRANCH   7   8
HETATM    8  N   UNL     1       8.440  31.738  61.779  1.00  0.00    -0.386 N 
HETATM    9  H   UNL     1       9.343  31.622  62.233  1.00  0.00     0.160 HD
BRANCH   8  10
HETATM   10  C   UNL     1       7.453  32.162  62.672  1.00  0.00     0.031 A 
HETATM   11  C   UNL     1       7.724  32.811  63.882  1.00  0.00     0.068 A 
HETATM   12  C   UNL     1       6.687  33.283  64.692  1.00  0.00     0.104 A 
HETATM   13  C   UNL     1       5.357  33.115  64.303  1.00  0.00     0.102 A 
HETATM   14  O   UNL     1       7.053  33.902  65.863  1.00  0.00    -0.346 OA
HETATM   15  O   UNL     1       4.291  33.526  65.062  1.00  0.00    -0.346 OA
HETATM   16  C   UNL     1       5.069  32.525  63.080  1.00  0.00     0.042 A 
HETATM   17  C   UNL     1       4.688  33.811  66.407  1.00  0.00     0.202 C 
HETATM   18  C   UNL     1       5.963  34.639  66.427  1.00  0.00     0.202 C 
HETATM   19  C   UNL     1       6.110  32.065  62.270  1.00  0.00     0.032 A 
ENDBRANCH   8  10
ENDBRANCH   7   8
ENDBRANCH   5   7
BRANCH   1  20
HETATM   20  O   UNL     1       5.154  30.882  57.314  1.00  0.00    -0.349 OA
BRANCH  20  21
HETATM   21  C   UNL     1       5.111  31.938  56.346  1.00  0.00     0.171 C 
HETATM   22  C   UNL     1       4.422  31.530  55.053  1.00  0.00     0.034 C 
ENDBRANCH  20  21
ENDBRANCH   1  20
BRANCH   2  23
HETATM   23  O   UNL     1       6.803  28.851  56.323  1.00  0.00    -0.339 OA
BRANCH  23  24
HETATM   24  C   UNL     1       7.649  27.858  55.761  1.00  0.00     0.278 C 
BRANCH  24  25
HETATM   25  C   UNL     1       6.970  26.525  55.412  1.00  0.00     0.242 C 
HETATM   26  N   UNL     1       7.477  25.908  54.290  1.00  0.00    -0.351 N 
HETATM   27  H   UNL     1       8.150  26.453  53.758  1.00  0.00     0.163 HD
HETATM   28  O   UNL     1       6.050  26.082  56.092  1.00  0.00    -0.271 OA
BRANCH  26  29
HETATM   29  C   UNL     1       6.975  24.668  53.687  1.00  0.00     0.022 C 
HETATM   30  C   UNL     1       5.496  24.824  53.306  1.00  0.00     0.037 C 
HETATM   31  C   UNL     1       7.791  24.400  52.409  1.00  0.00     0.037 C 
HETATM   32  C   UNL     1       7.156  23.468  54.630  1.00  0.00     0.037 C 
ENDBRANCH  26  29
ENDBRANCH  24  25
ENDBRANCH  23  24
ENDBRANCH   2  23
TORSDOF 9
ENDMDL
MODEL 9
REMARK VINA RESULT:      -7.9      1.894      2.955
REMARK  9 active torsions:
REMARK  status: ('A' for Active; 'I' for Inactive)
REMARK    1  A    between atoms: C_2  and  O_3 
REMARK    2  A    between atoms: O_3  and  C_4 
REMARK    3  A    between atoms: C_5  and  O_6 
REMARK    4  A    between atoms: O_6  and  C_7 
REMARK    5  A    between atoms: C_7  and  C_8 
REMARK       I    between atoms: C_8  and  N_9 
REMARK    6  A    between atoms: N_9  and  C_10 
REMARK    7  A    between atoms: C_17  and  C_18 
REMARK    8  A    between atoms: C_18  and  N_19 
REMARK    9  A    between atoms: N_19  and  C_20 
ROOT
HETATM    1  C   UNL     1       4.288  29.566  56.273  1.00  0.00     0.102 A 
HETATM    2  C   UNL     1       5.232  29.722  57.300  1.00  0.00     0.102 A 
HETATM    3  C   UNL     1       6.262  28.784  57.413  1.00  0.00     0.040 A 
HETATM    4  C   UNL     1       6.330  27.694  56.537  1.00  0.00     0.012 A 
HETATM    5  C   UNL     1       5.365  27.513  55.539  1.00  0.00    -0.038 A 
HETATM    6  C   UNL     1       4.339  28.457  55.421  1.00  0.00     0.048 A 
ENDROOT
BRANCH   5   7
HETATM    7  C   UNL     1       5.412  26.300  54.637  1.00  0.00     0.158 C 
BRANCH   7   8
HETATM    8  N   UNL     1       6.801  26.013  54.304  1.00  0.00    -0.386 N 
HETATM    9  H   UNL     1       7.432  26.755  54.597  1.00  0.00     0.160 HD
BRANCH   8  10
HETATM   10  C   UNL     1       7.334  24.744  54.543  1.00  0.00     0.031 A 
HETATM   11  C   UNL     1       7.259  23.683  53.634  1.00  0.00     0.068 A 
HETATM   12  C   UNL     1       7.885  22.462  53.901  1.00  0.00     0.104 A 
HETATM   13  C   UNL     1       8.599  22.281  55.086  1.00  0.00     0.102 A 
HETATM   14  O   UNL     1       7.750  21.480  52.949  1.00  0.00    -0.346 OA
HETATM   15  O   UNL     1       9.211  21.102  55.426  1.00  0.00    -0.346 OA
HETATM   16  C   UNL     1       8.733  23.338  55.976  1.00  0.00     0.042 A 
HETATM   17  C   UNL     1       8.742  20.019  54.616  1.00  0.00     0.202 C 
HETATM   18  C   UNL     1       8.695  20.424  53.152  1.00  0.00     0.202 C 
HETATM   19  C   UNL     1       8.114  24.560  55.698  1.00  0.00     0.032 A 
ENDBRANCH   8  10
ENDBRANCH   7   8
ENDBRANCH   5   7
BRANCH   1  20
HETATM   20  O   UNL     1       3.209  30.391  56.077  1.00  0.00    -0.349 OA
BRANCH  20  21
HETATM   21  C   UNL     1       3.189  31.097  54.830  1.00  0.00     0.171 C 
HETATM   22  C   UNL     1       4.182  32.247  54.784  1.00  0.00     0.034 C 
ENDBRANCH  20  21
ENDBRANCH   1  20
BRANCH   2  23
HETATM   23  O   UNL     1       5.023  30.755  58.175  1.00  0.00    -0.339 OA
BRANCH  23  24
HETATM   24  C   UNL     1       5.903  31.870  58.167  1.00  0.00     0.278 C 
BRANCH  24  25
HETATM   25  C   UNL     1       6.706  32.094  59.456  1.00  0.00     0.242 C 
HETATM   26  N   UNL     1       5.977  31.930  60.614  1.00  0.00    -0.351 N 
HETATM   27  H   UNL     1       4.976  31.801  60.485  1.00  0.00     0.163 HD
HETATM   28  O   UNL     1       7.893  32.403  59.422  1.00  0.00    -0.271 OA
BRANCH  26  29
HETATM   29  C   UNL     1       6.466  32.152  61.979  1.00  0.00     0.022 C 
HETATM   30  C   UNL     1       6.790  33.637  62.192  1.00  0.00     0.037 C 
HETATM   31  C   UNL     1       5.346  31.743  62.954  1.00  0.00     0.037 C 
HETATM   32  C   UNL     1       7.702  31.291  62.283  1.00  0.00     0.037 C 
ENDBRANCH  26  29
ENDBRANCH  24  25
ENDBRANCH  23  24
ENDBRANCH   2  23
TORSDOF 9
ENDMDL
MODEL 10
REMARK VINA RESULT:      -7.8      1.883      2.338
REMARK  9 active torsions:
REMARK  status: ('A' for Active; 'I' for Inactive)
REMARK    1  A    between atoms: C_2  and  O_3 
REMARK    2  A    between atoms: O_3  and  C_4 
REMARK    3  A    between atoms: C_5  and  O_6 
REMARK    4  A    between atoms: O_6  and  C_7 
REMARK    5  A    between atoms: C_7  and  C_8 
REMARK       I    between atoms: C_8  and  N_9 
REMARK    6  A    between atoms: N_9  and  C_10 
REMARK    7  A    between atoms: C_17  and  C_18 
REMARK    8  A    between atoms: C_18  and  N_19 
REMARK    9  A    between atoms: N_19  and  C_20 
ROOT
HETATM    1  C   UNL     1       6.338  29.424  56.533  1.00  0.00     0.102 A 
HETATM    2  C   UNL     1       5.023  29.903  56.651  1.00  0.00     0.102 A 
HETATM    3  C   UNL     1       4.012  29.272  55.920  1.00  0.00     0.040 A 
HETATM    4  C   UNL     1       4.312  28.205  55.066  1.00  0.00     0.012 A 
HETATM    5  C   UNL     1       5.630  27.754  54.914  1.00  0.00    -0.038 A 
HETATM    6  C   UNL     1       6.640  28.380  55.652  1.00  0.00     0.048 A 
ENDROOT
BRANCH   5   7
HETATM    7  C   UNL     1       5.953  26.641  53.942  1.00  0.00     0.158 C 
BRANCH   7   8
HETATM    8  N   UNL     1       7.318  26.191  54.177  1.00  0.00    -0.386 N 
HETATM    9  H   UNL     1       7.762  26.682  54.949  1.00  0.00     0.160 HD
BRANCH   8  10
HETATM   10  C   UNL     1       7.617  24.826  54.180  1.00  0.00     0.031 A 
HETATM   11  C   UNL     1       7.806  24.073  55.345  1.00  0.00     0.068 A 
HETATM   12  C   UNL     1       8.022  22.693  55.282  1.00  0.00     0.104 A 
HETATM   13  C   UNL     1       8.050  22.041  54.048  1.00  0.00     0.102 A 
HETATM   14  O   UNL     1       8.202  22.043  56.478  1.00  0.00    -0.346 OA
HETATM   15  O   UNL     1       8.286  20.697  53.910  1.00  0.00    -0.346 OA
HETATM   16  C   UNL     1       7.809  22.759  52.885  1.00  0.00     0.042 A 
HETATM   17  C   UNL     1       8.833  20.138  55.109  1.00  0.00     0.202 C 
HETATM   18  C   UNL     1       8.065  20.626  56.327  1.00  0.00     0.202 C 
HETATM   19  C   UNL     1       7.583  24.137  52.956  1.00  0.00     0.032 A 
ENDBRANCH   8  10
ENDBRANCH   7   8
ENDBRANCH   5   7
BRANCH   1  20
HETATM   20  O   UNL     1       7.425  29.977  57.163  1.00  0.00    -0.349 OA
BRANCH  20  21
HETATM   21  C   UNL     1       7.875  29.290  58.337  1.00  0.00     0.171 C 
HETATM   22  C   UNL     1       8.677  30.179  59.274  1.00  0.00     0.034 C 
ENDBRANCH  20  21
ENDBRANCH   1  20
BRANCH   2  23
HETATM   23  O   UNL     1       4.842  31.018  57.424  1.00  0.00    -0.339 OA
BRANCH  23  24
HETATM   24  C   UNL     1       3.622  31.190  58.132  1.00  0.00     0.278 C 
BRANCH  24  25
HETATM   25  C   UNL     1       3.707  32.041  59.407  1.00  0.00     0.242 C 
HETATM   26  N   UNL     1       4.961  32.090  59.974  1.00  0.00    -0.351 N 
HETATM   27  H   UNL     1       5.652  31.469  59.561  1.00  0.00     0.163 HD
HETATM   28  O   UNL     1       2.718  32.609  59.861  1.00  0.00    -0.271 OA
BRANCH  26  29
HETATM   29  C   UNL     1       5.314  32.764  61.229  1.00  0.00     0.022 C 
HETATM   30  C   UNL     1       4.652  32.053  62.418  1.00  0.00     0.037 C 
HETATM   31  C   UNL     1       6.843  32.685  61.393  1.00  0.00     0.037 C 
HETATM   32  C   UNL     1       4.911  34.247  61.207  1.00  0.00     0.037 C 
ENDBRANCH  26  29
ENDBRANCH  24  25
ENDBRANCH  23  24
ENDBRANCH   2  23
TORSDOF 9
ENDMDL
