MODEL 1
REMARK VINA RESULT:     -10.1      0.000      0.000
REMARK  4 active torsions:
REMARK  status: ('A' for Active; 'I' for Inactive)
REMARK       I    between atoms: C_2  and  N_3 
REMARK    1  A    between atoms: N_3  and  C_4 
REMARK    2  A    between atoms: C_7  and  C_8 
REMARK    3  A    between atoms: C_12  and  N_13 
REMARK    4  A    between atoms: C_20  and  C_21 
ROOT
HETATM    1  C   UNL     1       6.067  25.860  56.033  1.00  0.00     0.105 C 
HETATM    2  C   UNL     1       5.879  27.265  56.609  1.00  0.00     0.067 C 
HETATM    3  C   UNL     1       4.731  28.107  56.079  1.00  0.00     0.020 C 
HETATM    4  N   UNL     1       3.778  28.807  55.639  1.00  0.00    -0.096 N 
HETATM    5  C   UNL     1       6.710  27.801  57.543  1.00  0.00     0.139 C 
HETATM    6  O   UNL     1       7.827  27.102  58.025  1.00  0.00    -0.279 OA
HETATM    7  C   UNL     1       8.126  25.970  57.396  1.00  0.00     0.175 A 
HETATM    8  C   UNL     1       7.403  25.312  56.430  1.00  0.00     0.040 A 
HETATM    9  N   UNL     1       9.273  25.278  57.584  1.00  0.00    -0.256 N 
HETATM   10  H   UNL     1      10.037  25.485  58.216  1.00  0.00     0.191 HD
HETATM   11  N   UNL     1       9.375  24.212  56.773  1.00  0.00    -0.172 NA
HETATM   12  C   UNL     1       8.236  24.219  56.050  1.00  0.00     0.099 A 
ENDROOT
BRANCH   1  13
HETATM   13  C   UNL     1       5.928  25.766  54.525  1.00  0.00    -0.044 A 
HETATM   14  C   UNL     1       5.045  24.885  53.882  1.00  0.00     0.010 A 
HETATM   15  C   UNL     1       4.904  24.897  52.487  1.00  0.00     0.030 A 
HETATM   16  C   UNL     1       5.661  25.769  51.704  1.00  0.00     0.034 A 
HETATM   17  C   UNL     1       6.591  26.601  52.333  1.00  0.00     0.030 A 
HETATM   18  C   UNL     1       6.726  26.598  53.723  1.00  0.00     0.010 A 
BRANCH  16  19
HETATM   19  N   UNL     1       5.545  25.891  50.304  1.00  0.00    -0.328 N 
HETATM   20  C   UNL     1       4.746  26.770  49.597  1.00  0.00     0.218 C 
HETATM   21  C   UNL     1       4.957  26.666  48.106  1.00  0.00     0.117 C 
HETATM   22  O   UNL     1       3.967  27.596  50.060  1.00  0.00    -0.274 OA
HETATM   23  H   UNL     1       6.159  25.299  49.760  1.00  0.00     0.169 HD
ENDBRANCH  16  19
ENDBRANCH   1  13
BRANCH   5  24
HETATM   24  N   UNL     1       6.580  29.048  58.110  1.00  0.00    -0.282 NA
HETATM   25  H   UNL     1       5.820  29.163  58.775  1.00  0.00     0.126 HD
HETATM   26  H   UNL     1       7.467  29.415  58.445  1.00  0.00     0.126 HD
ENDBRANCH   5  24
BRANCH  12  27
HETATM   27  C   UNL     1       8.042  23.228  54.996  1.00  0.00    -0.005 A 
HETATM   28  C   UNL     1       8.255  23.541  53.650  1.00  0.00     0.014 A 
HETATM   29  C   UNL     1       8.102  22.556  52.668  1.00  0.00     0.001 A 
HETATM   30  C   UNL     1       7.731  21.260  53.026  1.00  0.00     0.000 A 
HETATM   31  C   UNL     1       7.500  20.944  54.363  1.00  0.00     0.001 A 
HETATM   32  C   UNL     1       7.651  21.926  55.343  1.00  0.00     0.014 A 
ENDBRANCH  12  27
TORSDOF 4
ENDMDL
MODEL 2
REMARK VINA RESULT:      -9.2      2.135      4.804
REMARK  4 active torsions:
REMARK  status: ('A' for Active; 'I' for Inactive)
REMARK       I    between atoms: C_2  and  N_3 
REMARK    1  A    between atoms: N_3  and  C_4 
REMARK    2  A    between atoms: C_7  and  C_8 
REMARK    3  A    between atoms: C_12  and  N_13 
REMARK    4  A    between atoms: C_20  and  C_21 
ROOT
HETATM    1  C   UNL     1       8.480  23.623  54.649  1.00  0.00     0.105 C 
HETATM    2  C   UNL     1       8.541  22.097  54.737  1.00  0.00     0.067 C 
HETATM    3  C   UNL     1       8.453  21.302  53.446  1.00  0.00     0.020 C 
HETATM    4  N   UNL     1       8.379  20.641  52.374  1.00  0.00    -0.096 N 
HETATM    5  C   UNL     1       8.635  21.426  55.917  1.00  0.00     0.139 C 
HETATM    6  O   UNL     1       8.653  22.098  57.149  1.00  0.00    -0.279 OA
HETATM    7  C   UNL     1       8.399  23.401  57.109  1.00  0.00     0.175 A 
HETATM    8  C   UNL     1       8.264  24.213  56.009  1.00  0.00     0.040 A 
HETATM    9  N   UNL     1       8.171  24.163  58.204  1.00  0.00    -0.256 N 
HETATM   10  H   UNL     1       8.181  23.885  59.178  1.00  0.00     0.191 HD
HETATM   11  N   UNL     1       7.858  25.432  57.896  1.00  0.00    -0.172 NA
HETATM   12  C   UNL     1       7.903  25.483  56.549  1.00  0.00     0.099 A 
ENDROOT
BRANCH   1  13
HETATM   13  C   UNL     1       7.421  24.165  53.706  1.00  0.00    -0.044 A 
HETATM   14  C   UNL     1       6.046  24.130  53.984  1.00  0.00     0.010 A 
HETATM   15  C   UNL     1       5.120  24.718  53.110  1.00  0.00     0.030 A 
HETATM   16  C   UNL     1       5.545  25.327  51.929  1.00  0.00     0.034 A 
HETATM   17  C   UNL     1       6.906  25.305  51.614  1.00  0.00     0.030 A 
HETATM   18  C   UNL     1       7.832  24.730  52.488  1.00  0.00     0.010 A 
BRANCH  16  19
HETATM   19  N   UNL     1       4.694  25.991  51.021  1.00  0.00    -0.328 N 
HETATM   20  C   UNL     1       4.713  27.328  50.671  1.00  0.00     0.218 C 
HETATM   21  C   UNL     1       3.702  27.655  49.598  1.00  0.00     0.117 C 
HETATM   22  O   UNL     1       5.463  28.195  51.106  1.00  0.00    -0.274 OA
HETATM   23  H   UNL     1       4.028  25.404  50.536  1.00  0.00     0.169 HD
ENDBRANCH  16  19
ENDBRANCH   1  13
BRANCH   5  24
HETATM   24  N   UNL     1       8.713  20.060  56.058  1.00  0.00    -0.282 NA
HETATM   25  H   UNL     1       9.598  19.630  55.802  1.00  0.00     0.126 HD
HETATM   26  H   UNL     1       8.355  19.741  56.955  1.00  0.00     0.126 HD
ENDBRANCH   5  24
BRANCH  12  27
HETATM   27  C   UNL     1       7.534  26.713  55.857  1.00  0.00    -0.005 A 
HETATM   28  C   UNL     1       8.444  27.395  55.042  1.00  0.00     0.014 A 
HETATM   29  C   UNL     1       8.046  28.548  54.358  1.00  0.00     0.001 A 
HETATM   30  C   UNL     1       6.742  29.027  54.489  1.00  0.00     0.000 A 
HETATM   31  C   UNL     1       5.835  28.364  55.312  1.00  0.00     0.001 A 
HETATM   32  C   UNL     1       6.231  27.215  55.996  1.00  0.00     0.014 A 
ENDBRANCH  12  27
TORSDOF 4
ENDMDL
MODEL 3
REMARK VINA RESULT:      -8.8     10.626     13.986
REMARK  4 active torsions:
REMARK  status: ('A' for Active; 'I' for Inactive)
REMARK       I    between atoms: C_2  and  N_3 
REMARK    1  A    between atoms: N_3  and  C_4 
REMARK    2  A    between atoms: C_7  and  C_8 
REMARK    3  A    between atoms: C_12  and  N_13 
REMARK    4  A    between atoms: C_20  and  C_21 
ROOT
HETATM    1  C   UNL     1       4.659  34.761  60.671  1.00  0.00     0.105 C 
HETATM    2  C   UNL     1       3.695  35.164  59.554  1.00  0.00     0.067 C 
HETATM    3  C   UNL     1       3.747  36.595  59.047  1.00  0.00     0.020 C 
HETATM    4  N   UNL     1       3.790  37.784  58.625  1.00  0.00    -0.096 N 
HETATM    5  C   UNL     1       2.777  34.313  59.023  1.00  0.00     0.139 C 
HETATM    6  O   UNL     1       2.632  32.998  59.494  1.00  0.00    -0.279 OA
HETATM    7  C   UNL     1       3.312  32.690  60.591  1.00  0.00     0.175 A 
HETATM    8  C   UNL     1       4.257  33.440  61.250  1.00  0.00     0.040 A 
HETATM    9  N   UNL     1       3.137  31.550  61.299  1.00  0.00    -0.256 N 
HETATM   10  H   UNL     1       2.510  30.778  61.103  1.00  0.00     0.191 HD
HETATM   11  N   UNL     1       3.886  31.509  62.412  1.00  0.00    -0.172 NA
HETATM   12  C   UNL     1       4.578  32.666  62.405  1.00  0.00     0.099 A 
ENDROOT
BRANCH   1  13
HETATM   13  C   UNL     1       4.787  35.770  61.798  1.00  0.00    -0.044 A 
HETATM   14  C   UNL     1       3.708  36.186  62.592  1.00  0.00     0.010 A 
HETATM   15  C   UNL     1       3.903  37.062  63.670  1.00  0.00     0.030 A 
HETATM   16  C   UNL     1       5.173  37.562  63.958  1.00  0.00     0.034 A 
HETATM   17  C   UNL     1       6.240  37.206  63.129  1.00  0.00     0.030 A 
HETATM   18  C   UNL     1       6.051  36.325  62.062  1.00  0.00     0.010 A 
BRANCH  16  19
HETATM   19  N   UNL     1       5.472  38.400  65.053  1.00  0.00    -0.328 N 
HETATM   20  C   UNL     1       5.959  39.693  65.016  1.00  0.00     0.218 C 
HETATM   21  C   UNL     1       6.072  40.303  66.393  1.00  0.00     0.117 C 
HETATM   22  O   UNL     1       6.245  40.347  64.020  1.00  0.00    -0.274 OA
HETATM   23  H   UNL     1       5.255  38.023  65.965  1.00  0.00     0.169 HD
ENDBRANCH  16  19
ENDBRANCH   1  13
BRANCH   5  24
HETATM   24  N   UNL     1       1.899  34.612  58.008  1.00  0.00    -0.282 NA
HETATM   25  H   UNL     1       2.174  34.317  57.074  1.00  0.00     0.126 HD
HETATM   26  H   UNL     1       0.939  34.368  58.240  1.00  0.00     0.126 HD
ENDBRANCH   5  24
BRANCH  12  27
HETATM   27  C   UNL     1       5.450  32.996  63.529  1.00  0.00    -0.005 A 
HETATM   28  C   UNL     1       6.840  32.867  63.438  1.00  0.00     0.014 A 
HETATM   29  C   UNL     1       7.650  33.233  64.518  1.00  0.00     0.001 A 
HETATM   30  C   UNL     1       7.076  33.722  65.692  1.00  0.00     0.000 A 
HETATM   31  C   UNL     1       5.692  33.838  65.796  1.00  0.00     0.001 A 
HETATM   32  C   UNL     1       4.883  33.472  64.720  1.00  0.00     0.014 A 
ENDBRANCH  12  27
TORSDOF 4
ENDMDL
MODEL 4
REMARK VINA RESULT:      -8.8      2.608      7.351
REMARK  4 active torsions:
REMARK  status: ('A' for Active; 'I' for Inactive)
REMARK       I    between atoms: C_2  and  N_3 
REMARK    1  A    between atoms: N_3  and  C_4 
REMARK    2  A    between atoms: C_7  and  C_8 
REMARK    3  A    between atoms: C_12  and  N_13 
REMARK    4  A    between atoms: C_20  and  C_21 
ROOT
HETATM    1  C   UNL     1       6.171  25.723  55.064  1.00  0.00     0.105 C 
HETATM    2  C   UNL     1       7.033  24.557  54.578  1.00  0.00     0.067 C 
HETATM    3  C   UNL     1       8.144  24.061  55.488  1.00  0.00     0.020 C 
HETATM    4  N   UNL     1       9.066  23.649  56.243  1.00  0.00    -0.096 N 
HETATM    5  C   UNL     1       6.871  23.972  53.361  1.00  0.00     0.139 C 
HETATM    6  O   UNL     1       5.908  24.427  52.446  1.00  0.00    -0.279 OA
HETATM    7  C   UNL     1       5.289  25.559  52.761  1.00  0.00     0.175 A 
HETATM    8  C   UNL     1       5.356  26.272  53.933  1.00  0.00     0.040 A 
HETATM    9  N   UNL     1       4.492  26.249  51.913  1.00  0.00    -0.256 N 
HETATM   10  H   UNL     1       4.232  26.014  50.962  1.00  0.00     0.191 HD
HETATM   11  N   UNL     1       4.049  27.402  52.440  1.00  0.00    -0.172 NA
HETATM   12  C   UNL     1       4.575  27.439  53.681  1.00  0.00     0.099 A 
ENDROOT
BRANCH   1  13
HETATM   13  C   UNL     1       6.942  26.861  55.709  1.00  0.00    -0.044 A 
HETATM   14  C   UNL     1       7.714  27.782  54.985  1.00  0.00     0.010 A 
HETATM   15  C   UNL     1       8.340  28.859  55.628  1.00  0.00     0.030 A 
HETATM   16  C   UNL     1       8.232  29.022  57.010  1.00  0.00     0.034 A 
HETATM   17  C   UNL     1       7.521  28.070  57.745  1.00  0.00     0.030 A 
HETATM   18  C   UNL     1       6.887  27.002  57.106  1.00  0.00     0.010 A 
BRANCH  16  19
HETATM   19  N   UNL     1       8.778  30.103  57.732  1.00  0.00    -0.328 N 
HETATM   20  C   UNL     1      10.111  30.449  57.854  1.00  0.00     0.218 C 
HETATM   21  C   UNL     1      10.304  31.725  58.638  1.00  0.00     0.117 C 
HETATM   22  O   UNL     1      11.073  29.862  57.373  1.00  0.00    -0.274 OA
HETATM   23  H   UNL     1       8.107  30.723  58.167  1.00  0.00     0.169 HD
ENDBRANCH  16  19
ENDBRANCH   1  13
BRANCH   5  24
HETATM   24  N   UNL     1       7.601  22.911  52.877  1.00  0.00    -0.282 NA
HETATM   25  H   UNL     1       8.587  22.893  53.127  1.00  0.00     0.126 HD
HETATM   26  H   UNL     1       7.133  22.020  53.021  1.00  0.00     0.126 HD
ENDBRANCH   5  24
BRANCH  12  27
HETATM   27  C   UNL     1       4.359  28.610  54.525  1.00  0.00    -0.005 A 
HETATM   28  C   UNL     1       3.988  28.486  55.867  1.00  0.00     0.014 A 
HETATM   29  C   UNL     1       3.832  29.627  56.661  1.00  0.00     0.001 A 
HETATM   30  C   UNL     1       4.040  30.895  56.116  1.00  0.00     0.000 A 
HETATM   31  C   UNL     1       4.393  31.028  54.775  1.00  0.00     0.001 A 
HETATM   32  C   UNL     1       4.548  29.890  53.982  1.00  0.00     0.014 A 
ENDBRANCH  12  27
TORSDOF 4
ENDMDL
MODEL 5
REMARK VINA RESULT:      -8.7      2.433      5.779
REMARK  4 active torsions:
REMARK  status: ('A' for Active; 'I' for Inactive)
REMARK       I    between atoms: C_2  and  N_3 
REMARK    1  A    between atoms: N_3  and  C_4 
REMARK    2  A    between atoms: C_7  and  C_8 
REMARK    3  A    between atoms: C_12  and  N_13 
REMARK    4  A    between atoms: C_20  and  C_21 
ROOT
HETATM    1  C   UNL     1       4.339  27.620  52.642  1.00  0.00     0.105 C 
HETATM    2  C   UNL     1       4.140  28.359  51.318  1.00  0.00     0.067 C 
HETATM    3  C   UNL     1       3.990  27.532  50.052  1.00  0.00     0.020 C 
HETATM    4  N   UNL     1       3.866  26.845  49.002  1.00  0.00    -0.096 N 
HETATM    5  C   UNL     1       4.126  29.716  51.220  1.00  0.00     0.139 C 
HETATM    6  O   UNL     1       4.326  30.538  52.340  1.00  0.00    -0.279 OA
HETATM    7  C   UNL     1       4.700  29.925  53.457  1.00  0.00     0.175 A 
HETATM    8  C   UNL     1       4.778  28.576  53.708  1.00  0.00     0.040 A 
HETATM    9  N   UNL     1       5.135  30.567  54.566  1.00  0.00    -0.256 N 
HETATM   10  H   UNL     1       5.217  31.565  54.724  1.00  0.00     0.191 HD
HETATM   11  N   UNL     1       5.531  29.724  55.533  1.00  0.00    -0.172 NA
HETATM   12  C   UNL     1       5.325  28.493  55.023  1.00  0.00     0.099 A 
ENDROOT
BRANCH   1  13
HETATM   13  C   UNL     1       5.322  26.465  52.586  1.00  0.00    -0.044 A 
HETATM   14  C   UNL     1       6.677  26.616  52.252  1.00  0.00     0.010 A 
HETATM   15  C   UNL     1       7.554  25.523  52.294  1.00  0.00     0.030 A 
HETATM   16  C   UNL     1       7.093  24.254  52.642  1.00  0.00     0.034 A 
HETATM   17  C   UNL     1       5.732  24.084  52.910  1.00  0.00     0.030 A 
HETATM   18  C   UNL     1       4.857  25.172  52.879  1.00  0.00     0.010 A 
BRANCH  16  19
HETATM   19  N   UNL     1       7.911  23.112  52.766  1.00  0.00    -0.328 N 
HETATM   20  C   UNL     1       8.074  22.307  53.877  1.00  0.00     0.218 C 
HETATM   21  C   UNL     1       8.967  21.121  53.602  1.00  0.00     0.117 C 
HETATM   22  O   UNL     1       7.552  22.452  54.977  1.00  0.00    -0.274 OA
HETATM   23  H   UNL     1       8.393  22.825  51.923  1.00  0.00     0.169 HD
ENDBRANCH  16  19
ENDBRANCH   1  13
BRANCH   5  24
HETATM   24  N   UNL     1       3.933  30.435  50.063  1.00  0.00    -0.282 NA
HETATM   25  H   UNL     1       3.258  30.054  49.405  1.00  0.00     0.126 HD
HETATM   26  H   UNL     1       3.807  31.428  50.240  1.00  0.00     0.126 HD
ENDBRANCH   5  24
BRANCH  12  27
HETATM   27  C   UNL     1       5.725  27.315  55.787  1.00  0.00    -0.005 A 
HETATM   28  C   UNL     1       4.786  26.524  56.455  1.00  0.00     0.014 A 
HETATM   29  C   UNL     1       5.196  25.377  57.143  1.00  0.00     0.001 A 
HETATM   30  C   UNL     1       6.545  25.021  57.171  1.00  0.00     0.000 A 
HETATM   31  C   UNL     1       7.489  25.813  56.522  1.00  0.00     0.001 A 
HETATM   32  C   UNL     1       7.081  26.958  55.837  1.00  0.00     0.014 A 
ENDBRANCH  12  27
TORSDOF 4
ENDMDL
MODEL 6
REMARK VINA RESULT:      -8.6      1.301      1.804
REMARK  4 active torsions:
REMARK  status: ('A' for Active; 'I' for Inactive)
REMARK       I    between atoms: C_2  and  N_3 
REMARK    1  A    between atoms: N_3  and  C_4 
REMARK    2  A    between atoms: C_7  and  C_8 
REMARK    3  A    between atoms: C_12  and  N_13 
REMARK    4  A    between atoms: C_20  and  C_21 
ROOT
HETATM    1  C   UNL     1       5.402  27.352  55.805  1.00  0.00     0.105 C 
HETATM    2  C   UNL     1       5.076  28.729  56.384  1.00  0.00     0.067 C 
HETATM    3  C   UNL     1       3.931  29.512  55.764  1.00  0.00     0.020 C 
HETATM    4  N   UNL     1       2.980  30.162  55.249  1.00  0.00    -0.096 N 
HETATM    5  C   UNL     1       5.783  29.294  57.399  1.00  0.00     0.139 C 
HETATM    6  O   UNL     1       6.893  28.653  57.970  1.00  0.00    -0.279 OA
HETATM    7  C   UNL     1       7.317  27.556  57.354  1.00  0.00     0.175 A 
HETATM    8  C   UNL     1       6.729  26.877  56.315  1.00  0.00     0.040 A 
HETATM    9  N   UNL     1       8.484  26.930  57.636  1.00  0.00    -0.256 N 
HETATM   10  H   UNL     1       9.173  27.170  58.339  1.00  0.00     0.191 HD
HETATM   11  N   UNL     1       8.726  25.891  56.821  1.00  0.00    -0.172 NA
HETATM   12  C   UNL     1       7.660  25.844  55.995  1.00  0.00     0.099 A 
ENDROOT
BRANCH   1  13
HETATM   13  C   UNL     1       5.408  27.281  54.289  1.00  0.00    -0.044 A 
HETATM   14  C   UNL     1       6.086  28.200  53.473  1.00  0.00     0.010 A 
HETATM   15  C   UNL     1       6.120  28.038  52.081  1.00  0.00     0.030 A 
HETATM   16  C   UNL     1       5.455  26.974  51.473  1.00  0.00     0.034 A 
HETATM   17  C   UNL     1       4.720  26.095  52.274  1.00  0.00     0.030 A 
HETATM   18  C   UNL     1       4.694  26.247  53.662  1.00  0.00     0.010 A 
BRANCH  16  19
HETATM   19  N   UNL     1       5.481  26.700  50.089  1.00  0.00    -0.328 N 
HETATM   20  C   UNL     1       4.578  27.118  49.130  1.00  0.00     0.218 C 
HETATM   21  C   UNL     1       4.986  26.700  47.737  1.00  0.00     0.117 C 
HETATM   22  O   UNL     1       3.567  27.788  49.308  1.00  0.00    -0.274 OA
HETATM   23  H   UNL     1       6.284  26.180  49.761  1.00  0.00     0.169 HD
ENDBRANCH  16  19
ENDBRANCH   1  13
BRANCH   5  24
HETATM   24  N   UNL     1       5.525  30.518  57.972  1.00  0.00    -0.282 NA
HETATM   25  H   UNL     1       5.945  31.325  57.517  1.00  0.00     0.126 HD
HETATM   26  H   UNL     1       4.539  30.645  58.188  1.00  0.00     0.126 HD
ENDBRANCH   5  24
BRANCH  12  27
HETATM   27  C   UNL     1       7.624  24.867  54.912  1.00  0.00    -0.005 A 
HETATM   28  C   UNL     1       7.986  25.210  53.606  1.00  0.00     0.014 A 
HETATM   29  C   UNL     1       7.984  24.238  52.599  1.00  0.00     0.001 A 
HETATM   30  C   UNL     1       7.614  22.925  52.892  1.00  0.00     0.000 A 
HETATM   31  C   UNL     1       7.236  22.580  54.187  1.00  0.00     0.001 A 
HETATM   32  C   UNL     1       7.237  23.547  55.192  1.00  0.00     0.014 A 
ENDBRANCH  12  27
TORSDOF 4
ENDMDL
MODEL 7
REMARK VINA RESULT:      -8.6      2.684      5.563
REMARK  4 active torsions:
REMARK  status: ('A' for Active; 'I' for Inactive)
REMARK       I    between atoms: C_2  and  N_3 
REMARK    1  A    between atoms: N_3  and  C_4 
REMARK    2  A    between atoms: C_7  and  C_8 
REMARK    3  A    between atoms: C_12  and  N_13 
REMARK    4  A    between atoms: C_20  and  C_21 
ROOT
HETATM    1  C   UNL     1       6.753  29.017  55.902  1.00  0.00     0.105 C 
HETATM    2  C   UNL     1       6.472  30.032  57.011  1.00  0.00     0.067 C 
HETATM    3  C   UNL     1       7.348  29.997  58.252  1.00  0.00     0.020 C 
HETATM    4  N   UNL     1       8.075  29.967  59.282  1.00  0.00    -0.096 N 
HETATM    5  C   UNL     1       5.458  30.937  56.949  1.00  0.00     0.139 C 
HETATM    6  O   UNL     1       4.571  30.978  55.862  1.00  0.00    -0.279 OA
HETATM    7  C   UNL     1       4.669  29.982  54.988  1.00  0.00     0.175 A 
HETATM    8  C   UNL     1       5.619  28.991  54.924  1.00  0.00     0.040 A 
HETATM    9  N   UNL     1       3.772  29.746  54.003  1.00  0.00    -0.256 N 
HETATM   10  H   UNL     1       2.940  30.275  53.770  1.00  0.00     0.191 HD
HETATM   11  N   UNL     1       4.049  28.633  53.304  1.00  0.00    -0.172 NA
HETATM   12  C   UNL     1       5.179  28.149  53.859  1.00  0.00     0.099 A 
ENDROOT
BRANCH   1  13
HETATM   13  C   UNL     1       7.015  27.602  56.385  1.00  0.00    -0.044 A 
HETATM   14  C   UNL     1       6.012  26.754  56.880  1.00  0.00     0.010 A 
HETATM   15  C   UNL     1       6.302  25.430  57.238  1.00  0.00     0.030 A 
HETATM   16  C   UNL     1       7.601  24.933  57.135  1.00  0.00     0.034 A 
HETATM   17  C   UNL     1       8.617  25.793  56.707  1.00  0.00     0.030 A 
HETATM   18  C   UNL     1       8.330  27.109  56.339  1.00  0.00     0.010 A 
BRANCH  16  19
HETATM   19  N   UNL     1       7.974  23.602  57.417  1.00  0.00    -0.328 N 
HETATM   20  C   UNL     1       7.934  22.517  56.563  1.00  0.00     0.218 C 
HETATM   21  C   UNL     1       8.497  21.267  57.197  1.00  0.00     0.117 C 
HETATM   22  O   UNL     1       7.542  22.504  55.401  1.00  0.00    -0.274 OA
HETATM   23  H   UNL     1       8.362  23.442  58.337  1.00  0.00     0.169 HD
ENDBRANCH  16  19
ENDBRANCH   1  13
BRANCH   5  24
HETATM   24  N   UNL     1       5.169  31.884  57.904  1.00  0.00    -0.282 NA
HETATM   25  H   UNL     1       4.288  32.379  57.794  1.00  0.00     0.126 HD
HETATM   26  H   UNL     1       5.324  31.542  58.849  1.00  0.00     0.126 HD
ENDBRANCH   5  24
BRANCH  12  27
HETATM   27  C   UNL     1       5.732  26.883  53.390  1.00  0.00    -0.005 A 
HETATM   28  C   UNL     1       7.047  26.787  52.925  1.00  0.00     0.014 A 
HETATM   29  C   UNL     1       7.562  25.550  52.524  1.00  0.00     0.001 A 
HETATM   30  C   UNL     1       6.763  24.407  52.578  1.00  0.00     0.000 A 
HETATM   31  C   UNL     1       5.446  24.497  53.024  1.00  0.00     0.001 A 
HETATM   32  C   UNL     1       4.932  25.731  53.423  1.00  0.00     0.014 A 
ENDBRANCH  12  27
TORSDOF 4
ENDMDL
MODEL 8
REMARK VINA RESULT:      -8.4      2.359      5.671
REMARK  4 active torsions:
REMARK  status: ('A' for Active; 'I' for Inactive)
REMARK       I    between atoms: C_2  and  N_3 
REMARK    1  A    between atoms: N_3  and  C_4 
REMARK    2  A    between atoms: C_7  and  C_8 
REMARK    3  A    between atoms: C_12  and  N_13 
REMARK    4  A    between atoms: C_20  and  C_21 
ROOT
HETATM    1  C   UNL     1       6.505  28.401  54.378  1.00  0.00     0.105 C 
HETATM    2  C   UNL     1       6.580  28.566  55.896  1.00  0.00     0.067 C 
HETATM    3  C   UNL     1       7.695  27.850  56.639  1.00  0.00     0.020 C 
HETATM    4  N   UNL     1       8.621  27.255  57.256  1.00  0.00    -0.096 N 
HETATM    5  C   UNL     1       5.678  29.293  56.609  1.00  0.00     0.139 C 
HETATM    6  O   UNL     1       4.587  29.924  55.993  1.00  0.00    -0.279 OA
HETATM    7  C   UNL     1       4.387  29.630  54.713  1.00  0.00     0.175 A 
HETATM    8  C   UNL     1       5.189  28.904  53.867  1.00  0.00     0.040 A 
HETATM    9  N   UNL     1       3.277  29.976  54.019  1.00  0.00    -0.256 N 
HETATM   10  H   UNL     1       2.475  30.507  54.339  1.00  0.00     0.191 HD
HETATM   11  N   UNL     1       3.277  29.493  52.766  1.00  0.00    -0.172 NA
HETATM   12  C   UNL     1       4.443  28.824  52.654  1.00  0.00     0.099 A 
ENDROOT
BRANCH   1  13
HETATM   13  C   UNL     1       6.714  26.983  53.879  1.00  0.00    -0.044 A 
HETATM   14  C   UNL     1       7.691  26.630  52.935  1.00  0.00     0.010 A 
HETATM   15  C   UNL     1       7.889  25.291  52.571  1.00  0.00     0.030 A 
HETATM   16  C   UNL     1       7.098  24.281  53.119  1.00  0.00     0.034 A 
HETATM   17  C   UNL     1       6.078  24.633  54.008  1.00  0.00     0.030 A 
HETATM   18  C   UNL     1       5.886  25.965  54.381  1.00  0.00     0.010 A 
BRANCH  16  19
HETATM   19  N   UNL     1       7.262  22.905  52.856  1.00  0.00    -0.328 N 
HETATM   20  C   UNL     1       8.183  22.043  53.420  1.00  0.00     0.218 C 
HETATM   21  C   UNL     1       7.997  20.619  52.954  1.00  0.00     0.117 C 
HETATM   22  O   UNL     1       9.050  22.321  54.241  1.00  0.00    -0.274 OA
HETATM   23  H   UNL     1       6.592  22.498  52.217  1.00  0.00     0.169 HD
ENDBRANCH  16  19
ENDBRANCH   1  13
BRANCH   5  24
HETATM   24  N   UNL     1       5.705  29.492  57.970  1.00  0.00    -0.282 NA
HETATM   25  H   UNL     1       5.350  28.731  58.543  1.00  0.00     0.126 HD
HETATM   26  H   UNL     1       6.599  29.855  58.292  1.00  0.00     0.126 HD
ENDBRANCH   5  24
BRANCH  12  27
HETATM   27  C   UNL     1       4.744  28.094  51.426  1.00  0.00    -0.005 A 
HETATM   28  C   UNL     1       4.504  26.721  51.315  1.00  0.00     0.014 A 
HETATM   29  C   UNL     1       4.762  26.059  50.110  1.00  0.00     0.001 A 
HETATM   30  C   UNL     1       5.266  26.764  49.016  1.00  0.00     0.000 A 
HETATM   31  C   UNL     1       5.523  28.129  49.124  1.00  0.00     0.001 A 
HETATM   32  C   UNL     1       5.267  28.789  50.325  1.00  0.00     0.014 A 
ENDBRANCH  12  27
TORSDOF 4
ENDMDL
MODEL 9
REMARK VINA RESULT:      -8.1      3.219      6.977
REMARK  4 active torsions:
REMARK  status: ('A' for Active; 'I' for Inactive)
REMARK       I    between atoms: C_2  and  N_3 
REMARK    1  A    between atoms: N_3  and  C_4 
REMARK    2  A    between atoms: C_7  and  C_8 
REMARK    3  A    between atoms: C_12  and  N_13 
REMARK    4  A    between atoms: C_20  and  C_21 
ROOT
HETATM    1  C   UNL     1       6.191  27.980  54.725  1.00  0.00     0.105 C 
HETATM    2  C   UNL     1       5.131  27.173  53.975  1.00  0.00     0.067 C 
HETATM    3  C   UNL     1       3.984  27.928  53.324  1.00  0.00     0.020 C 
HETATM    4  N   UNL     1       3.032  28.555  52.784  1.00  0.00    -0.096 N 
HETATM    5  C   UNL     1       5.151  25.815  53.896  1.00  0.00     0.139 C 
HETATM    6  O   UNL     1       6.144  25.053  54.532  1.00  0.00    -0.279 OA
HETATM    7  C   UNL     1       6.953  25.714  55.351  1.00  0.00     0.175 A 
HETATM    8  C   UNL     1       7.046  27.070  55.552  1.00  0.00     0.040 A 
HETATM    9  N   UNL     1       7.825  25.120  56.199  1.00  0.00    -0.256 N 
HETATM   10  H   UNL     1       8.009  24.131  56.321  1.00  0.00     0.191 HD
HETATM   11  N   UNL     1       8.472  26.000  56.980  1.00  0.00    -0.172 NA
HETATM   12  C   UNL     1       8.003  27.207  56.602  1.00  0.00     0.099 A 
ENDROOT
BRANCH   1  13
HETATM   13  C   UNL     1       5.644  29.080  55.616  1.00  0.00    -0.044 A 
HETATM   14  C   UNL     1       6.001  30.431  55.487  1.00  0.00     0.010 A 
HETATM   15  C   UNL     1       5.402  31.414  56.288  1.00  0.00     0.030 A 
HETATM   16  C   UNL     1       4.457  31.065  57.253  1.00  0.00     0.034 A 
HETATM   17  C   UNL     1       4.147  29.714  57.432  1.00  0.00     0.030 A 
HETATM   18  C   UNL     1       4.733  28.734  56.628  1.00  0.00     0.010 A 
BRANCH  16  19
HETATM   19  N   UNL     1       3.762  31.988  58.062  1.00  0.00    -0.328 N 
HETATM   20  C   UNL     1       4.152  32.495  59.287  1.00  0.00     0.218 C 
HETATM   21  C   UNL     1       3.187  33.531  59.813  1.00  0.00     0.117 C 
HETATM   22  O   UNL     1       5.169  32.216  59.913  1.00  0.00    -0.274 OA
HETATM   23  H   UNL     1       2.905  32.356  57.671  1.00  0.00     0.169 HD
ENDBRANCH  16  19
ENDBRANCH   1  13
BRANCH   5  24
HETATM   24  N   UNL     1       4.237  25.037  53.222  1.00  0.00    -0.282 NA
HETATM   25  H   UNL     1       3.292  25.407  53.158  1.00  0.00     0.126 HD
HETATM   26  H   UNL     1       4.598  24.697  52.334  1.00  0.00     0.126 HD
ENDBRANCH   5  24
BRANCH  12  27
HETATM   27  C   UNL     1       8.439  28.407  57.308  1.00  0.00    -0.005 A 
HETATM   28  C   UNL     1       7.725  28.915  58.398  1.00  0.00     0.014 A 
HETATM   29  C   UNL     1       8.194  30.042  59.081  1.00  0.00     0.001 A 
HETATM   30  C   UNL     1       9.372  30.669  58.674  1.00  0.00     0.000 A 
HETATM   31  C   UNL     1      10.080  30.179  57.579  1.00  0.00     0.001 A 
HETATM   32  C   UNL     1       9.613  29.056  56.896  1.00  0.00     0.014 A 
ENDBRANCH  12  27
TORSDOF 4
ENDMDL
MODEL 10
REMARK VINA RESULT:      -7.8      2.967      6.393
REMARK  4 active torsions:
REMARK  status: ('A' for Active; 'I' for Inactive)
REMARK       I    between atoms: C_2  and  N_3 
REMARK    1  A    between atoms: N_3  and  C_4 
REMARK    2  A    between atoms: C_7  and  C_8 
REMARK    3  A    between atoms: C_12  and  N_13 
REMARK    4  A    between atoms: C_20  and  C_21 
ROOT
HETATM    1  C   UNL     1       5.706  28.258  52.774  1.00  0.00     0.105 C 
HETATM    2  C   UNL     1       4.927  29.031  51.709  1.00  0.00     0.067 C 
HETATM    3  C   UNL     1       4.777  30.533  51.882  1.00  0.00     0.020 C 
HETATM    4  N   UNL     1       4.652  31.780  52.026  1.00  0.00    -0.096 N 
HETATM    5  C   UNL     1       4.338  28.432  50.639  1.00  0.00     0.139 C 
HETATM    6  O   UNL     1       4.382  27.041  50.456  1.00  0.00    -0.279 OA
HETATM    7  C   UNL     1       4.874  26.333  51.466  1.00  0.00     0.175 A 
HETATM    8  C   UNL     1       5.484  26.785  52.611  1.00  0.00     0.040 A 
HETATM    9  N   UNL     1       4.803  24.984  51.552  1.00  0.00    -0.256 N 
HETATM   10  H   UNL     1       4.407  24.331  50.886  1.00  0.00     0.191 HD
HETATM   11  N   UNL     1       5.300  24.511  52.706  1.00  0.00    -0.172 NA
HETATM   12  C   UNL     1       5.719  25.604  53.376  1.00  0.00     0.099 A 
ENDROOT
BRANCH   1  13
HETATM   13  C   UNL     1       5.385  28.645  54.206  1.00  0.00    -0.044 A 
HETATM   14  C   UNL     1       6.361  29.009  55.147  1.00  0.00     0.010 A 
HETATM   15  C   UNL     1       5.997  29.433  56.433  1.00  0.00     0.030 A 
HETATM   16  C   UNL     1       4.656  29.476  56.815  1.00  0.00     0.034 A 
HETATM   17  C   UNL     1       3.685  29.051  55.905  1.00  0.00     0.030 A 
HETATM   18  C   UNL     1       4.043  28.638  54.619  1.00  0.00     0.010 A 
BRANCH  16  19
HETATM   19  N   UNL     1       4.195  29.942  58.064  1.00  0.00    -0.328 N 
HETATM   20  C   UNL     1       3.724  31.204  58.371  1.00  0.00     0.218 C 
HETATM   21  C   UNL     1       3.235  31.303  59.797  1.00  0.00     0.117 C 
HETATM   22  O   UNL     1       3.642  32.167  57.616  1.00  0.00    -0.274 OA
HETATM   23  H   UNL     1       4.160  29.252  58.802  1.00  0.00     0.169 HD
ENDBRANCH  16  19
ENDBRANCH   1  13
BRANCH   5  24
HETATM   24  N   UNL     1       3.643  29.076  49.642  1.00  0.00    -0.282 NA
HETATM   25  H   UNL     1       4.202  29.559  48.943  1.00  0.00     0.126 HD
HETATM   26  H   UNL     1       2.912  28.493  49.240  1.00  0.00     0.126 HD
ENDBRANCH   5  24
BRANCH  12  27
HETATM   27  C   UNL     1       6.253  25.466  54.727  1.00  0.00    -0.005 A 
HETATM   28  C   UNL     1       7.629  25.384  54.965  1.00  0.00     0.014 A 
HETATM   29  C   UNL     1       8.111  25.297  56.275  1.00  0.00     0.001 A 
HETATM   30  C   UNL     1       7.222  25.284  57.350  1.00  0.00     0.000 A 
HETATM   31  C   UNL     1       5.849  25.348  57.121  1.00  0.00     0.001 A 
HETATM   32  C   UNL     1       5.367  25.434  55.815  1.00  0.00     0.014 A 
ENDBRANCH  12  27
TORSDOF 4
ENDMDL
