MODEL 1
REMARK VINA RESULT:      -8.6      0.000      0.000
REMARK  5 active torsions:
REMARK  status: ('A' for Active; 'I' for Inactive)
REMARK    1  A    between atoms: C_2  and  O_3 
REMARK    2  A    between atoms: O_3  and  C_4 
REMARK    3  A    between atoms: C_5  and  C_6 
REMARK       I    between atoms: C_6  and  N_7 
REMARK    4  A    between atoms: N_7  and  N_8 
REMARK    5  A    between atoms: C_9  and  C_10 
ROOT
HETATM    1  C   UNL     1       7.815  23.482  56.084  1.00  0.00     0.274 C 
HETATM    2  N   UNL     1       6.611  24.160  55.981  1.00  0.00    -0.243 N 
HETATM    3  O   UNL     1       8.727  23.783  56.852  1.00  0.00    -0.266 OA
HETATM    4  H   UNL     1       5.909  23.835  55.321  1.00  0.00     0.192 HD
ENDROOT
BRANCH   2   5
HETATM    5  N   UNL     1       6.408  25.299  56.704  1.00  0.00    -0.183 NA
HETATM    6  C   UNL     1       6.248  26.382  56.019  1.00  0.00     0.152 C 
BRANCH   6   7
HETATM    7  C   UNL     1       6.067  27.640  56.718  1.00  0.00     0.011 A 
HETATM    8  C   UNL     1       7.071  28.590  57.092  1.00  0.00     0.005 A 
HETATM    9  C   UNL     1       6.431  29.630  57.771  1.00  0.00     0.043 A 
HETATM   10  C   UNL     1       8.472  28.658  56.932  1.00  0.00     0.033 A 
HETATM   11  C   UNL     1       7.115  30.731  58.300  1.00  0.00     0.031 A 
HETATM   12  N   UNL     1       5.088  29.331  57.799  1.00  0.00    -0.364 N 
HETATM   13  C   UNL     1       8.501  30.775  58.130  1.00  0.00     0.021 A 
HETATM   14  C   UNL     1       9.166  29.754  57.456  1.00  0.00     0.012 A 
HETATM   15 BR   UNL     1      11.045  29.844  57.250  1.00  0.00    -0.051 Br
HETATM   16  H   UNL     1       4.378  29.904  58.231  1.00  0.00     0.165 HD
HETATM   17  C   UNL     1       4.860  28.137  57.175  1.00  0.00     0.102 A 
ENDBRANCH   6   7
ENDBRANCH   2   5
BRANCH   1  18
HETATM   18  C   UNL     1       8.012  22.346  55.131  1.00  0.00     0.067 A 
HETATM   19  C   UNL     1       7.663  22.387  53.771  1.00  0.00     0.084 A 
HETATM   20  C   UNL     1       7.950  21.286  52.949  1.00  0.00     0.038 A 
HETATM   21  C   UNL     1       8.536  20.137  53.483  1.00  0.00     0.003 A 
HETATM   22  C   UNL     1       8.846  20.077  54.838  1.00  0.00     0.001 A 
HETATM   23  C   UNL     1       8.587  21.175  55.657  1.00  0.00     0.020 A 
BRANCH  19  24
HETATM   24  O   UNL     1       7.092  23.527  53.260  1.00  0.00    -0.350 OA
BRANCH  24  25
HETATM   25  C   UNL     1       7.978  24.302  52.442  1.00  0.00     0.171 C 
HETATM   26  C   UNL     1       7.632  25.767  52.628  1.00  0.00     0.034 C 
ENDBRANCH  24  25
ENDBRANCH  19  24
ENDBRANCH   1  18
TORSDOF 5
ENDMDL
MODEL 2
REMARK VINA RESULT:      -8.3      3.160      8.320
REMARK  5 active torsions:
REMARK  status: ('A' for Active; 'I' for Inactive)
REMARK    1  A    between atoms: C_2  and  O_3 
REMARK    2  A    between atoms: O_3  and  C_4 
REMARK    3  A    between atoms: C_5  and  C_6 
REMARK       I    between atoms: C_6  and  N_7 
REMARK    4  A    between atoms: N_7  and  N_8 
REMARK    5  A    between atoms: C_9  and  C_10 
ROOT
HETATM    1  C   UNL     1       6.516  29.782  56.925  1.00  0.00     0.274 C 
HETATM    2  N   UNL     1       6.781  28.426  57.017  1.00  0.00    -0.243 N 
HETATM    3  O   UNL     1       6.112  30.351  55.913  1.00  0.00    -0.266 OA
HETATM    4  H   UNL     1       7.106  28.038  57.899  1.00  0.00     0.192 HD
ENDROOT
BRANCH   2   5
HETATM    5  N   UNL     1       6.681  27.636  55.909  1.00  0.00    -0.183 NA
HETATM    6  C   UNL     1       7.578  26.714  55.788  1.00  0.00     0.152 C 
BRANCH   6   7
HETATM    7  C   UNL     1       7.561  25.861  54.616  1.00  0.00     0.011 A 
HETATM    8  C   UNL     1       7.685  24.436  54.564  1.00  0.00     0.005 A 
HETATM    9  C   UNL     1       7.642  24.060  53.219  1.00  0.00     0.043 A 
HETATM   10  C   UNL     1       7.847  23.424  55.535  1.00  0.00     0.033 A 
HETATM   11  C   UNL     1       7.753  22.732  52.792  1.00  0.00     0.031 A 
HETATM   12  N   UNL     1       7.485  25.212  52.481  1.00  0.00    -0.364 N 
HETATM   13  C   UNL     1       7.915  21.749  53.772  1.00  0.00     0.021 A 
HETATM   14  C   UNL     1       7.961  22.093  55.121  1.00  0.00     0.012 A 
HETATM   15 BR   UNL     1       8.186  20.735  56.420  1.00  0.00    -0.051 Br
HETATM   16  H   UNL     1       7.426  25.248  51.473  1.00  0.00     0.165 HD
HETATM   17  C   UNL     1       7.441  26.297  53.309  1.00  0.00     0.102 A 
ENDBRANCH   6   7
ENDBRANCH   2   5
BRANCH   1  18
HETATM   18  C   UNL     1       6.815  30.593  58.145  1.00  0.00     0.067 A 
HETATM   19  C   UNL     1       7.995  30.478  58.900  1.00  0.00     0.084 A 
HETATM   20  C   UNL     1       8.204  31.334  59.992  1.00  0.00     0.038 A 
HETATM   21  C   UNL     1       7.230  32.264  60.360  1.00  0.00     0.003 A 
HETATM   22  C   UNL     1       6.044  32.354  59.639  1.00  0.00     0.001 A 
HETATM   23  C   UNL     1       5.838  31.525  58.538  1.00  0.00     0.020 A 
BRANCH  19  24
HETATM   24  O   UNL     1       8.945  29.561  58.522  1.00  0.00    -0.350 OA
BRANCH  24  25
HETATM   25  C   UNL     1      10.119  30.149  57.945  1.00  0.00     0.171 C 
HETATM   26  C   UNL     1      10.242  29.651  56.516  1.00  0.00     0.034 C 
ENDBRANCH  24  25
ENDBRANCH  19  24
ENDBRANCH   1  18
TORSDOF 5
ENDMDL
MODEL 3
REMARK VINA RESULT:      -8.2      3.885      8.484
REMARK  5 active torsions:
REMARK  status: ('A' for Active; 'I' for Inactive)
REMARK    1  A    between atoms: C_2  and  O_3 
REMARK    2  A    between atoms: O_3  and  C_4 
REMARK    3  A    between atoms: C_5  and  C_6 
REMARK       I    between atoms: C_6  and  N_7 
REMARK    4  A    between atoms: N_7  and  N_8 
REMARK    5  A    between atoms: C_9  and  C_10 
ROOT
HETATM    1  C   UNL     1       6.583  31.182  58.469  1.00  0.00     0.274 C 
HETATM    2  N   UNL     1       6.469  29.835  58.167  1.00  0.00    -0.243 N 
HETATM    3  O   UNL     1       6.126  32.095  57.784  1.00  0.00    -0.266 OA
HETATM    4  H   UNL     1       6.873  29.145  58.796  1.00  0.00     0.192 HD
ENDROOT
BRANCH   2   5
HETATM    5  N   UNL     1       5.889  29.447  56.994  1.00  0.00    -0.183 NA
HETATM    6  C   UNL     1       5.881  28.176  56.761  1.00  0.00     0.152 C 
BRANCH   6   7
HETATM    7  C   UNL     1       5.318  27.690  55.516  1.00  0.00     0.011 A 
HETATM    8  C   UNL     1       5.681  26.512  54.788  1.00  0.00     0.005 A 
HETATM    9  C   UNL     1       4.890  26.470  53.637  1.00  0.00     0.043 A 
HETATM   10  C   UNL     1       6.624  25.480  54.989  1.00  0.00     0.033 A 
HETATM   11  C   UNL     1       4.990  25.456  52.678  1.00  0.00     0.031 A 
HETATM   12  N   UNL     1       4.068  27.573  53.670  1.00  0.00    -0.364 N 
HETATM   13  C   UNL     1       5.932  24.447  52.898  1.00  0.00     0.021 A 
HETATM   14  C   UNL     1       6.734  24.462  54.036  1.00  0.00     0.012 A 
HETATM   15 BR   UNL     1       8.001  23.081  54.298  1.00  0.00    -0.051 Br
HETATM   16  H   UNL     1       3.387  27.808  52.961  1.00  0.00     0.165 HD
HETATM   17  C   UNL     1       4.320  28.313  54.790  1.00  0.00     0.102 A 
ENDBRANCH   6   7
ENDBRANCH   2   5
BRANCH   1  18
HETATM   18  C   UNL     1       7.380  31.516  59.688  1.00  0.00     0.067 A 
HETATM   19  C   UNL     1       8.703  31.094  59.907  1.00  0.00     0.084 A 
HETATM   20  C   UNL     1       9.383  31.518  61.059  1.00  0.00     0.038 A 
HETATM   21  C   UNL     1       8.741  32.315  62.008  1.00  0.00     0.003 A 
HETATM   22  C   UNL     1       7.419  32.702  61.815  1.00  0.00     0.001 A 
HETATM   23  C   UNL     1       6.743  32.306  60.662  1.00  0.00     0.020 A 
BRANCH  19  24
HETATM   24  O   UNL     1       9.322  30.314  58.961  1.00  0.00    -0.350 OA
BRANCH  24  25
HETATM   25  C   UNL     1      10.259  31.029  58.145  1.00  0.00     0.171 C 
HETATM   26  C   UNL     1      10.815  30.067  57.112  1.00  0.00     0.034 C 
ENDBRANCH  24  25
ENDBRANCH  19  24
ENDBRANCH   1  18
TORSDOF 5
ENDMDL
MODEL 4
REMARK VINA RESULT:      -8.2      5.455      7.964
REMARK  5 active torsions:
REMARK  status: ('A' for Active; 'I' for Inactive)
REMARK    1  A    between atoms: C_2  and  O_3 
REMARK    2  A    between atoms: O_3  and  C_4 
REMARK    3  A    between atoms: C_5  and  C_6 
REMARK       I    between atoms: C_6  and  N_7 
REMARK    4  A    between atoms: N_7  and  N_8 
REMARK    5  A    between atoms: C_9  and  C_10 
ROOT
HETATM    1  C   UNL     1       4.639  26.746  49.830  1.00  0.00     0.274 C 
HETATM    2  N   UNL     1       4.602  25.631  50.651  1.00  0.00    -0.243 N 
HETATM    3  O   UNL     1       5.496  27.626  49.880  1.00  0.00    -0.266 OA
HETATM    4  H   UNL     1       3.857  24.948  50.534  1.00  0.00     0.192 HD
ENDROOT
BRANCH   2   5
HETATM    5  N   UNL     1       5.513  25.496  51.657  1.00  0.00    -0.183 NA
HETATM    6  C   UNL     1       5.029  25.253  52.830  1.00  0.00     0.152 C 
BRANCH   6   7
HETATM    7  C   UNL     1       5.933  25.137  53.957  1.00  0.00     0.011 A 
HETATM    8  C   UNL     1       6.881  24.097  54.221  1.00  0.00     0.005 A 
HETATM    9  C   UNL     1       7.504  24.396  55.435  1.00  0.00     0.043 A 
HETATM   10  C   UNL     1       7.259  22.914  53.549  1.00  0.00     0.033 A 
HETATM   11  C   UNL     1       8.482  23.578  56.014  1.00  0.00     0.031 A 
HETATM   12  N   UNL     1       6.966  25.579  55.887  1.00  0.00    -0.364 N 
HETATM   13  C   UNL     1       8.838  22.412  55.331  1.00  0.00     0.021 A 
HETATM   14  C   UNL     1       8.235  22.089  54.118  1.00  0.00     0.012 A 
HETATM   15 BR   UNL     1       8.739  20.499  53.223  1.00  0.00    -0.051 Br
HETATM   16  H   UNL     1       7.224  26.039  56.749  1.00  0.00     0.165 HD
HETATM   17  C   UNL     1       6.020  26.029  55.011  1.00  0.00     0.102 A 
ENDBRANCH   6   7
ENDBRANCH   2   5
BRANCH   1  18
HETATM   18  C   UNL     1       3.502  26.891  48.869  1.00  0.00     0.067 A 
HETATM   19  C   UNL     1       2.533  27.905  48.939  1.00  0.00     0.084 A 
HETATM   20  C   UNL     1       1.544  27.987  47.947  1.00  0.00     0.038 A 
HETATM   21  C   UNL     1       1.489  27.043  46.920  1.00  0.00     0.003 A 
HETATM   22  C   UNL     1       2.423  26.013  46.870  1.00  0.00     0.001 A 
HETATM   23  C   UNL     1       3.424  25.938  47.837  1.00  0.00     0.020 A 
BRANCH  19  24
HETATM   24  O   UNL     1       2.603  28.830  49.953  1.00  0.00    -0.350 OA
BRANCH  24  25
HETATM   25  C   UNL     1       2.515  30.188  49.504  1.00  0.00     0.171 C 
HETATM   26  C   UNL     1       3.891  30.619  49.031  1.00  0.00     0.034 C 
ENDBRANCH  24  25
ENDBRANCH  19  24
ENDBRANCH   1  18
TORSDOF 5
ENDMDL
MODEL 5
REMARK VINA RESULT:      -8.2      3.420      8.439
REMARK  5 active torsions:
REMARK  status: ('A' for Active; 'I' for Inactive)
REMARK    1  A    between atoms: C_2  and  O_3 
REMARK    2  A    between atoms: O_3  and  C_4 
REMARK    3  A    between atoms: C_5  and  C_6 
REMARK       I    between atoms: C_6  and  N_7 
REMARK    4  A    between atoms: N_7  and  N_8 
REMARK    5  A    between atoms: C_9  and  C_10 
ROOT
HETATM    1  C   UNL     1       8.800  29.720  58.326  1.00  0.00     0.274 C 
HETATM    2  N   UNL     1       7.950  28.640  58.155  1.00  0.00    -0.243 N 
HETATM    3  O   UNL     1       9.893  29.846  57.777  1.00  0.00    -0.266 OA
HETATM    4  H   UNL     1       7.060  28.621  58.645  1.00  0.00     0.192 HD
ENDROOT
BRANCH   2   5
HETATM    5  N   UNL     1       8.345  27.576  57.397  1.00  0.00    -0.183 NA
HETATM    6  C   UNL     1       7.652  26.495  57.535  1.00  0.00     0.152 C 
BRANCH   6   7
HETATM    7  C   UNL     1       8.036  25.310  56.793  1.00  0.00     0.011 A 
HETATM    8  C   UNL     1       7.583  24.899  55.498  1.00  0.00     0.005 A 
HETATM    9  C   UNL     1       8.203  23.682  55.204  1.00  0.00     0.043 A 
HETATM   10  C   UNL     1       6.688  25.439  54.549  1.00  0.00     0.033 A 
HETATM   11  C   UNL     1       7.976  22.976  54.017  1.00  0.00     0.031 A 
HETATM   12  N   UNL     1       9.011  23.370  56.273  1.00  0.00    -0.364 N 
HETATM   13  C   UNL     1       7.084  23.530  53.094  1.00  0.00     0.021 A 
HETATM   14  C   UNL     1       6.452  24.742  53.359  1.00  0.00     0.012 A 
HETATM   15 BR   UNL     1       5.247  25.460  52.089  1.00  0.00    -0.051 Br
HETATM   16  H   UNL     1       9.582  22.539  56.343  1.00  0.00     0.165 HD
HETATM   17  C   UNL     1       8.915  24.337  57.233  1.00  0.00     0.102 A 
ENDBRANCH   6   7
ENDBRANCH   2   5
BRANCH   1  18
HETATM   18  C   UNL     1       8.355  30.756  59.307  1.00  0.00     0.067 A 
HETATM   19  C   UNL     1       7.229  31.579  59.130  1.00  0.00     0.084 A 
HETATM   20  C   UNL     1       6.862  32.477  60.143  1.00  0.00     0.038 A 
HETATM   21  C   UNL     1       7.631  32.591  61.302  1.00  0.00     0.003 A 
HETATM   22  C   UNL     1       8.769  31.807  61.465  1.00  0.00     0.001 A 
HETATM   23  C   UNL     1       9.128  30.894  60.474  1.00  0.00     0.020 A 
BRANCH  19  24
HETATM   24  O   UNL     1       6.480  31.451  57.985  1.00  0.00    -0.350 OA
BRANCH  24  25
HETATM   25  C   UNL     1       5.079  31.272  58.229  1.00  0.00     0.171 C 
HETATM   26  C   UNL     1       4.627  30.025  57.491  1.00  0.00     0.034 C 
ENDBRANCH  24  25
ENDBRANCH  19  24
ENDBRANCH   1  18
TORSDOF 5
ENDMDL
MODEL 6
REMARK VINA RESULT:      -8.0      5.561      8.172
REMARK  5 active torsions:
REMARK  status: ('A' for Active; 'I' for Inactive)
REMARK    1  A    between atoms: C_2  and  O_3 
REMARK    2  A    between atoms: O_3  and  C_4 
REMARK    3  A    between atoms: C_5  and  C_6 
REMARK       I    between atoms: C_6  and  N_7 
REMARK    4  A    between atoms: N_7  and  N_8 
REMARK    5  A    between atoms: C_9  and  C_10 
ROOT
HETATM    1  C   UNL     1       4.620  27.809  49.917  1.00  0.00     0.274 C 
HETATM    2  N   UNL     1       4.614  26.596  50.587  1.00  0.00    -0.243 N 
HETATM    3  O   UNL     1       5.498  28.663  50.020  1.00  0.00    -0.266 OA
HETATM    4  H   UNL     1       3.848  25.945  50.436  1.00  0.00     0.192 HD
ENDROOT
BRANCH   2   5
HETATM    5  N   UNL     1       5.589  26.319  51.500  1.00  0.00    -0.183 NA
HETATM    6  C   UNL     1       5.181  26.039  52.694  1.00  0.00     0.152 C 
BRANCH   6   7
HETATM    7  C   UNL     1       6.161  25.773  53.730  1.00  0.00     0.011 A 
HETATM    8  C   UNL     1       6.929  24.581  53.928  1.00  0.00     0.005 A 
HETATM    9  C   UNL     1       7.716  24.775  55.066  1.00  0.00     0.043 A 
HETATM   10  C   UNL     1       7.020  23.344  53.255  1.00  0.00     0.033 A 
HETATM   11  C   UNL     1       8.586  23.800  55.568  1.00  0.00     0.031 A 
HETATM   12  N   UNL     1       7.447  26.040  55.536  1.00  0.00    -0.364 N 
HETATM   13  C   UNL     1       8.657  22.582  54.886  1.00  0.00     0.021 A 
HETATM   14  C   UNL     1       7.885  22.361  53.748  1.00  0.00     0.012 A 
HETATM   15 BR   UNL     1       8.003  20.698  52.853  1.00  0.00    -0.051 Br
HETATM   16  H   UNL     1       7.869  26.455  56.355  1.00  0.00     0.165 HD
HETATM   17  C   UNL     1       6.512  26.645  54.745  1.00  0.00     0.102 A 
ENDBRANCH   6   7
ENDBRANCH   2   5
BRANCH   1  18
HETATM   18  C   UNL     1       3.424  28.093  49.065  1.00  0.00     0.067 A 
HETATM   19  C   UNL     1       3.063  27.342  47.934  1.00  0.00     0.084 A 
HETATM   20  C   UNL     1       1.884  27.657  47.242  1.00  0.00     0.038 A 
HETATM   21  C   UNL     1       1.094  28.736  47.642  1.00  0.00     0.003 A 
HETATM   22  C   UNL     1       1.468  29.507  48.737  1.00  0.00     0.001 A 
HETATM   23  C   UNL     1       2.626  29.187  49.446  1.00  0.00     0.020 A 
BRANCH  19  24
HETATM   24  O   UNL     1       3.849  26.280  47.557  1.00  0.00    -0.350 OA
BRANCH  24  25
HETATM   25  C   UNL     1       3.104  25.146  47.096  1.00  0.00     0.171 C 
HETATM   26  C   UNL     1       3.031  24.137  48.228  1.00  0.00     0.034 C 
ENDBRANCH  24  25
ENDBRANCH  19  24
ENDBRANCH   1  18
TORSDOF 5
ENDMDL
MODEL 7
REMARK VINA RESULT:      -7.9      4.072      5.561
REMARK  5 active torsions:
REMARK  status: ('A' for Active; 'I' for Inactive)
REMARK    1  A    between atoms: C_2  and  O_3 
REMARK    2  A    between atoms: O_3  and  C_4 
REMARK    3  A    between atoms: C_5  and  C_6 
REMARK       I    between atoms: C_6  and  N_7 
REMARK    4  A    between atoms: N_7  and  N_8 
REMARK    5  A    between atoms: C_9  and  C_10 
ROOT
HETATM    1  C   UNL     1       6.997  23.969  53.132  1.00  0.00     0.274 C 
HETATM    2  N   UNL     1       5.822  24.425  53.706  1.00  0.00    -0.243 N 
HETATM    3  O   UNL     1       7.521  24.451  52.129  1.00  0.00    -0.266 OA
HETATM    4  H   UNL     1       5.464  23.970  54.542  1.00  0.00     0.192 HD
ENDROOT
BRANCH   2   5
HETATM    5  N   UNL     1       5.115  25.426  53.106  1.00  0.00    -0.183 NA
HETATM    6  C   UNL     1       5.227  26.597  53.641  1.00  0.00     0.152 C 
BRANCH   6   7
HETATM    7  C   UNL     1       4.473  27.703  53.083  1.00  0.00     0.011 A 
HETATM    8  C   UNL     1       4.297  28.039  51.702  1.00  0.00     0.005 A 
HETATM    9  C   UNL     1       3.520  29.199  51.649  1.00  0.00     0.043 A 
HETATM   10  C   UNL     1       4.739  27.474  50.486  1.00  0.00     0.033 A 
HETATM   11  C   UNL     1       3.163  29.825  50.449  1.00  0.00     0.031 A 
HETATM   12  N   UNL     1       3.225  29.549  52.947  1.00  0.00    -0.364 N 
HETATM   13  C   UNL     1       3.614  29.248  49.259  1.00  0.00     0.021 A 
HETATM   14  C   UNL     1       4.389  28.091  49.281  1.00  0.00     0.012 A 
HETATM   15 BR   UNL     1       4.986  27.341  47.649  1.00  0.00    -0.051 Br
HETATM   16  H   UNL     1       2.677  30.354  53.218  1.00  0.00     0.165 HD
HETATM   17  C   UNL     1       3.796  28.662  53.814  1.00  0.00     0.102 A 
ENDBRANCH   6   7
ENDBRANCH   2   5
BRANCH   1  18
HETATM   18  C   UNL     1       7.611  22.762  53.765  1.00  0.00     0.067 A 
HETATM   19  C   UNL     1       7.825  22.616  55.146  1.00  0.00     0.084 A 
HETATM   20  C   UNL     1       8.351  21.413  55.642  1.00  0.00     0.038 A 
HETATM   21  C   UNL     1       8.704  20.381  54.771  1.00  0.00     0.003 A 
HETATM   22  C   UNL     1       8.530  20.536  53.399  1.00  0.00     0.001 A 
HETATM   23  C   UNL     1       7.986  21.718  52.899  1.00  0.00     0.020 A 
BRANCH  19  24
HETATM   24  O   UNL     1       7.468  23.639  55.990  1.00  0.00    -0.350 OA
BRANCH  24  25
HETATM   25  C   UNL     1       8.515  24.044  56.882  1.00  0.00     0.171 C 
HETATM   26  C   UNL     1       8.183  25.432  57.399  1.00  0.00     0.034 C 
ENDBRANCH  24  25
ENDBRANCH  19  24
ENDBRANCH   1  18
TORSDOF 5
ENDMDL
MODEL 8
REMARK VINA RESULT:      -7.9      4.384      6.352
REMARK  5 active torsions:
REMARK  status: ('A' for Active; 'I' for Inactive)
REMARK    1  A    between atoms: C_2  and  O_3 
REMARK    2  A    between atoms: O_3  and  C_4 
REMARK    3  A    between atoms: C_5  and  C_6 
REMARK       I    between atoms: C_6  and  N_7 
REMARK    4  A    between atoms: N_7  and  N_8 
REMARK    5  A    between atoms: C_9  and  C_10 
ROOT
HETATM    1  C   UNL     1       7.929  24.143  53.185  1.00  0.00     0.274 C 
HETATM    2  N   UNL     1       7.154  25.011  53.937  1.00  0.00    -0.243 N 
HETATM    3  O   UNL     1       8.337  24.373  52.048  1.00  0.00    -0.266 OA
HETATM    4  H   UNL     1       6.866  24.741  54.874  1.00  0.00     0.192 HD
ENDROOT
BRANCH   2   5
HETATM    5  N   UNL     1       6.717  26.182  53.389  1.00  0.00    -0.183 NA
HETATM    6  C   UNL     1       5.974  26.072  52.338  1.00  0.00     0.152 C 
BRANCH   6   7
HETATM    7  C   UNL     1       5.505  27.273  51.675  1.00  0.00     0.011 A 
HETATM    8  C   UNL     1       4.769  27.372  50.451  1.00  0.00     0.005 A 
HETATM    9  C   UNL     1       4.566  28.729  50.192  1.00  0.00     0.043 A 
HETATM   10  C   UNL     1       4.266  26.432  49.525  1.00  0.00     0.033 A 
HETATM   11  C   UNL     1       3.892  29.199  49.059  1.00  0.00     0.031 A 
HETATM   12  N   UNL     1       5.147  29.430  51.225  1.00  0.00    -0.364 N 
HETATM   13  C   UNL     1       3.405  28.250  48.156  1.00  0.00     0.021 A 
HETATM   14  C   UNL     1       3.591  26.889  48.388  1.00  0.00     0.012 A 
HETATM   15 BR   UNL     1       2.922  25.633  47.141  1.00  0.00    -0.051 Br
HETATM   16  H   UNL     1       5.160  30.437  51.303  1.00  0.00     0.165 HD
HETATM   17  C   UNL     1       5.716  28.567  52.116  1.00  0.00     0.102 A 
ENDBRANCH   6   7
ENDBRANCH   2   5
BRANCH   1  18
HETATM   18  C   UNL     1       8.216  22.814  53.807  1.00  0.00     0.067 A 
HETATM   19  C   UNL     1       8.783  22.645  55.082  1.00  0.00     0.084 A 
HETATM   20  C   UNL     1       8.952  21.351  55.597  1.00  0.00     0.038 A 
HETATM   21  C   UNL     1       8.604  20.233  54.836  1.00  0.00     0.003 A 
HETATM   22  C   UNL     1       8.079  20.396  53.558  1.00  0.00     0.001 A 
HETATM   23  C   UNL     1       7.885  21.678  53.047  1.00  0.00     0.020 A 
BRANCH  19  24
HETATM   24  O   UNL     1       9.116  23.754  55.820  1.00  0.00    -0.350 OA
BRANCH  24  25
HETATM   25  C   UNL     1       8.457  23.822  57.091  1.00  0.00     0.171 C 
HETATM   26  C   UNL     1       8.371  25.281  57.501  1.00  0.00     0.034 C 
ENDBRANCH  24  25
ENDBRANCH  19  24
ENDBRANCH   1  18
TORSDOF 5
ENDMDL
MODEL 9
REMARK VINA RESULT:      -7.8      2.208      2.672
REMARK  5 active torsions:
REMARK  status: ('A' for Active; 'I' for Inactive)
REMARK    1  A    between atoms: C_2  and  O_3 
REMARK    2  A    between atoms: O_3  and  C_4 
REMARK    3  A    between atoms: C_5  and  C_6 
REMARK       I    between atoms: C_6  and  N_7 
REMARK    4  A    between atoms: N_7  and  N_8 
REMARK    5  A    between atoms: C_9  and  C_10 
ROOT
HETATM    1  C   UNL     1       8.051  24.020  56.888  1.00  0.00     0.274 C 
HETATM    2  N   UNL     1       6.978  24.893  56.806  1.00  0.00    -0.243 N 
HETATM    3  O   UNL     1       9.040  24.189  57.598  1.00  0.00    -0.266 OA
HETATM    4  H   UNL     1       6.197  24.670  56.195  1.00  0.00     0.192 HD
ENDROOT
BRANCH   2   5
HETATM    5  N   UNL     1       7.014  26.079  57.480  1.00  0.00    -0.183 NA
HETATM    6  C   UNL     1       7.009  27.145  56.749  1.00  0.00     0.152 C 
BRANCH   6   7
HETATM    7  C   UNL     1       7.086  28.442  57.392  1.00  0.00     0.011 A 
HETATM    8  C   UNL     1       6.179  29.543  57.262  1.00  0.00     0.005 A 
HETATM    9  C   UNL     1       6.675  30.589  58.044  1.00  0.00     0.043 A 
HETATM   10  C   UNL     1       4.987  29.758  56.537  1.00  0.00     0.033 A 
HETATM   11  C   UNL     1       6.047  31.836  58.139  1.00  0.00     0.031 A 
HETATM   12  N   UNL     1       7.832  30.138  58.638  1.00  0.00    -0.364 N 
HETATM   13  C   UNL     1       4.869  32.025  57.411  1.00  0.00     0.021 A 
HETATM   14  C   UNL     1       4.350  31.001  56.624  1.00  0.00     0.012 A 
HETATM   15 BR   UNL     1       2.756  31.294  55.648  1.00  0.00    -0.051 Br
HETATM   16  H   UNL     1       8.413  30.684  59.258  1.00  0.00     0.165 HD
HETATM   17  C   UNL     1       8.090  28.854  58.249  1.00  0.00     0.102 A 
ENDBRANCH   6   7
ENDBRANCH   2   5
BRANCH   1  18
HETATM   18  C   UNL     1       7.998  22.830  55.985  1.00  0.00     0.067 A 
HETATM   19  C   UNL     1       7.801  22.900  54.595  1.00  0.00     0.084 A 
HETATM   20  C   UNL     1       7.832  21.723  53.832  1.00  0.00     0.038 A 
HETATM   21  C   UNL     1       8.010  20.483  54.447  1.00  0.00     0.003 A 
HETATM   22  C   UNL     1       8.165  20.405  55.827  1.00  0.00     0.001 A 
HETATM   23  C   UNL     1       8.160  21.571  56.592  1.00  0.00     0.020 A 
BRANCH  19  24
HETATM   24  O   UNL     1       7.632  24.129  54.005  1.00  0.00    -0.350 OA
BRANCH  24  25
HETATM   25  C   UNL     1       7.899  24.134  52.596  1.00  0.00     0.171 C 
HETATM   26  C   UNL     1       7.219  25.349  51.992  1.00  0.00     0.034 C 
ENDBRANCH  24  25
ENDBRANCH  19  24
ENDBRANCH   1  18
TORSDOF 5
ENDMDL
MODEL 10
REMARK VINA RESULT:      -7.8      2.271      3.744
REMARK  5 active torsions:
REMARK  status: ('A' for Active; 'I' for Inactive)
REMARK    1  A    between atoms: C_2  and  O_3 
REMARK    2  A    between atoms: O_3  and  C_4 
REMARK    3  A    between atoms: C_5  and  C_6 
REMARK       I    between atoms: C_6  and  N_7 
REMARK    4  A    between atoms: N_7  and  N_8 
REMARK    5  A    between atoms: C_9  and  C_10 
ROOT
HETATM    1  C   UNL     1       6.281  26.748  54.717  1.00  0.00     0.274 C 
HETATM    2  N   UNL     1       7.008  27.334  55.740  1.00  0.00    -0.243 N 
HETATM    3  O   UNL     1       5.156  27.097  54.365  1.00  0.00    -0.266 OA
HETATM    4  H   UNL     1       7.936  26.984  55.959  1.00  0.00     0.192 HD
ENDROOT
BRANCH   2   5
HETATM    5  N   UNL     1       6.444  28.321  56.496  1.00  0.00    -0.183 NA
HETATM    6  C   UNL     1       7.007  29.481  56.422  1.00  0.00     0.152 C 
BRANCH   6   7
HETATM    7  C   UNL     1       6.489  30.570  57.227  1.00  0.00     0.011 A 
HETATM    8  C   UNL     1       6.917  30.979  58.531  1.00  0.00     0.005 A 
HETATM    9  C   UNL     1       6.110  32.052  58.919  1.00  0.00     0.043 A 
HETATM   10  C   UNL     1       7.907  30.528  59.431  1.00  0.00     0.033 A 
HETATM   11  C   UNL     1       6.237  32.695  60.156  1.00  0.00     0.031 A 
HETATM   12  N   UNL     1       5.233  32.294  57.886  1.00  0.00    -0.364 N 
HETATM   13  C   UNL     1       7.223  32.229  61.030  1.00  0.00     0.021 A 
HETATM   14  C   UNL     1       8.043  31.163  60.670  1.00  0.00     0.012 A 
HETATM   15 BR   UNL     1       9.364  30.555  61.882  1.00  0.00    -0.051 Br
HETATM   16  H   UNL     1       4.524  33.014  57.888  1.00  0.00     0.165 HD
HETATM   17  C   UNL     1       5.449  31.408  56.870  1.00  0.00     0.102 A 
ENDBRANCH   6   7
ENDBRANCH   2   5
BRANCH   1  18
HETATM   18  C   UNL     1       6.915  25.565  54.057  1.00  0.00     0.067 A 
HETATM   19  C   UNL     1       7.230  24.366  54.718  1.00  0.00     0.084 A 
HETATM   20  C   UNL     1       7.766  23.294  53.990  1.00  0.00     0.038 A 
HETATM   21  C   UNL     1       8.029  23.425  52.625  1.00  0.00     0.003 A 
HETATM   22  C   UNL     1       7.755  24.624  51.974  1.00  0.00     0.001 A 
HETATM   23  C   UNL     1       7.200  25.687  52.685  1.00  0.00     0.020 A 
BRANCH  19  24
HETATM   24  O   UNL     1       6.961  24.251  56.061  1.00  0.00    -0.350 OA
BRANCH  24  25
HETATM   25  C   UNL     1       7.999  23.601  56.805  1.00  0.00     0.171 C 
HETATM   26  C   UNL     1       8.920  24.670  57.363  1.00  0.00     0.034 C 
ENDBRANCH  24  25
ENDBRANCH  19  24
ENDBRANCH   1  18
TORSDOF 5
ENDMDL
