MODEL 1
REMARK VINA RESULT:     -11.0      0.000      0.000
REMARK  2 active torsions:
REMARK  status: ('A' for Active; 'I' for Inactive)
REMARK    1  A    between atoms: C_2  and  N_3 
REMARK       I    between atoms: N_3  and  C_4 
REMARK    2  A    between atoms: C_4  and  C_5 
ROOT
HETATM    1  C   UNL     1       5.795  27.160  56.886  1.00  0.00     0.032 A 
HETATM    2  C   UNL     1       7.119  26.744  56.948  1.00  0.00     0.036 A 
HETATM    3  C   UNL     1       8.097  27.678  57.304  1.00  0.00     0.049 A 
HETATM    4  C   UNL     1       7.761  28.999  57.665  1.00  0.00     0.061 A 
HETATM    5  C   UNL     1       6.418  29.395  57.652  1.00  0.00     0.050 A 
HETATM    6  N   UNL     1       5.911  30.649  58.031  1.00  0.00    -0.324 N 
HETATM    7  C   UNL     1       6.404  31.527  58.958  1.00  0.00     0.245 C 
HETATM    8  O   UNL     1       5.706  32.495  59.266  1.00  0.00    -0.271 OA
HETATM    9  C   UNL     1       7.675  31.147  59.711  1.00  0.00     0.180 C 
HETATM   10  N   UNL     1       8.786  30.943  58.794  1.00  0.00    -0.334 N 
HETATM   11  C   UNL     1       8.916  29.903  57.909  1.00  0.00     0.256 C 
HETATM   12  O   UNL     1       9.971  29.677  57.317  1.00  0.00    -0.267 OA
HETATM   13  C   UNL     1       8.153  32.265  60.647  1.00  0.00     0.037 C 
HETATM   14  C   UNL     1       9.669  32.142  60.601  1.00  0.00     0.022 C 
HETATM   15  C   UNL     1       9.926  31.770  59.151  1.00  0.00     0.127 C 
HETATM   16  C   UNL     1       5.451  28.475  57.216  1.00  0.00     0.033 A 
HETATM   17  H   UNL     1       4.964  30.885  57.758  1.00  0.00     0.169 HD
ENDROOT
BRANCH   2  18
HETATM   18  N   UNL     1       7.542  25.434  56.683  1.00  0.00    -0.322 N 
HETATM   19  C   UNL     1       7.673  24.807  55.458  1.00  0.00     0.277 C 
HETATM   20  O   UNL     1       7.491  25.314  54.356  1.00  0.00    -0.266 OA
HETATM   21  H   UNL     1       7.709  24.807  57.469  1.00  0.00     0.169 HD
BRANCH  19  22
HETATM   22  C   UNL     1       8.030  23.387  55.611  1.00  0.00     0.153 A 
HETATM   23  N   UNL     1       8.267  22.829  56.831  1.00  0.00    -0.169 NA
HETATM   24  N   UNL     1       8.543  21.523  56.568  1.00  0.00    -0.281 N 
HETATM   25  H   UNL     1       8.761  20.902  57.341  1.00  0.00     0.189 HD
HETATM   26  C   UNL     1       8.462  21.256  55.251  1.00  0.00     0.036 A 
HETATM   27  C   UNL     1       8.142  22.413  54.611  1.00  0.00     0.002 A 
HETATM   28  C   UNL     1       8.604  20.079  54.386  1.00  0.00     0.059 C 
HETATM   29  C   UNL     1       8.009  22.219  53.159  1.00  0.00     0.043 C 
HETATM   30  C   UNL     1       7.999  20.649  53.052  1.00  0.00     0.011 C 
ENDBRANCH  19  22
ENDBRANCH   2  18
TORSDOF 2
ENDMDL
MODEL 2
REMARK VINA RESULT:     -10.2      4.566     10.858
REMARK  2 active torsions:
REMARK  status: ('A' for Active; 'I' for Inactive)
REMARK    1  A    between atoms: C_2  and  N_3 
REMARK       I    between atoms: N_3  and  C_4 
REMARK    2  A    between atoms: C_4  and  C_5 
ROOT
HETATM    1  C   UNL     1       8.694  31.993  62.096  1.00  0.00     0.032 A 
HETATM    2  C   UNL     1       7.368  32.392  61.979  1.00  0.00     0.036 A 
HETATM    3  C   UNL     1       6.724  32.221  60.751  1.00  0.00     0.049 A 
HETATM    4  C   UNL     1       7.364  31.594  59.662  1.00  0.00     0.061 A 
HETATM    5  C   UNL     1       8.683  31.146  59.804  1.00  0.00     0.050 A 
HETATM    6  N   UNL     1       9.443  30.460  58.842  1.00  0.00    -0.324 N 
HETATM    7  C   UNL     1       9.013  29.612  57.858  1.00  0.00     0.245 C 
HETATM    8  O   UNL     1       9.863  28.975  57.232  1.00  0.00    -0.271 OA
HETATM    9  C   UNL     1       7.517  29.338  57.740  1.00  0.00     0.180 C 
HETATM   10  N   UNL     1       6.778  30.566  57.492  1.00  0.00    -0.334 N 
HETATM   11  C   UNL     1       6.591  31.585  58.392  1.00  0.00     0.256 C 
HETATM   12  O   UNL     1       5.786  32.493  58.191  1.00  0.00    -0.267 OA
HETATM   13  C   UNL     1       7.183  28.442  56.540  1.00  0.00     0.037 C 
HETATM   14  C   UNL     1       5.829  28.959  56.078  1.00  0.00     0.022 C 
HETATM   15  C   UNL     1       5.953  30.456  56.301  1.00  0.00     0.127 C 
HETATM   16  C   UNL     1       9.349  31.395  61.014  1.00  0.00     0.033 A 
HETATM   17  H   UNL     1      10.445  30.400  58.978  1.00  0.00     0.169 HD
ENDROOT
BRANCH   2  18
HETATM   18  N   UNL     1       6.625  32.953  63.027  1.00  0.00    -0.322 N 
HETATM   19  C   UNL     1       5.480  32.459  63.625  1.00  0.00     0.277 C 
HETATM   20  O   UNL     1       4.929  31.391  63.378  1.00  0.00    -0.266 OA
HETATM   21  H   UNL     1       6.881  33.878  63.367  1.00  0.00     0.169 HD
BRANCH  19  22
HETATM   22  C   UNL     1       4.932  33.405  64.611  1.00  0.00     0.153 A 
HETATM   23  N   UNL     1       3.650  33.861  64.539  1.00  0.00    -0.169 NA
HETATM   24  N   UNL     1       3.514  34.685  65.613  1.00  0.00    -0.281 N 
HETATM   25  H   UNL     1       2.625  35.153  65.763  1.00  0.00     0.189 HD
HETATM   26  C   UNL     1       4.642  34.734  66.345  1.00  0.00     0.036 A 
HETATM   27  C   UNL     1       5.565  33.938  65.741  1.00  0.00     0.002 A 
HETATM   28  C   UNL     1       5.087  35.383  67.584  1.00  0.00     0.059 C 
HETATM   29  C   UNL     1       6.834  33.908  66.483  1.00  0.00     0.043 C 
HETATM   30  C   UNL     1       6.422  34.592  67.839  1.00  0.00     0.011 C 
ENDBRANCH  19  22
ENDBRANCH   2  18
TORSDOF 2
ENDMDL
MODEL 3
REMARK VINA RESULT:     -10.0      1.956      8.716
REMARK  2 active torsions:
REMARK  status: ('A' for Active; 'I' for Inactive)
REMARK    1  A    between atoms: C_2  and  N_3 
REMARK       I    between atoms: N_3  and  C_4 
REMARK    2  A    between atoms: C_4  and  C_5 
ROOT
HETATM    1  C   UNL     1       5.304  28.996  56.450  1.00  0.00     0.032 A 
HETATM    2  C   UNL     1       6.263  28.505  57.327  1.00  0.00     0.036 A 
HETATM    3  C   UNL     1       6.715  27.194  57.158  1.00  0.00     0.049 A 
HETATM    4  C   UNL     1       6.274  26.391  56.085  1.00  0.00     0.061 A 
HETATM    5  C   UNL     1       5.347  26.912  55.173  1.00  0.00     0.050 A 
HETATM    6  N   UNL     1       4.847  26.270  54.029  1.00  0.00    -0.324 N 
HETATM    7  C   UNL     1       5.460  25.340  53.233  1.00  0.00     0.245 C 
HETATM    8  O   UNL     1       4.910  25.035  52.172  1.00  0.00    -0.271 OA
HETATM    9  C   UNL     1       6.876  24.901  53.591  1.00  0.00     0.180 C 
HETATM   10  N   UNL     1       6.922  24.311  54.920  1.00  0.00    -0.334 N 
HETATM   11  C   UNL     1       6.757  24.986  56.104  1.00  0.00     0.256 C 
HETATM   12  O   UNL     1       7.014  24.470  57.190  1.00  0.00    -0.267 OA
HETATM   13  C   UNL     1       7.393  23.794  52.663  1.00  0.00     0.037 C 
HETATM   14  C   UNL     1       8.270  22.948  53.576  1.00  0.00     0.022 C 
HETATM   15  C   UNL     1       7.509  22.982  54.890  1.00  0.00     0.127 C 
HETATM   16  C   UNL     1       4.838  28.201  55.397  1.00  0.00     0.033 A 
HETATM   17  H   UNL     1       4.019  26.653  53.588  1.00  0.00     0.169 HD
ENDROOT
BRANCH   2  18
HETATM   18  N   UNL     1       6.820  29.251  58.375  1.00  0.00    -0.322 N 
HETATM   19  C   UNL     1       8.001  29.968  58.384  1.00  0.00     0.277 C 
HETATM   20  O   UNL     1       8.765  30.129  57.437  1.00  0.00    -0.266 OA
HETATM   21  H   UNL     1       6.366  29.224  59.288  1.00  0.00     0.169 HD
BRANCH  19  22
HETATM   22  C   UNL     1       8.295  30.516  59.719  1.00  0.00     0.153 A 
HETATM   23  N   UNL     1       9.413  30.166  60.414  1.00  0.00    -0.169 NA
HETATM   24  N   UNL     1       9.341  30.878  61.570  1.00  0.00    -0.281 N 
HETATM   25  H   UNL     1      10.079  30.771  62.259  1.00  0.00     0.189 HD
HETATM   26  C   UNL     1       8.245  31.660  61.601  1.00  0.00     0.036 A 
HETATM   27  C   UNL     1       7.555  31.456  60.447  1.00  0.00     0.002 A 
HETATM   28  C   UNL     1       7.658  32.644  62.518  1.00  0.00     0.059 C 
HETATM   29  C   UNL     1       6.345  32.288  60.377  1.00  0.00     0.043 C 
HETATM   30  C   UNL     1       6.578  33.284  61.572  1.00  0.00     0.011 C 
ENDBRANCH  19  22
ENDBRANCH   2  18
TORSDOF 2
ENDMDL
MODEL 4
REMARK VINA RESULT:      -9.9      5.458      8.681
REMARK  2 active torsions:
REMARK  status: ('A' for Active; 'I' for Inactive)
REMARK    1  A    between atoms: C_2  and  N_3 
REMARK       I    between atoms: N_3  and  C_4 
REMARK    2  A    between atoms: C_4  and  C_5 
ROOT
HETATM    1  C   UNL     1       5.677  27.160  53.904  1.00  0.00     0.032 A 
HETATM    2  C   UNL     1       5.472  26.390  52.766  1.00  0.00     0.036 A 
HETATM    3  C   UNL     1       6.160  25.180  52.644  1.00  0.00     0.049 A 
HETATM    4  C   UNL     1       6.996  24.698  53.673  1.00  0.00     0.061 A 
HETATM    5  C   UNL     1       7.156  25.455  54.840  1.00  0.00     0.050 A 
HETATM    6  N   UNL     1       7.905  25.097  55.973  1.00  0.00    -0.324 N 
HETATM    7  C   UNL     1       8.166  23.849  56.468  1.00  0.00     0.245 C 
HETATM    8  O   UNL     1       8.697  23.765  57.577  1.00  0.00    -0.271 OA
HETATM    9  C   UNL     1       7.596  22.643  55.728  1.00  0.00     0.180 C 
HETATM   10  N   UNL     1       8.085  22.588  54.359  1.00  0.00    -0.334 N 
HETATM   11  C   UNL     1       7.746  23.455  53.351  1.00  0.00     0.256 C 
HETATM   12  O   UNL     1       8.028  23.230  52.174  1.00  0.00    -0.267 OA
HETATM   13  C   UNL     1       8.045  21.313  56.348  1.00  0.00     0.037 C 
HETATM   14  C   UNL     1       8.164  20.385  55.148  1.00  0.00     0.022 C 
HETATM   15  C   UNL     1       8.706  21.307  54.069  1.00  0.00     0.127 C 
HETATM   16  C   UNL     1       6.525  26.706  54.920  1.00  0.00     0.033 A 
HETATM   17  H   UNL     1       8.131  25.821  56.646  1.00  0.00     0.169 HD
ENDROOT
BRANCH   2  18
HETATM   18  N   UNL     1       4.602  26.747  51.726  1.00  0.00    -0.322 N 
HETATM   19  C   UNL     1       4.746  27.762  50.799  1.00  0.00     0.277 C 
HETATM   20  O   UNL     1       5.708  28.515  50.684  1.00  0.00    -0.266 OA
HETATM   21  H   UNL     1       3.702  26.273  51.658  1.00  0.00     0.169 HD
BRANCH  19  22
HETATM   22  C   UNL     1       3.554  27.889  49.944  1.00  0.00     0.153 A 
HETATM   23  N   UNL     1       2.679  28.925  50.074  1.00  0.00    -0.169 NA
HETATM   24  N   UNL     1       1.738  28.707  49.116  1.00  0.00    -0.281 N 
HETATM   25  H   UNL     1       0.967  29.362  49.027  1.00  0.00     0.189 HD
HETATM   26  C   UNL     1       2.012  27.603  48.396  1.00  0.00     0.036 A 
HETATM   27  C   UNL     1       3.153  27.055  48.892  1.00  0.00     0.002 A 
HETATM   28  C   UNL     1       1.423  26.898  47.252  1.00  0.00     0.059 C 
HETATM   29  C   UNL     1       3.550  25.847  48.153  1.00  0.00     0.043 C 
HETATM   30  C   UNL     1       2.605  25.924  46.897  1.00  0.00     0.011 C 
ENDBRANCH  19  22
ENDBRANCH   2  18
TORSDOF 2
ENDMDL
MODEL 5
REMARK VINA RESULT:      -9.6      2.053      2.494
REMARK  2 active torsions:
REMARK  status: ('A' for Active; 'I' for Inactive)
REMARK    1  A    between atoms: C_2  and  N_3 
REMARK       I    between atoms: N_3  and  C_4 
REMARK    2  A    between atoms: C_4  and  C_5 
ROOT
HETATM    1  C   UNL     1       5.302  29.709  56.133  1.00  0.00     0.032 A 
HETATM    2  C   UNL     1       6.534  29.069  56.083  1.00  0.00     0.036 A 
HETATM    3  C   UNL     1       7.570  29.548  56.889  1.00  0.00     0.049 A 
HETATM    4  C   UNL     1       7.371  30.611  57.795  1.00  0.00     0.061 A 
HETATM    5  C   UNL     1       6.110  31.216  57.879  1.00  0.00     0.050 A 
HETATM    6  N   UNL     1       5.732  32.244  58.758  1.00  0.00    -0.324 N 
HETATM    7  C   UNL     1       6.203  32.512  60.014  1.00  0.00     0.245 C 
HETATM    8  O   UNL     1       5.608  33.357  60.687  1.00  0.00    -0.271 OA
HETATM    9  C   UNL     1       7.290  31.609  60.588  1.00  0.00     0.180 C 
HETATM   10  N   UNL     1       8.482  31.627  59.754  1.00  0.00    -0.334 N 
HETATM   11  C   UNL     1       8.592  31.080  58.501  1.00  0.00     0.256 C 
HETATM   12  O   UNL     1       9.679  30.947  57.940  1.00  0.00    -0.267 OA
HETATM   13  C   UNL     1       7.778  32.087  61.962  1.00  0.00     0.037 C 
HETATM   14  C   UNL     1       9.253  31.716  61.963  1.00  0.00     0.022 C 
HETATM   15  C   UNL     1       9.662  31.981  60.525  1.00  0.00     0.127 C 
HETATM   16  C   UNL     1       5.099  30.782  57.007  1.00  0.00     0.033 A 
HETATM   17  H   UNL     1       4.875  32.749  58.563  1.00  0.00     0.169 HD
ENDROOT
BRANCH   2  18
HETATM   18  N   UNL     1       6.806  27.957  55.274  1.00  0.00    -0.322 N 
HETATM   19  C   UNL     1       6.918  26.631  55.648  1.00  0.00     0.277 C 
HETATM   20  O   UNL     1       6.742  26.173  56.773  1.00  0.00    -0.266 OA
HETATM   21  H   UNL     1       7.033  28.112  54.292  1.00  0.00     0.169 HD
BRANCH  19  22
HETATM   22  C   UNL     1       7.333  25.781  54.520  1.00  0.00     0.153 A 
HETATM   23  N   UNL     1       7.730  26.307  53.327  1.00  0.00    -0.169 NA
HETATM   24  N   UNL     1       8.045  25.229  52.560  1.00  0.00    -0.281 N 
HETATM   25  H   UNL     1       8.366  25.381  51.609  1.00  0.00     0.189 HD
HETATM   26  C   UNL     1       7.881  24.076  53.236  1.00  0.00     0.036 A 
HETATM   27  C   UNL     1       7.427  24.385  54.481  1.00  0.00     0.002 A 
HETATM   28  C   UNL     1       8.083  22.646  52.979  1.00  0.00     0.059 C 
HETATM   29  C   UNL     1       7.236  23.184  55.309  1.00  0.00     0.043 C 
HETATM   30  C   UNL     1       7.958  22.087  54.443  1.00  0.00     0.011 C 
ENDBRANCH  19  22
ENDBRANCH   2  18
TORSDOF 2
ENDMDL
MODEL 6
REMARK VINA RESULT:      -9.4      4.444      7.545
REMARK  2 active torsions:
REMARK  status: ('A' for Active; 'I' for Inactive)
REMARK    1  A    between atoms: C_2  and  N_3 
REMARK       I    between atoms: N_3  and  C_4 
REMARK    2  A    between atoms: C_4  and  C_5 
ROOT
HETATM    1  C   UNL     1       8.315  31.687  62.709  1.00  0.00     0.032 A 
HETATM    2  C   UNL     1       7.673  31.602  61.479  1.00  0.00     0.036 A 
HETATM    3  C   UNL     1       6.433  32.227  61.327  1.00  0.00     0.049 A 
HETATM    4  C   UNL     1       5.859  32.993  62.364  1.00  0.00     0.061 A 
HETATM    5  C   UNL     1       6.538  33.119  63.582  1.00  0.00     0.050 A 
HETATM    6  N   UNL     1       6.134  33.881  64.690  1.00  0.00    -0.324 N 
HETATM    7  C   UNL     1       5.398  35.035  64.713  1.00  0.00     0.245 C 
HETATM    8  O   UNL     1       5.306  35.641  65.783  1.00  0.00    -0.271 OA
HETATM    9  C   UNL     1       4.922  35.616  63.386  1.00  0.00     0.180 C 
HETATM   10  N   UNL     1       4.074  34.673  62.674  1.00  0.00    -0.334 N 
HETATM   11  C   UNL     1       4.489  33.502  62.092  1.00  0.00     0.256 C 
HETATM   12  O   UNL     1       3.766  32.859  61.331  1.00  0.00    -0.267 OA
HETATM   13  C   UNL     1       4.038  36.856  63.577  1.00  0.00     0.037 C 
HETATM   14  C   UNL     1       3.041  36.760  62.433  1.00  0.00     0.022 C 
HETATM   15  C   UNL     1       2.791  35.265  62.336  1.00  0.00     0.127 C 
HETATM   16  C   UNL     1       7.743  32.421  63.754  1.00  0.00     0.033 A 
HETATM   17  H   UNL     1       6.583  33.706  65.582  1.00  0.00     0.169 HD
ENDROOT
BRANCH   2  18
HETATM   18  N   UNL     1       8.199  30.931  60.367  1.00  0.00    -0.322 N 
HETATM   19  C   UNL     1       8.984  31.441  59.349  1.00  0.00     0.277 C 
HETATM   20  O   UNL     1       9.416  32.586  59.265  1.00  0.00    -0.266 OA
HETATM   21  H   UNL     1       7.929  29.961  60.209  1.00  0.00     0.169 HD
BRANCH  19  22
HETATM   22  C   UNL     1       9.232  30.439  58.300  1.00  0.00     0.153 A 
HETATM   23  N   UNL     1      10.474  30.228  57.781  1.00  0.00    -0.169 NA
HETATM   24  N   UNL     1      10.304  29.233  56.868  1.00  0.00    -0.281 N 
HETATM   25  H   UNL     1      11.109  28.908  56.342  1.00  0.00     0.189 HD
HETATM   26  C   UNL     1       9.025  28.815  56.825  1.00  0.00     0.036 A 
HETATM   27  C   UNL     1       8.314  29.557  57.715  1.00  0.00     0.002 A 
HETATM   28  C   UNL     1       8.258  27.791  56.106  1.00  0.00     0.059 C 
HETATM   29  C   UNL     1       6.899  29.157  57.757  1.00  0.00     0.043 C 
HETATM   30  C   UNL     1       6.929  27.809  56.947  1.00  0.00     0.011 C 
ENDBRANCH  19  22
ENDBRANCH   2  18
TORSDOF 2
ENDMDL
MODEL 7
REMARK VINA RESULT:      -9.3      5.799      7.409
REMARK  2 active torsions:
REMARK  status: ('A' for Active; 'I' for Inactive)
REMARK    1  A    between atoms: C_2  and  N_3 
REMARK       I    between atoms: N_3  and  C_4 
REMARK    2  A    between atoms: C_4  and  C_5 
ROOT
HETATM    1  C   UNL     1       5.867  24.474  52.790  1.00  0.00     0.032 A 
HETATM    2  C   UNL     1       5.130  25.594  52.426  1.00  0.00     0.036 A 
HETATM    3  C   UNL     1       4.927  26.600  53.375  1.00  0.00     0.049 A 
HETATM    4  C   UNL     1       5.510  26.534  54.658  1.00  0.00     0.061 A 
HETATM    5  C   UNL     1       6.297  25.427  55.000  1.00  0.00     0.050 A 
HETATM    6  N   UNL     1       6.986  25.231  56.207  1.00  0.00    -0.324 N 
HETATM    7  C   UNL     1       7.524  26.168  57.047  1.00  0.00     0.245 C 
HETATM    8  O   UNL     1       8.245  25.774  57.967  1.00  0.00    -0.271 OA
HETATM    9  C   UNL     1       7.383  27.640  56.675  1.00  0.00     0.180 C 
HETATM   10  N   UNL     1       5.984  28.024  56.571  1.00  0.00    -0.334 N 
HETATM   11  C   UNL     1       5.112  27.621  55.591  1.00  0.00     0.256 C 
HETATM   12  O   UNL     1       4.008  28.144  55.444  1.00  0.00    -0.267 OA
HETATM   13  C   UNL     1       7.955  28.570  57.753  1.00  0.00     0.037 C 
HETATM   14  C   UNL     1       7.041  29.785  57.695  1.00  0.00     0.022 C 
HETATM   15  C   UNL     1       5.682  29.164  57.420  1.00  0.00     0.127 C 
HETATM   16  C   UNL     1       6.428  24.384  54.069  1.00  0.00     0.033 A 
HETATM   17  H   UNL     1       7.322  24.299  56.421  1.00  0.00     0.169 HD
ENDROOT
BRANCH   2  18
HETATM   18  N   UNL     1       4.577  25.786  51.152  1.00  0.00    -0.322 N 
HETATM   19  C   UNL     1       4.840  26.799  50.248  1.00  0.00     0.277 C 
HETATM   20  O   UNL     1       5.662  27.700  50.379  1.00  0.00    -0.266 OA
HETATM   21  H   UNL     1       3.827  25.168  50.847  1.00  0.00     0.169 HD
BRANCH  19  22
HETATM   22  C   UNL     1       3.964  26.714  49.068  1.00  0.00     0.153 A 
HETATM   23  N   UNL     1       3.950  25.620  48.255  1.00  0.00    -0.169 NA
HETATM   24  N   UNL     1       3.019  25.904  47.306  1.00  0.00    -0.281 N 
HETATM   25  H   UNL     1       2.839  25.222  46.576  1.00  0.00     0.189 HD
HETATM   26  C   UNL     1       2.451  27.107  47.515  1.00  0.00     0.036 A 
HETATM   27  C   UNL     1       3.025  27.652  48.620  1.00  0.00     0.002 A 
HETATM   28  C   UNL     1       1.401  27.918  46.888  1.00  0.00     0.059 C 
HETATM   29  C   UNL     1       2.452  28.967  48.946  1.00  0.00     0.043 C 
HETATM   30  C   UNL     1       1.187  28.998  48.010  1.00  0.00     0.011 C 
ENDBRANCH  19  22
ENDBRANCH   2  18
TORSDOF 2
ENDMDL
MODEL 8
REMARK VINA RESULT:      -9.0      4.072      9.357
REMARK  2 active torsions:
REMARK  status: ('A' for Active; 'I' for Inactive)
REMARK    1  A    between atoms: C_2  and  N_3 
REMARK       I    between atoms: N_3  and  C_4 
REMARK    2  A    between atoms: C_4  and  C_5 
ROOT
HETATM    1  C   UNL     1       8.749  29.818  58.329  1.00  0.00     0.032 A 
HETATM    2  C   UNL     1       7.592  30.504  58.673  1.00  0.00     0.036 A 
HETATM    3  C   UNL     1       6.573  30.617  57.723  1.00  0.00     0.049 A 
HETATM    4  C   UNL     1       6.667  29.994  56.461  1.00  0.00     0.061 A 
HETATM    5  C   UNL     1       7.815  29.258  56.141  1.00  0.00     0.050 A 
HETATM    6  N   UNL     1       8.045  28.538  54.958  1.00  0.00    -0.324 N 
HETATM    7  C   UNL     1       7.136  27.920  54.142  1.00  0.00     0.245 C 
HETATM    8  O   UNL     1       7.566  27.190  53.246  1.00  0.00    -0.271 OA
HETATM    9  C   UNL     1       5.660  27.991  54.517  1.00  0.00     0.180 C 
HETATM   10  N   UNL     1       5.199  29.370  54.574  1.00  0.00    -0.334 N 
HETATM   11  C   UNL     1       5.556  30.296  55.521  1.00  0.00     0.256 C 
HETATM   12  O   UNL     1       4.973  31.374  55.632  1.00  0.00    -0.267 OA
HETATM   13  C   UNL     1       4.759  27.330  53.465  1.00  0.00     0.037 C 
HETATM   14  C   UNL     1       3.496  28.177  53.498  1.00  0.00     0.022 C 
HETATM   15  C   UNL     1       4.041  29.577  53.721  1.00  0.00     0.127 C 
HETATM   16  C   UNL     1       8.867  29.218  57.070  1.00  0.00     0.033 A 
HETATM   17  H   UNL     1       8.993  28.247  54.750  1.00  0.00     0.169 HD
ENDROOT
BRANCH   2  18
HETATM   18  N   UNL     1       7.373  31.090  59.928  1.00  0.00    -0.322 N 
HETATM   19  C   UNL     1       8.005  32.186  60.484  1.00  0.00     0.277 C 
HETATM   20  O   UNL     1       8.852  32.892  59.945  1.00  0.00    -0.266 OA
HETATM   21  H   UNL     1       6.730  30.634  60.574  1.00  0.00     0.169 HD
BRANCH  19  22
HETATM   22  C   UNL     1       7.575  32.414  61.874  1.00  0.00     0.153 A 
HETATM   23  N   UNL     1       8.451  32.377  62.917  1.00  0.00    -0.169 NA
HETATM   24  N   UNL     1       7.695  32.648  64.014  1.00  0.00    -0.281 N 
HETATM   25  H   UNL     1       8.143  32.668  64.926  1.00  0.00     0.189 HD
HETATM   26  C   UNL     1       6.408  32.870  63.686  1.00  0.00     0.036 A 
HETATM   27  C   UNL     1       6.292  32.728  62.339  1.00  0.00     0.002 A 
HETATM   28  C   UNL     1       5.172  33.232  64.389  1.00  0.00     0.059 C 
HETATM   29  C   UNL     1       4.917  32.974  61.878  1.00  0.00     0.043 C 
HETATM   30  C   UNL     1       4.263  33.606  63.161  1.00  0.00     0.011 C 
ENDBRANCH  19  22
ENDBRANCH   2  18
TORSDOF 2
ENDMDL
MODEL 9
REMARK VINA RESULT:      -8.8      6.710      8.210
REMARK  2 active torsions:
REMARK  status: ('A' for Active; 'I' for Inactive)
REMARK    1  A    between atoms: C_2  and  N_3 
REMARK       I    between atoms: N_3  and  C_4 
REMARK    2  A    between atoms: C_4  and  C_5 
ROOT
HETATM    1  C   UNL     1       4.611  25.861  49.801  1.00  0.00     0.032 A 
HETATM    2  C   UNL     1       5.390  26.529  50.738  1.00  0.00     0.036 A 
HETATM    3  C   UNL     1       5.560  27.909  50.604  1.00  0.00     0.049 A 
HETATM    4  C   UNL     1       4.905  28.640  49.590  1.00  0.00     0.061 A 
HETATM    5  C   UNL     1       4.078  27.967  48.682  1.00  0.00     0.050 A 
HETATM    6  N   UNL     1       3.319  28.547  47.654  1.00  0.00    -0.324 N 
HETATM    7  C   UNL     1       2.754  29.792  47.605  1.00  0.00     0.245 C 
HETATM    8  O   UNL     1       1.975  30.038  46.681  1.00  0.00    -0.271 OA
HETATM    9  C   UNL     1       2.945  30.722  48.799  1.00  0.00     0.180 C 
HETATM   10  N   UNL     1       4.355  30.985  49.038  1.00  0.00    -0.334 N 
HETATM   11  C   UNL     1       5.272  30.078  49.508  1.00  0.00     0.256 C 
HETATM   12  O   UNL     1       6.393  30.419  49.885  1.00  0.00    -0.267 OA
HETATM   13  C   UNL     1       2.332  32.108  48.561  1.00  0.00     0.037 C 
HETATM   14  C   UNL     1       3.273  33.044  49.306  1.00  0.00     0.022 C 
HETATM   15  C   UNL     1       4.632  32.411  49.060  1.00  0.00     0.127 C 
HETATM   16  C   UNL     1       3.978  26.570  48.775  1.00  0.00     0.033 A 
HETATM   17  H   UNL     1       2.953  27.941  46.929  1.00  0.00     0.169 HD
ENDROOT
BRANCH   2  18
HETATM   18  N   UNL     1       6.017  25.902  51.824  1.00  0.00    -0.322 N 
HETATM   19  C   UNL     1       5.439  25.147  52.828  1.00  0.00     0.277 C 
HETATM   20  O   UNL     1       4.255  24.837  52.918  1.00  0.00    -0.266 OA
HETATM   21  H   UNL     1       7.012  26.064  51.974  1.00  0.00     0.169 HD
BRANCH  19  22
HETATM   22  C   UNL     1       6.423  24.764  53.854  1.00  0.00     0.153 A 
HETATM   23  N   UNL     1       6.471  25.374  55.072  1.00  0.00    -0.169 NA
HETATM   24  N   UNL     1       7.479  24.746  55.735  1.00  0.00    -0.281 N 
HETATM   25  H   UNL     1       7.705  25.044  56.679  1.00  0.00     0.189 HD
HETATM   26  C   UNL     1       8.030  23.771  54.988  1.00  0.00     0.036 A 
HETATM   27  C   UNL     1       7.390  23.753  53.788  1.00  0.00     0.002 A 
HETATM   28  C   UNL     1       9.080  22.760  55.154  1.00  0.00     0.059 C 
HETATM   29  C   UNL     1       7.909  22.699  52.904  1.00  0.00     0.043 C 
HETATM   30  C   UNL     1       8.786  21.856  53.902  1.00  0.00     0.011 C 
ENDBRANCH  19  22
ENDBRANCH   2  18
TORSDOF 2
ENDMDL
MODEL 10
REMARK VINA RESULT:      -8.4      3.904      9.960
REMARK  2 active torsions:
REMARK  status: ('A' for Active; 'I' for Inactive)
REMARK    1  A    between atoms: C_2  and  N_3 
REMARK       I    between atoms: N_3  and  C_4 
REMARK    2  A    between atoms: C_4  and  C_5 
ROOT
HETATM    1  C   UNL     1       7.964  32.683  60.614  1.00  0.00     0.032 A 
HETATM    2  C   UNL     1       6.621  32.466  60.331  1.00  0.00     0.036 A 
HETATM    3  C   UNL     1       6.288  31.710  59.204  1.00  0.00     0.049 A 
HETATM    4  C   UNL     1       7.278  31.110  58.398  1.00  0.00     0.061 A 
HETATM    5  C   UNL     1       8.629  31.289  58.721  1.00  0.00     0.050 A 
HETATM    6  N   UNL     1       9.730  30.723  58.058  1.00  0.00    -0.324 N 
HETATM    7  C   UNL     1       9.806  29.532  57.388  1.00  0.00     0.245 C 
HETATM    8  O   UNL     1      10.919  29.140  57.029  1.00  0.00    -0.271 OA
HETATM    9  C   UNL     1       8.556  28.661  57.316  1.00  0.00     0.180 C 
HETATM   10  N   UNL     1       7.464  29.364  56.660  1.00  0.00    -0.334 N 
HETATM   11  C   UNL     1       6.774  30.433  57.174  1.00  0.00     0.256 C 
HETATM   12  O   UNL     1       5.733  30.844  56.664  1.00  0.00    -0.267 OA
HETATM   13  C   UNL     1       8.771  27.405  56.460  1.00  0.00     0.037 C 
HETATM   14  C   UNL     1       7.412  27.182  55.811  1.00  0.00     0.022 C 
HETATM   15  C   UNL     1       6.938  28.599  55.542  1.00  0.00     0.127 C 
HETATM   16  C   UNL     1       8.956  32.117  59.806  1.00  0.00     0.033 A 
HETATM   17  H   UNL     1      10.649  31.110  58.238  1.00  0.00     0.169 HD
ENDROOT
BRANCH   2  18
HETATM   18  N   UNL     1       5.567  32.954  61.116  1.00  0.00    -0.322 N 
HETATM   19  C   UNL     1       5.207  32.579  62.397  1.00  0.00     0.277 C 
HETATM   20  O   UNL     1       5.792  31.772  63.112  1.00  0.00    -0.266 OA
HETATM   21  H   UNL     1       4.912  33.615  60.698  1.00  0.00     0.169 HD
BRANCH  19  22
HETATM   22  C   UNL     1       3.965  33.243  62.829  1.00  0.00     0.153 A 
HETATM   23  N   UNL     1       3.730  33.556  64.134  1.00  0.00    -0.169 NA
HETATM   24  N   UNL     1       2.512  34.162  64.130  1.00  0.00    -0.281 N 
HETATM   25  H   UNL     1       2.121  34.482  65.011  1.00  0.00     0.189 HD
HETATM   26  C   UNL     1       2.008  34.252  62.885  1.00  0.00     0.036 A 
HETATM   27  C   UNL     1       2.898  33.678  62.033  1.00  0.00     0.002 A 
HETATM   28  C   UNL     1       0.806  34.811  62.255  1.00  0.00     0.059 C 
HETATM   29  C   UNL     1       2.444  33.746  60.636  1.00  0.00     0.043 C 
HETATM   30  C   UNL     1       1.242  34.755  60.745  1.00  0.00     0.011 C 
ENDBRANCH  19  22
ENDBRANCH   2  18
TORSDOF 2
ENDMDL
