MODEL 1
REMARK VINA RESULT:      -9.8      0.000      0.000
REMARK  5 active torsions:
REMARK  status: ('A' for Active; 'I' for Inactive)
REMARK    1  A    between atoms: C_4  and  C_5 
REMARK    2  A    between atoms: C_6  and  N_7 
REMARK    3  A    between atoms: C_9  and  C_10 
REMARK       I    between atoms: C_10  and  N_11 
REMARK    4  A    between atoms: N_11  and  C_12 
REMARK    5  A    between atoms: C_12  and  C_13 
ROOT
HETATM    1  C   UNL     1       7.117  24.366  55.073  1.00  0.00     0.019 A 
HETATM    2  C   UNL     1       7.117  25.211  56.139  1.00  0.00     0.111 A 
HETATM    3  C   UNL     1       7.752  24.745  57.446  1.00  0.00     0.273 A 
HETATM    4  O   UNL     1       7.762  25.439  58.464  1.00  0.00    -0.266 OA
HETATM    5  N   UNL     1       8.322  23.506  57.476  1.00  0.00    -0.321 N 
HETATM    6  C   UNL     1       8.359  22.643  56.386  1.00  0.00     0.046 A 
HETATM    7  C   UNL     1       7.772  23.034  55.179  1.00  0.00     0.006 A 
HETATM    8  C   UNL     1       8.991  21.404  56.523  1.00  0.00     0.032 A 
HETATM    9  C   UNL     1       9.052  20.536  55.433  1.00  0.00     0.026 A 
HETATM   10  C   UNL     1       8.479  20.914  54.221  1.00  0.00     0.035 A 
HETATM   11 CL   UNL     1       8.563  19.848  52.872  1.00  0.00    -0.084 Cl
HETATM   12  C   UNL     1       7.844  22.150  54.090  1.00  0.00     0.038 A 
HETATM   13  H   UNL     1       8.733  23.242  58.360  1.00  0.00     0.169 HD
ENDROOT
BRANCH   2  14
HETATM   14  N   UNL     1       6.560  26.512  56.119  1.00  0.00    -0.375 N 
HETATM   15  C   UNL     1       7.455  27.686  56.146  1.00  0.00     0.137 C 
HETATM   16  C   UNL     1       6.789  28.898  55.482  1.00  0.00     0.096 C 
HETATM   17  C   UNL     1       5.427  29.174  56.143  1.00  0.00     0.017 C 
HETATM   18  C   UNL     1       4.557  27.918  56.227  1.00  0.00     0.021 C 
HETATM   19  C   UNL     1       5.310  26.750  56.860  1.00  0.00     0.123 C 
BRANCH  16  20
HETATM   20  C   UNL     1       6.679  28.759  53.961  1.00  0.00     0.223 C 
HETATM   21  N   UNL     1       5.489  29.202  53.426  1.00  0.00    -0.358 N 
HETATM   22  H   UNL     1       4.697  29.373  54.031  1.00  0.00     0.162 HD
HETATM   23  O   UNL     1       7.539  28.218  53.270  1.00  0.00    -0.273 OA
BRANCH  21  24
HETATM   24  C   UNL     1       5.211  29.154  52.002  1.00  0.00     0.154 C 
BRANCH  24  25
HETATM   25  C   UNL     1       3.714  29.089  51.713  1.00  0.00     0.139 C 
HETATM   26  O   UNL     1       3.135  30.411  51.803  1.00  0.00    -0.384 OA
HETATM   27  C   UNL     1       2.189  30.563  50.734  1.00  0.00     0.168 C 
HETATM   28  C   UNL     1       2.064  29.219  50.049  1.00  0.00     0.029 C 
HETATM   29  C   UNL     1       3.415  28.603  50.304  1.00  0.00     0.035 C 
ENDBRANCH  24  25
ENDBRANCH  21  24
ENDBRANCH  16  20
ENDBRANCH   2  14
BRANCH   1  30
HETATM   30  C   UNL     1       6.490  24.840  53.812  1.00  0.00    -0.023 A 
HETATM   31  C   UNL     1       7.279  25.111  52.688  1.00  0.00     0.012 A 
HETATM   32  C   UNL     1       6.688  25.532  51.496  1.00  0.00     0.001 A 
HETATM   33  C   UNL     1       5.304  25.681  51.418  1.00  0.00     0.000 A 
HETATM   34  C   UNL     1       4.509  25.406  52.530  1.00  0.00     0.001 A 
HETATM   35  C   UNL     1       5.098  24.983  53.723  1.00  0.00     0.012 A 
ENDBRANCH   1  30
TORSDOF 5
ENDMDL
MODEL 2
REMARK VINA RESULT:      -9.1      3.143      5.367
REMARK  5 active torsions:
REMARK  status: ('A' for Active; 'I' for Inactive)
REMARK    1  A    between atoms: C_4  and  C_5 
REMARK    2  A    between atoms: C_6  and  N_7 
REMARK    3  A    between atoms: C_9  and  C_10 
REMARK       I    between atoms: C_10  and  N_11 
REMARK    4  A    between atoms: N_11  and  C_12 
REMARK    5  A    between atoms: C_12  and  C_13 
ROOT
HETATM    1  C   UNL     1       7.284  24.597  55.090  1.00  0.00     0.019 A 
HETATM    2  C   UNL     1       7.462  25.438  56.144  1.00  0.00     0.111 A 
HETATM    3  C   UNL     1       8.124  24.902  57.410  1.00  0.00     0.273 A 
HETATM    4  O   UNL     1       8.291  25.593  58.416  1.00  0.00    -0.266 OA
HETATM    5  N   UNL     1       8.537  23.601  57.415  1.00  0.00    -0.321 N 
HETATM    6  C   UNL     1       8.391  22.737  56.336  1.00  0.00     0.046 A 
HETATM    7  C   UNL     1       7.775  23.194  55.167  1.00  0.00     0.006 A 
HETATM    8  C   UNL     1       8.872  21.430  56.443  1.00  0.00     0.032 A 
HETATM    9  C   UNL     1       8.750  20.558  55.363  1.00  0.00     0.026 A 
HETATM   10  C   UNL     1       8.145  21.000  54.188  1.00  0.00     0.035 A 
HETATM   11 CL   UNL     1       8.003  19.928  52.849  1.00  0.00    -0.084 Cl
HETATM   12  C   UNL     1       7.660  22.305  54.087  1.00  0.00     0.038 A 
HETATM   13  H   UNL     1       8.972  23.291  58.272  1.00  0.00     0.169 HD
ENDROOT
BRANCH   2  14
HETATM   14  N   UNL     1       7.071  26.799  56.147  1.00  0.00    -0.375 N 
HETATM   15  C   UNL     1       6.107  27.275  57.159  1.00  0.00     0.137 C 
HETATM   16  C   UNL     1       6.299  28.771  57.437  1.00  0.00     0.096 C 
HETATM   17  C   UNL     1       6.217  29.563  56.121  1.00  0.00     0.017 C 
HETATM   18  C   UNL     1       7.126  28.981  55.035  1.00  0.00     0.021 C 
HETATM   19  C   UNL     1       6.900  27.482  54.854  1.00  0.00     0.123 C 
BRANCH  16  20
HETATM   20  C   UNL     1       7.582  29.073  58.217  1.00  0.00     0.223 C 
HETATM   21  N   UNL     1       7.467  30.082  59.147  1.00  0.00    -0.358 N 
HETATM   22  H   UNL     1       6.669  30.703  59.122  1.00  0.00     0.162 HD
HETATM   23  O   UNL     1       8.657  28.525  57.983  1.00  0.00    -0.273 OA
BRANCH  21  24
HETATM   24  C   UNL     1       8.579  30.500  59.983  1.00  0.00     0.154 C 
BRANCH  24  25
HETATM   25  C   UNL     1       8.219  31.696  60.859  1.00  0.00     0.139 C 
HETATM   26  O   UNL     1       6.794  31.722  61.100  1.00  0.00    -0.384 OA
HETATM   27  C   UNL     1       6.573  32.086  62.472  1.00  0.00     0.168 C 
HETATM   28  C   UNL     1       7.919  32.453  63.060  1.00  0.00     0.029 C 
HETATM   29  C   UNL     1       8.867  31.627  62.232  1.00  0.00     0.035 C 
ENDBRANCH  24  25
ENDBRANCH  21  24
ENDBRANCH  16  20
ENDBRANCH   2  14
BRANCH   1  30
HETATM   30  C   UNL     1       6.634  25.141  53.870  1.00  0.00    -0.023 A 
HETATM   31  C   UNL     1       7.409  25.547  52.777  1.00  0.00     0.012 A 
HETATM   32  C   UNL     1       6.799  26.035  51.621  1.00  0.00     0.001 A 
HETATM   33  C   UNL     1       5.409  26.117  51.548  1.00  0.00     0.000 A 
HETATM   34  C   UNL     1       4.628  25.708  52.628  1.00  0.00     0.001 A 
HETATM   35  C   UNL     1       5.237  25.218  53.785  1.00  0.00     0.012 A 
ENDBRANCH   1  30
TORSDOF 5
ENDMDL
MODEL 3
REMARK VINA RESULT:      -9.0      3.385      7.176
REMARK  5 active torsions:
REMARK  status: ('A' for Active; 'I' for Inactive)
REMARK    1  A    between atoms: C_4  and  C_5 
REMARK    2  A    between atoms: C_6  and  N_7 
REMARK    3  A    between atoms: C_9  and  C_10 
REMARK       I    between atoms: C_10  and  N_11 
REMARK    4  A    between atoms: N_11  and  C_12 
REMARK    5  A    between atoms: C_12  and  C_13 
ROOT
HETATM    1  C   UNL     1       5.482  27.046  52.600  1.00  0.00     0.019 A 
HETATM    2  C   UNL     1       5.389  27.826  53.710  1.00  0.00     0.111 A 
HETATM    3  C   UNL     1       4.553  29.102  53.645  1.00  0.00     0.273 A 
HETATM    4  O   UNL     1       4.447  29.876  54.597  1.00  0.00    -0.266 OA
HETATM    5  N   UNL     1       3.907  29.385  52.476  1.00  0.00    -0.321 N 
HETATM    6  C   UNL     1       3.966  28.582  51.343  1.00  0.00     0.046 A 
HETATM    7  C   UNL     1       4.736  27.415  51.366  1.00  0.00     0.006 A 
HETATM    8  C   UNL     1       3.245  28.958  50.206  1.00  0.00     0.032 A 
HETATM    9  C   UNL     1       3.280  28.152  49.069  1.00  0.00     0.026 A 
HETATM   10  C   UNL     1       4.036  26.982  49.079  1.00  0.00     0.035 A 
HETATM   11 CL   UNL     1       4.071  25.981  47.679  1.00  0.00    -0.084 Cl
HETATM   12  C   UNL     1       4.759  26.613  50.213  1.00  0.00     0.038 A 
HETATM   13  H   UNL     1       3.364  30.236  52.480  1.00  0.00     0.169 HD
ENDROOT
BRANCH   2  14
HETATM   14  N   UNL     1       6.024  27.533  54.941  1.00  0.00    -0.375 N 
HETATM   15  C   UNL     1       7.498  27.544  55.018  1.00  0.00     0.137 C 
HETATM   16  C   UNL     1       7.970  27.859  56.443  1.00  0.00     0.096 C 
HETATM   17  C   UNL     1       7.330  26.874  57.436  1.00  0.00     0.017 C 
HETATM   18  C   UNL     1       5.813  26.773  57.260  1.00  0.00     0.021 C 
HETATM   19  C   UNL     1       5.430  26.501  55.807  1.00  0.00     0.123 C 
BRANCH  16  20
HETATM   20  C   UNL     1       7.733  29.319  56.840  1.00  0.00     0.223 C 
HETATM   21  N   UNL     1       8.432  29.735  57.952  1.00  0.00    -0.358 N 
HETATM   22  H   UNL     1       8.862  29.052  58.562  1.00  0.00     0.162 HD
HETATM   23  O   UNL     1       6.922  30.048  56.274  1.00  0.00    -0.273 OA
BRANCH  21  24
HETATM   24  C   UNL     1       8.335  31.088  58.470  1.00  0.00     0.154 C 
BRANCH  24  25
HETATM   25  C   UNL     1       8.090  31.108  59.976  1.00  0.00     0.139 C 
HETATM   26  O   UNL     1       8.810  30.027  60.609  1.00  0.00    -0.384 OA
HETATM   27  C   UNL     1       9.376  30.517  61.835  1.00  0.00     0.168 C 
HETATM   28  C   UNL     1       8.849  31.921  62.042  1.00  0.00     0.029 C 
HETATM   29  C   UNL     1       8.600  32.382  60.630  1.00  0.00     0.035 C 
ENDBRANCH  24  25
ENDBRANCH  21  24
ENDBRANCH  16  20
ENDBRANCH   2  14
BRANCH   1  30
HETATM   30  C   UNL     1       6.305  25.812  52.686  1.00  0.00    -0.023 A 
HETATM   31  C   UNL     1       5.759  24.633  53.211  1.00  0.00     0.012 A 
HETATM   32  C   UNL     1       6.523  23.468  53.270  1.00  0.00     0.001 A 
HETATM   33  C   UNL     1       7.836  23.469  52.801  1.00  0.00     0.000 A 
HETATM   34  C   UNL     1       8.386  24.636  52.270  1.00  0.00     0.001 A 
HETATM   35  C   UNL     1       7.623  25.803  52.209  1.00  0.00     0.012 A 
ENDBRANCH   1  30
TORSDOF 5
ENDMDL
MODEL 4
REMARK VINA RESULT:      -8.8      3.229      7.890
REMARK  5 active torsions:
REMARK  status: ('A' for Active; 'I' for Inactive)
REMARK    1  A    between atoms: C_4  and  C_5 
REMARK    2  A    between atoms: C_6  and  N_7 
REMARK    3  A    between atoms: C_9  and  C_10 
REMARK       I    between atoms: C_10  and  N_11 
REMARK    4  A    between atoms: N_11  and  C_12 
REMARK    5  A    between atoms: C_12  and  C_13 
ROOT
HETATM    1  C   UNL     1       5.519  28.998  55.546  1.00  0.00     0.019 A 
HETATM    2  C   UNL     1       5.077  28.865  54.267  1.00  0.00     0.111 A 
HETATM    3  C   UNL     1       4.441  30.071  53.579  1.00  0.00     0.273 A 
HETATM    4  O   UNL     1       3.989  30.020  52.435  1.00  0.00    -0.266 OA
HETATM    5  N   UNL     1       4.374  31.243  54.275  1.00  0.00    -0.321 N 
HETATM    6  C   UNL     1       4.849  31.404  55.571  1.00  0.00     0.046 A 
HETATM    7  C   UNL     1       5.423  30.314  56.234  1.00  0.00     0.006 A 
HETATM    8  C   UNL     1       4.749  32.657  56.180  1.00  0.00     0.032 A 
HETATM    9  C   UNL     1       5.239  32.838  57.473  1.00  0.00     0.026 A 
HETATM   10  C   UNL     1       5.820  31.765  58.144  1.00  0.00     0.035 A 
HETATM   11 CL   UNL     1       6.435  31.989  59.736  1.00  0.00    -0.084 Cl
HETATM   12  C   UNL     1       5.913  30.513  57.534  1.00  0.00     0.038 A 
HETATM   13  H   UNL     1       3.949  32.013  53.779  1.00  0.00     0.169 HD
ENDROOT
BRANCH   2  14
HETATM   14  N   UNL     1       5.167  27.668  53.517  1.00  0.00    -0.375 N 
HETATM   15  C   UNL     1       6.048  27.617  52.333  1.00  0.00     0.137 C 
HETATM   16  C   UNL     1       6.522  26.183  52.064  1.00  0.00     0.096 C 
HETATM   17  C   UNL     1       5.309  25.245  51.943  1.00  0.00     0.017 C 
HETATM   18  C   UNL     1       4.334  25.400  53.113  1.00  0.00     0.021 C 
HETATM   19  C   UNL     1       3.949  26.860  53.338  1.00  0.00     0.123 C 
BRANCH  16  20
HETATM   20  C   UNL     1       7.537  25.687  53.097  1.00  0.00     0.223 C 
HETATM   21  N   UNL     1       7.382  24.371  53.474  1.00  0.00    -0.358 N 
HETATM   22  H   UNL     1       6.525  23.881  53.252  1.00  0.00     0.162 HD
HETATM   23  O   UNL     1       8.376  26.417  53.622  1.00  0.00    -0.273 OA
BRANCH  21  24
HETATM   24  C   UNL     1       8.257  23.729  54.439  1.00  0.00     0.154 C 
BRANCH  24  25
HETATM   25  C   UNL     1       8.848  22.430  53.900  1.00  0.00     0.139 C 
HETATM   26  O   UNL     1       9.045  21.490  54.980  1.00  0.00    -0.384 OA
HETATM   27  C   UNL     1       8.660  20.185  54.521  1.00  0.00     0.168 C 
HETATM   28  C   UNL     1       8.360  20.300  53.042  1.00  0.00     0.029 C 
HETATM   29  C   UNL     1       7.922  21.736  52.914  1.00  0.00     0.035 C 
ENDBRANCH  24  25
ENDBRANCH  21  24
ENDBRANCH  16  20
ENDBRANCH   2  14
BRANCH   1  30
HETATM   30  C   UNL     1       6.130  27.810  56.196  1.00  0.00    -0.023 A 
HETATM   31  C   UNL     1       7.505  27.778  56.462  1.00  0.00     0.012 A 
HETATM   32  C   UNL     1       8.075  26.673  57.093  1.00  0.00     0.001 A 
HETATM   33  C   UNL     1       7.277  25.594  57.468  1.00  0.00     0.000 A 
HETATM   34  C   UNL     1       5.906  25.619  57.215  1.00  0.00     0.001 A 
HETATM   35  C   UNL     1       5.332  26.724  56.584  1.00  0.00     0.012 A 
ENDBRANCH   1  30
TORSDOF 5
ENDMDL
MODEL 5
REMARK VINA RESULT:      -8.6      2.565      7.293
REMARK  5 active torsions:
REMARK  status: ('A' for Active; 'I' for Inactive)
REMARK    1  A    between atoms: C_4  and  C_5 
REMARK    2  A    between atoms: C_6  and  N_7 
REMARK    3  A    between atoms: C_9  and  C_10 
REMARK       I    between atoms: C_10  and  N_11 
REMARK    4  A    between atoms: N_11  and  C_12 
REMARK    5  A    between atoms: C_12  and  C_13 
ROOT
HETATM    1  C   UNL     1       4.907  27.926  52.817  1.00  0.00     0.019 A 
HETATM    2  C   UNL     1       4.826  28.517  54.039  1.00  0.00     0.111 A 
HETATM    3  C   UNL     1       3.865  29.687  54.229  1.00  0.00     0.273 A 
HETATM    4  O   UNL     1       3.759  30.293  55.295  1.00  0.00    -0.266 OA
HETATM    5  N   UNL     1       3.103  30.069  53.163  1.00  0.00    -0.321 N 
HETATM    6  C   UNL     1       3.151  29.456  51.916  1.00  0.00     0.046 A 
HETATM    7  C   UNL     1       4.032  28.391  51.706  1.00  0.00     0.006 A 
HETATM    8  C   UNL     1       2.307  29.915  50.901  1.00  0.00     0.032 A 
HETATM    9  C   UNL     1       2.330  29.298  49.652  1.00  0.00     0.026 A 
HETATM   10  C   UNL     1       3.197  28.230  49.429  1.00  0.00     0.035 A 
HETATM   11 CL   UNL     1       3.220  27.460  47.890  1.00  0.00    -0.084 Cl
HETATM   12  C   UNL     1       4.042  27.778  50.443  1.00  0.00     0.038 A 
HETATM   13  H   UNL     1       2.480  30.844  53.336  1.00  0.00     0.169 HD
ENDROOT
BRANCH   2  14
HETATM   14  N   UNL     1       5.584  28.115  55.166  1.00  0.00    -0.375 N 
HETATM   15  C   UNL     1       4.936  27.326  56.232  1.00  0.00     0.137 C 
HETATM   16  C   UNL     1       5.963  26.461  56.975  1.00  0.00     0.096 C 
HETATM   17  C   UNL     1       7.109  27.343  57.500  1.00  0.00     0.017 C 
HETATM   18  C   UNL     1       7.687  28.253  56.413  1.00  0.00     0.021 C 
HETATM   19  C   UNL     1       6.595  29.044  55.697  1.00  0.00     0.123 C 
BRANCH  16  20
HETATM   20  C   UNL     1       6.474  25.288  56.133  1.00  0.00     0.223 C 
HETATM   21  N   UNL     1       7.809  24.993  56.304  1.00  0.00    -0.358 N 
HETATM   22  H   UNL     1       8.417  25.658  56.764  1.00  0.00     0.162 HD
HETATM   23  O   UNL     1       5.781  24.702  55.304  1.00  0.00    -0.273 OA
BRANCH  21  24
HETATM   24  C   UNL     1       8.463  23.910  55.593  1.00  0.00     0.154 C 
BRANCH  24  25
HETATM   25  C   UNL     1       7.720  22.586  55.757  1.00  0.00     0.139 C 
HETATM   26  O   UNL     1       7.633  21.907  54.484  1.00  0.00    -0.384 OA
HETATM   27  C   UNL     1       7.865  20.506  54.703  1.00  0.00     0.168 C 
HETATM   28  C   UNL     1       7.943  20.293  56.200  1.00  0.00     0.029 C 
HETATM   29  C   UNL     1       8.443  21.627  56.688  1.00  0.00     0.035 C 
ENDBRANCH  24  25
ENDBRANCH  21  24
ENDBRANCH  16  20
ENDBRANCH   2  14
BRANCH   1  30
HETATM   30  C   UNL     1       5.853  26.791  52.655  1.00  0.00    -0.023 A 
HETATM   31  C   UNL     1       5.383  25.527  52.281  1.00  0.00     0.012 A 
HETATM   32  C   UNL     1       6.273  24.467  52.106  1.00  0.00     0.001 A 
HETATM   33  C   UNL     1       7.639  24.664  52.299  1.00  0.00     0.000 A 
HETATM   34  C   UNL     1       8.118  25.922  52.663  1.00  0.00     0.001 A 
HETATM   35  C   UNL     1       7.229  26.984  52.838  1.00  0.00     0.012 A 
ENDBRANCH   1  30
TORSDOF 5
ENDMDL
MODEL 6
REMARK VINA RESULT:      -8.5      2.696      4.693
REMARK  5 active torsions:
REMARK  status: ('A' for Active; 'I' for Inactive)
REMARK    1  A    between atoms: C_4  and  C_5 
REMARK    2  A    between atoms: C_6  and  N_7 
REMARK    3  A    between atoms: C_9  and  C_10 
REMARK       I    between atoms: C_10  and  N_11 
REMARK    4  A    between atoms: N_11  and  C_12 
REMARK    5  A    between atoms: C_12  and  C_13 
ROOT
HETATM    1  C   UNL     1       6.131  26.491  54.004  1.00  0.00     0.019 A 
HETATM    2  C   UNL     1       5.550  26.696  52.792  1.00  0.00     0.111 A 
HETATM    3  C   UNL     1       5.596  25.577  51.755  1.00  0.00     0.273 A 
HETATM    4  O   UNL     1       5.122  25.699  50.625  1.00  0.00    -0.266 OA
HETATM    5  N   UNL     1       6.197  24.403  52.106  1.00  0.00    -0.321 N 
HETATM    6  C   UNL     1       6.768  24.166  53.351  1.00  0.00     0.046 A 
HETATM    7  C   UNL     1       6.755  25.176  54.317  1.00  0.00     0.006 A 
HETATM    8  C   UNL     1       7.336  22.916  53.611  1.00  0.00     0.032 A 
HETATM    9  C   UNL     1       7.895  22.658  54.861  1.00  0.00     0.026 A 
HETATM   10  C   UNL     1       7.883  23.651  55.838  1.00  0.00     0.035 A 
HETATM   11 CL   UNL     1       8.564  23.330  57.386  1.00  0.00    -0.084 Cl
HETATM   12  C   UNL     1       7.320  24.900  55.573  1.00  0.00     0.038 A 
HETATM   13  H   UNL     1       6.201  23.691  51.390  1.00  0.00     0.169 HD
ENDROOT
BRANCH   2  14
HETATM   14  N   UNL     1       4.894  27.894  52.420  1.00  0.00    -0.375 N 
HETATM   15  C   UNL     1       5.686  29.125  52.226  1.00  0.00     0.137 C 
HETATM   16  C   UNL     1       4.989  30.076  51.245  1.00  0.00     0.096 C 
HETATM   17  C   UNL     1       3.554  30.361  51.720  1.00  0.00     0.017 C 
HETATM   18  C   UNL     1       2.783  29.078  52.042  1.00  0.00     0.021 C 
HETATM   19  C   UNL     1       3.566  28.172  52.990  1.00  0.00     0.123 C 
BRANCH  16  20
HETATM   20  C   UNL     1       5.032  29.575  49.798  1.00  0.00     0.223 C 
HETATM   21  N   UNL     1       4.104  30.153  48.960  1.00  0.00    -0.358 N 
HETATM   22  H   UNL     1       3.329  30.675  49.348  1.00  0.00     0.162 HD
HETATM   23  O   UNL     1       5.772  28.670  49.421  1.00  0.00    -0.273 OA
BRANCH  21  24
HETATM   24  C   UNL     1       4.004  29.805  47.554  1.00  0.00     0.154 C 
BRANCH  24  25
HETATM   25  C   UNL     1       2.892  28.792  47.293  1.00  0.00     0.139 C 
HETATM   26  O   UNL     1       3.429  27.450  47.321  1.00  0.00    -0.384 OA
HETATM   27  C   UNL     1       2.495  26.603  48.009  1.00  0.00     0.168 C 
HETATM   28  C   UNL     1       1.256  27.429  48.279  1.00  0.00     0.029 C 
HETATM   29  C   UNL     1       1.813  28.826  48.363  1.00  0.00     0.035 C 
ENDBRANCH  24  25
ENDBRANCH  21  24
ENDBRANCH  16  20
ENDBRANCH   2  14
BRANCH   1  30
HETATM   30  C   UNL     1       6.076  27.596  54.996  1.00  0.00    -0.023 A 
HETATM   31  C   UNL     1       4.963  27.740  55.833  1.00  0.00     0.012 A 
HETATM   32  C   UNL     1       4.922  28.762  56.781  1.00  0.00     0.001 A 
HETATM   33  C   UNL     1       5.993  29.646  56.903  1.00  0.00     0.000 A 
HETATM   34  C   UNL     1       7.110  29.505  56.079  1.00  0.00     0.001 A 
HETATM   35  C   UNL     1       7.154  28.482  55.130  1.00  0.00     0.012 A 
ENDBRANCH   1  30
TORSDOF 5
ENDMDL
MODEL 7
REMARK VINA RESULT:      -8.2     10.307     14.488
REMARK  5 active torsions:
REMARK  status: ('A' for Active; 'I' for Inactive)
REMARK    1  A    between atoms: C_4  and  C_5 
REMARK    2  A    between atoms: C_6  and  N_7 
REMARK    3  A    between atoms: C_9  and  C_10 
REMARK       I    between atoms: C_10  and  N_11 
REMARK    4  A    between atoms: N_11  and  C_12 
REMARK    5  A    between atoms: C_12  and  C_13 
ROOT
HETATM    1  C   UNL     1       5.031  37.253  61.807  1.00  0.00     0.019 A 
HETATM    2  C   UNL     1       4.423  36.795  60.679  1.00  0.00     0.111 A 
HETATM    3  C   UNL     1       4.499  37.637  59.408  1.00  0.00     0.273 A 
HETATM    4  O   UNL     1       3.947  37.305  58.358  1.00  0.00    -0.266 OA
HETATM    5  N   UNL     1       5.205  38.803  59.454  1.00  0.00    -0.321 N 
HETATM    6  C   UNL     1       5.859  39.270  60.589  1.00  0.00     0.046 A 
HETATM    7  C   UNL     1       5.796  38.530  61.773  1.00  0.00     0.006 A 
HETATM    8  C   UNL     1       6.574  40.469  60.516  1.00  0.00     0.032 A 
HETATM    9  C   UNL     1       7.250  40.939  61.640  1.00  0.00     0.026 A 
HETATM   10  C   UNL     1       7.203  40.209  62.825  1.00  0.00     0.035 A 
HETATM   11 CL   UNL     1       8.046  40.783  64.212  1.00  0.00    -0.084 Cl
HETATM   12  C   UNL     1       6.484  39.015  62.896  1.00  0.00     0.038 A 
HETATM   13  H   UNL     1       5.231  39.325  58.590  1.00  0.00     0.169 HD
ENDROOT
BRANCH   2  14
HETATM   14  N   UNL     1       3.713  35.572  60.602  1.00  0.00    -0.375 N 
HETATM   15  C   UNL     1       4.281  34.450  59.829  1.00  0.00     0.137 C 
HETATM   16  C   UNL     1       3.777  33.105  60.366  1.00  0.00     0.096 C 
HETATM   17  C   UNL     1       2.239  33.092  60.388  1.00  0.00     0.017 C 
HETATM   18  C   UNL     1       1.658  34.328  61.080  1.00  0.00     0.021 C 
HETATM   19  C   UNL     1       2.244  35.620  60.515  1.00  0.00     0.123 C 
BRANCH  16  20
HETATM   20  C   UNL     1       4.380  32.742  61.726  1.00  0.00     0.223 C 
HETATM   21  N   UNL     1       5.621  32.147  61.667  1.00  0.00    -0.358 N 
HETATM   22  H   UNL     1       5.963  31.781  60.788  1.00  0.00     0.162 HD
HETATM   23  O   UNL     1       3.780  32.887  62.789  1.00  0.00    -0.273 OA
BRANCH  21  24
HETATM   24  C   UNL     1       6.347  31.741  62.857  1.00  0.00     0.154 C 
BRANCH  24  25
HETATM   25  C   UNL     1       7.857  31.863  62.676  1.00  0.00     0.139 C 
HETATM   26  O   UNL     1       8.466  30.552  62.700  1.00  0.00    -0.384 OA
HETATM   27  C   UNL     1       9.485  30.508  61.689  1.00  0.00     0.168 C 
HETATM   28  C   UNL     1       9.615  31.906  61.123  1.00  0.00     0.029 C 
HETATM   29  C   UNL     1       8.234  32.468  61.334  1.00  0.00     0.035 C 
ENDBRANCH  24  25
ENDBRANCH  21  24
ENDBRANCH  16  20
ENDBRANCH   2  14
BRANCH   1  30
HETATM   30  C   UNL     1       4.940  36.418  63.032  1.00  0.00    -0.023 A 
HETATM   31  C   UNL     1       5.993  35.565  63.387  1.00  0.00     0.012 A 
HETATM   32  C   UNL     1       5.919  34.799  64.550  1.00  0.00     0.001 A 
HETATM   33  C   UNL     1       4.794  34.883  65.370  1.00  0.00     0.000 A 
HETATM   34  C   UNL     1       3.744  35.735  65.030  1.00  0.00     0.001 A 
HETATM   35  C   UNL     1       3.817  36.504  63.867  1.00  0.00     0.012 A 
ENDBRANCH   1  30
TORSDOF 5
ENDMDL
MODEL 8
REMARK VINA RESULT:      -8.1     10.844     14.198
REMARK  5 active torsions:
REMARK  status: ('A' for Active; 'I' for Inactive)
REMARK    1  A    between atoms: C_4  and  C_5 
REMARK    2  A    between atoms: C_6  and  N_7 
REMARK    3  A    between atoms: C_9  and  C_10 
REMARK       I    between atoms: C_10  and  N_11 
REMARK    4  A    between atoms: N_11  and  C_12 
REMARK    5  A    between atoms: C_12  and  C_13 
ROOT
HETATM    1  C   UNL     1       5.636  33.431  62.200  1.00  0.00     0.019 A 
HETATM    2  C   UNL     1       5.981  33.690  63.490  1.00  0.00     0.111 A 
HETATM    3  C   UNL     1       7.212  33.004  64.076  1.00  0.00     0.273 A 
HETATM    4  O   UNL     1       7.569  33.162  65.244  1.00  0.00    -0.266 OA
HETATM    5  N   UNL     1       7.933  32.179  63.262  1.00  0.00    -0.321 N 
HETATM    6  C   UNL     1       7.613  31.928  61.932  1.00  0.00     0.046 A 
HETATM    7  C   UNL     1       6.483  32.530  61.371  1.00  0.00     0.006 A 
HETATM    8  C   UNL     1       8.437  31.083  61.184  1.00  0.00     0.032 A 
HETATM    9  C   UNL     1       8.139  30.837  59.844  1.00  0.00     0.026 A 
HETATM   10  C   UNL     1       7.021  31.436  59.268  1.00  0.00     0.035 A 
HETATM   11 CL   UNL     1       6.657  31.141  57.612  1.00  0.00    -0.084 Cl
HETATM   12  C   UNL     1       6.197  32.274  60.020  1.00  0.00     0.038 A 
HETATM   13  H   UNL     1       8.740  31.750  63.690  1.00  0.00     0.169 HD
ENDROOT
BRANCH   2  14
HETATM   14  N   UNL     1       5.265  34.567  64.341  1.00  0.00    -0.375 N 
HETATM   15  C   UNL     1       3.969  34.136  64.903  1.00  0.00     0.137 C 
HETATM   16  C   UNL     1       3.682  34.853  66.228  1.00  0.00     0.096 C 
HETATM   17  C   UNL     1       3.767  36.376  66.029  1.00  0.00     0.017 C 
HETATM   18  C   UNL     1       5.059  36.800  65.327  1.00  0.00     0.021 C 
HETATM   19  C   UNL     1       5.290  36.008  64.042  1.00  0.00     0.123 C 
BRANCH  16  20
HETATM   20  C   UNL     1       4.574  34.367  67.374  1.00  0.00     0.223 C 
HETATM   21  N   UNL     1       5.867  34.840  67.339  1.00  0.00    -0.358 N 
HETATM   22  H   UNL     1       6.225  35.268  66.495  1.00  0.00     0.162 HD
HETATM   23  O   UNL     1       4.204  33.552  68.216  1.00  0.00    -0.273 OA
BRANCH  21  24
HETATM   24  C   UNL     1       6.852  34.489  68.347  1.00  0.00     0.154 C 
BRANCH  24  25
HETATM   25  C   UNL     1       6.869  35.487  69.502  1.00  0.00     0.139 C 
HETATM   26  O   UNL     1       5.964  35.054  70.543  1.00  0.00    -0.384 OA
HETATM   27  C   UNL     1       6.589  35.293  71.813  1.00  0.00     0.168 C 
HETATM   28  C   UNL     1       7.872  36.051  71.547  1.00  0.00     0.029 C 
HETATM   29  C   UNL     1       8.235  35.589  70.160  1.00  0.00     0.035 C 
ENDBRANCH  24  25
ENDBRANCH  21  24
ENDBRANCH  16  20
ENDBRANCH   2  14
BRANCH   1  30
HETATM   30  C   UNL     1       4.432  34.108  61.654  1.00  0.00    -0.023 A 
HETATM   31  C   UNL     1       4.550  35.339  60.997  1.00  0.00     0.012 A 
HETATM   32  C   UNL     1       3.423  35.963  60.462  1.00  0.00     0.001 A 
HETATM   33  C   UNL     1       2.171  35.361  60.576  1.00  0.00     0.000 A 
HETATM   34  C   UNL     1       2.045  34.131  61.222  1.00  0.00     0.001 A 
HETATM   35  C   UNL     1       3.171  33.504  61.757  1.00  0.00     0.012 A 
ENDBRANCH   1  30
TORSDOF 5
ENDMDL
MODEL 9
REMARK VINA RESULT:      -8.1      9.686     13.248
REMARK  5 active torsions:
REMARK  status: ('A' for Active; 'I' for Inactive)
REMARK    1  A    between atoms: C_4  and  C_5 
REMARK    2  A    between atoms: C_6  and  N_7 
REMARK    3  A    between atoms: C_9  and  C_10 
REMARK       I    between atoms: C_10  and  N_11 
REMARK    4  A    between atoms: N_11  and  C_12 
REMARK    5  A    between atoms: C_12  and  C_13 
ROOT
HETATM    1  C   UNL     1       4.844  33.700  60.249  1.00  0.00     0.019 A 
HETATM    2  C   UNL     1       5.403  33.742  61.488  1.00  0.00     0.111 A 
HETATM    3  C   UNL     1       6.510  32.748  61.831  1.00  0.00     0.273 A 
HETATM    4  O   UNL     1       7.041  32.702  62.941  1.00  0.00    -0.266 OA
HETATM    5  N   UNL     1       6.912  31.877  60.860  1.00  0.00    -0.321 N 
HETATM    6  C   UNL     1       6.373  31.842  59.579  1.00  0.00     0.046 A 
HETATM    7  C   UNL     1       5.348  32.729  59.239  1.00  0.00     0.006 A 
HETATM    8  C   UNL     1       6.878  30.923  58.655  1.00  0.00     0.032 A 
HETATM    9  C   UNL     1       6.361  30.889  57.361  1.00  0.00     0.026 A 
HETATM   10  C   UNL     1       5.344  31.772  57.005  1.00  0.00     0.035 A 
HETATM   11 CL   UNL     1       4.712  31.738  55.404  1.00  0.00    -0.084 Cl
HETATM   12  C   UNL     1       4.839  32.684  57.931  1.00  0.00     0.038 A 
HETATM   13  H   UNL     1       7.648  31.241  61.131  1.00  0.00     0.169 HD
ENDROOT
BRANCH   2  14
HETATM   14  N   UNL     1       5.023  34.658  62.499  1.00  0.00    -0.375 N 
HETATM   15  C   UNL     1       3.628  34.668  62.982  1.00  0.00     0.137 C 
HETATM   16  C   UNL     1       3.551  35.189  64.423  1.00  0.00     0.096 C 
HETATM   17  C   UNL     1       4.223  36.570  64.518  1.00  0.00     0.017 C 
HETATM   18  C   UNL     1       5.621  36.579  63.895  1.00  0.00     0.021 C 
HETATM   19  C   UNL     1       5.614  36.006  62.480  1.00  0.00     0.123 C 
BRANCH  16  20
HETATM   20  C   UNL     1       4.115  34.198  65.445  1.00  0.00     0.223 C 
HETATM   21  N   UNL     1       4.110  34.647  66.747  1.00  0.00    -0.358 N 
HETATM   22  H   UNL     1       3.965  35.629  66.941  1.00  0.00     0.162 HD
HETATM   23  O   UNL     1       4.615  33.119  65.133  1.00  0.00    -0.273 OA
BRANCH  21  24
HETATM   24  C   UNL     1       4.601  33.840  67.850  1.00  0.00     0.154 C 
BRANCH  24  25
HETATM   25  C   UNL     1       5.578  34.611  68.733  1.00  0.00     0.139 C 
HETATM   26  O   UNL     1       5.651  34.001  70.042  1.00  0.00    -0.384 OA
HETATM   27  C   UNL     1       7.023  34.003  70.466  1.00  0.00     0.168 C 
HETATM   28  C   UNL     1       7.808  34.792  69.440  1.00  0.00     0.029 C 
HETATM   29  C   UNL     1       6.996  34.588  68.188  1.00  0.00     0.035 C 
ENDBRANCH  24  25
ENDBRANCH  21  24
ENDBRANCH  16  20
ENDBRANCH   2  14
BRANCH   1  30
HETATM   30  C   UNL     1       3.766  34.674  59.940  1.00  0.00    -0.023 A 
HETATM   31  C   UNL     1       4.081  35.935  59.419  1.00  0.00     0.012 A 
HETATM   32  C   UNL     1       3.068  36.842  59.106  1.00  0.00     0.001 A 
HETATM   33  C   UNL     1       1.733  36.493  59.307  1.00  0.00     0.000 A 
HETATM   34  C   UNL     1       1.409  35.237  59.818  1.00  0.00     0.001 A 
HETATM   35  C   UNL     1       2.421  34.328  60.130  1.00  0.00     0.012 A 
ENDBRANCH   1  30
TORSDOF 5
ENDMDL
MODEL 10
REMARK VINA RESULT:      -7.9      9.670     12.298
REMARK  5 active torsions:
REMARK  status: ('A' for Active; 'I' for Inactive)
REMARK    1  A    between atoms: C_4  and  C_5 
REMARK    2  A    between atoms: C_6  and  N_7 
REMARK    3  A    between atoms: C_9  and  C_10 
REMARK       I    between atoms: C_10  and  N_11 
REMARK    4  A    between atoms: N_11  and  C_12 
REMARK    5  A    between atoms: C_12  and  C_13 
ROOT
HETATM    1  C   UNL     1       5.948  32.999  61.745  1.00  0.00     0.019 A 
HETATM    2  C   UNL     1       6.229  33.359  63.027  1.00  0.00     0.111 A 
HETATM    3  C   UNL     1       7.470  32.778  63.699  1.00  0.00     0.273 A 
HETATM    4  O   UNL     1       7.772  33.030  64.866  1.00  0.00    -0.266 OA
HETATM    5  N   UNL     1       8.264  31.944  62.967  1.00  0.00    -0.321 N 
HETATM    6  C   UNL     1       8.009  31.592  61.646  1.00  0.00     0.046 A 
HETATM    7  C   UNL     1       6.872  32.095  61.007  1.00  0.00     0.006 A 
HETATM    8  C   UNL     1       8.904  30.747  60.984  1.00  0.00     0.032 A 
HETATM    9  C   UNL     1       8.671  30.401  59.654  1.00  0.00     0.026 A 
HETATM   10  C   UNL     1       7.547  30.900  59.001  1.00  0.00     0.035 A 
HETATM   11 CL   UNL     1       7.264  30.481  57.356  1.00  0.00    -0.084 Cl
HETATM   12  C   UNL     1       6.652  31.738  59.667  1.00  0.00     0.038 A 
HETATM   13  H   UNL     1       9.075  31.587  63.451  1.00  0.00     0.169 HD
ENDROOT
BRANCH   2  14
HETATM   14  N   UNL     1       5.436  34.248  63.792  1.00  0.00    -0.375 N 
HETATM   15  C   UNL     1       6.047  35.473  64.345  1.00  0.00     0.137 C 
HETATM   16  C   UNL     1       4.992  36.569  64.542  1.00  0.00     0.096 C 
HETATM   17  C   UNL     1       3.839  36.037  65.410  1.00  0.00     0.017 C 
HETATM   18  C   UNL     1       3.299  34.698  64.901  1.00  0.00     0.021 C 
HETATM   19  C   UNL     1       4.418  33.680  64.691  1.00  0.00     0.123 C 
BRANCH  16  20
HETATM   20  C   UNL     1       4.497  37.165  63.221  1.00  0.00     0.223 C 
HETATM   21  N   UNL     1       5.474  37.767  62.458  1.00  0.00    -0.358 N 
HETATM   22  H   UNL     1       6.371  37.988  62.871  1.00  0.00     0.162 HD
HETATM   23  O   UNL     1       3.313  37.187  62.894  1.00  0.00    -0.273 OA
BRANCH  21  24
HETATM   24  C   UNL     1       5.189  38.380  61.173  1.00  0.00     0.154 C 
BRANCH  24  25
HETATM   25  C   UNL     1       5.727  39.805  61.087  1.00  0.00     0.139 C 
HETATM   26  O   UNL     1       4.962  40.676  61.951  1.00  0.00    -0.384 OA
HETATM   27  C   UNL     1       5.870  41.577  62.604  1.00  0.00     0.168 C 
HETATM   28  C   UNL     1       7.238  41.354  61.995  1.00  0.00     0.029 C 
HETATM   29  C   UNL     1       7.166  39.913  61.563  1.00  0.00     0.035 C 
ENDBRANCH  24  25
ENDBRANCH  21  24
ENDBRANCH  16  20
ENDBRANCH   2  14
BRANCH   1  30
HETATM   30  C   UNL     1       4.733  33.574  61.113  1.00  0.00    -0.023 A 
HETATM   31  C   UNL     1       3.500  32.919  61.226  1.00  0.00     0.012 A 
HETATM   32  C   UNL     1       2.353  33.471  60.654  1.00  0.00     0.001 A 
HETATM   33  C   UNL     1       2.429  34.682  59.969  1.00  0.00     0.000 A 
HETATM   34  C   UNL     1       3.651  35.346  59.857  1.00  0.00     0.001 A 
HETATM   35  C   UNL     1       4.799  34.797  60.430  1.00  0.00     0.012 A 
ENDBRANCH   1  30
TORSDOF 5
ENDMDL
