MODEL 1
REMARK VINA RESULT:      -9.4      0.000      0.000
REMARK  6 active torsions:
REMARK  status: ('A' for Active; 'I' for Inactive)
REMARK    1  A    between atoms: C_4  and  C_5 
REMARK    2  A    between atoms: C_6  and  C_7 
REMARK    3  A    between atoms: C_7  and  C_8 
REMARK    4  A    between atoms: C_8  and  C_9 
REMARK       I    between atoms: C_9  and  N_10 
REMARK    5  A    between atoms: N_10  and  C_11 
REMARK    6  A    between atoms: C_18  and  C_19 
REMARK       I    between atoms: C_19  and  N_20 
ROOT
HETATM    1  C   UNL     1       7.904  28.663  57.008  1.00  0.00     0.035 A 
HETATM    2  C   UNL     1       7.487  29.512  58.044  1.00  0.00     0.046 A 
HETATM    3  C   UNL     1       8.352  30.532  58.500  1.00  0.00     0.030 A 
HETATM    4  C   UNL     1       9.607  30.657  57.918  1.00  0.00     0.063 A 
HETATM    5  N   UNL     1      10.205  31.702  58.564  1.00  0.00    -0.277 N 
HETATM    6  H   UNL     1      11.135  32.072  58.402  1.00  0.00     0.189 HD
HETATM    7  N   UNL     1       9.445  32.283  59.505  1.00  0.00    -0.168 NA
HETATM    8  C   UNL     1       8.293  31.573  59.475  1.00  0.00     0.156 A 
HETATM    9  C   UNL     1      10.055  29.829  56.887  1.00  0.00     0.034 A 
HETATM   10  C   UNL     1       9.174  28.837  56.441  1.00  0.00     0.032 A 
ENDROOT
BRANCH   1  11
HETATM   11  N   UNL     1       7.106  27.631  56.468  1.00  0.00    -0.327 N 
HETATM   12  C   UNL     1       6.064  27.753  55.568  1.00  0.00     0.222 C 
HETATM   13  O   UNL     1       5.626  28.800  55.102  1.00  0.00    -0.273 OA
HETATM   14  H   UNL     1       7.304  26.702  56.813  1.00  0.00     0.169 HD
BRANCH  12  15
HETATM   15  C   UNL     1       5.483  26.420  55.118  1.00  0.00     0.107 C 
BRANCH  15  16
HETATM   16  C   UNL     1       5.981  25.912  53.765  1.00  0.00     0.036 C 
BRANCH  16  17
HETATM   17  C   UNL     1       6.551  24.521  53.680  1.00  0.00    -0.025 C 
HETATM   18  C   UNL     1       7.050  23.780  54.682  1.00  0.00     0.007 C 
BRANCH  18  19
HETATM   19  C   UNL     1       7.601  22.430  54.493  1.00  0.00    -0.036 A 
HETATM   20  C   UNL     1       7.900  21.998  53.194  1.00  0.00     0.011 A 
HETATM   21  C   UNL     1       8.446  20.730  52.975  1.00  0.00     0.001 A 
HETATM   22  C   UNL     1       8.708  19.887  54.053  1.00  0.00     0.000 A 
HETATM   23  C   UNL     1       8.431  20.313  55.351  1.00  0.00     0.001 A 
HETATM   24  C   UNL     1       7.885  21.580  55.570  1.00  0.00     0.011 A 
ENDBRANCH  18  19
ENDBRANCH  16  17
ENDBRANCH  15  16
ENDBRANCH  12  15
ENDBRANCH   1  11
BRANCH   8  25
HETATM   25  C   UNL     1       7.173  31.911  60.363  1.00  0.00     0.270 C 
HETATM   26  N   UNL     1       7.153  31.199  61.532  1.00  0.00    -0.365 N 
HETATM   27  H   UNL     1       7.890  30.525  61.702  1.00  0.00     0.159 HD
HETATM   28  H   UNL     1       6.431  31.375  62.212  1.00  0.00     0.159 HD
HETATM   29  O   UNL     1       6.315  32.753  60.121  1.00  0.00    -0.266 OA
ENDBRANCH   8  25
TORSDOF 6
ENDMDL
MODEL 2
REMARK VINA RESULT:      -9.2      4.518     10.565
REMARK  6 active torsions:
REMARK  status: ('A' for Active; 'I' for Inactive)
REMARK    1  A    between atoms: C_4  and  C_5 
REMARK    2  A    between atoms: C_6  and  C_7 
REMARK    3  A    between atoms: C_7  and  C_8 
REMARK    4  A    between atoms: C_8  and  C_9 
REMARK       I    between atoms: C_9  and  N_10 
REMARK    5  A    between atoms: N_10  and  C_11 
REMARK    6  A    between atoms: C_18  and  C_19 
REMARK       I    between atoms: C_19  and  N_20 
ROOT
HETATM    1  C   UNL     1       8.738  29.983  58.389  1.00  0.00     0.035 A 
HETATM    2  C   UNL     1       7.439  29.632  57.995  1.00  0.00     0.046 A 
HETATM    3  C   UNL     1       7.209  29.180  56.675  1.00  0.00     0.030 A 
HETATM    4  C   UNL     1       8.281  29.111  55.794  1.00  0.00     0.063 A 
HETATM    5  N   UNL     1       7.755  28.660  54.617  1.00  0.00    -0.277 N 
HETATM    6  H   UNL     1       8.250  28.495  53.747  1.00  0.00     0.189 HD
HETATM    7  N   UNL     1       6.437  28.410  54.655  1.00  0.00    -0.168 NA
HETATM    8  C   UNL     1       6.084  28.724  55.923  1.00  0.00     0.156 A 
HETATM    9  C   UNL     1       9.586  29.454  56.152  1.00  0.00     0.034 A 
HETATM   10  C   UNL     1       9.790  29.883  57.469  1.00  0.00     0.032 A 
ENDROOT
BRANCH   1  11
HETATM   11  N   UNL     1       9.073  30.424  59.688  1.00  0.00    -0.327 N 
HETATM   12  C   UNL     1       9.259  31.726  60.115  1.00  0.00     0.222 C 
HETATM   13  O   UNL     1       9.193  32.734  59.420  1.00  0.00    -0.273 OA
HETATM   14  H   UNL     1       9.230  29.694  60.368  1.00  0.00     0.169 HD
BRANCH  12  15
HETATM   15  C   UNL     1       9.516  31.849  61.611  1.00  0.00     0.107 C 
BRANCH  15  16
HETATM   16  C   UNL     1       8.420  31.280  62.513  1.00  0.00     0.036 C 
BRANCH  16  17
HETATM   17  C   UNL     1       7.474  32.235  63.190  1.00  0.00    -0.025 C 
HETATM   18  C   UNL     1       7.748  33.079  64.199  1.00  0.00     0.007 C 
BRANCH  18  19
HETATM   19  C   UNL     1       6.744  33.965  64.806  1.00  0.00    -0.036 A 
HETATM   20  C   UNL     1       6.026  34.839  63.980  1.00  0.00     0.011 A 
HETATM   21  C   UNL     1       5.048  35.680  64.517  1.00  0.00     0.001 A 
HETATM   22  C   UNL     1       4.771  35.647  65.882  1.00  0.00     0.000 A 
HETATM   23  C   UNL     1       5.466  34.769  66.710  1.00  0.00     0.001 A 
HETATM   24  C   UNL     1       6.445  33.928  66.174  1.00  0.00     0.011 A 
ENDBRANCH  18  19
ENDBRANCH  16  17
ENDBRANCH  15  16
ENDBRANCH  12  15
ENDBRANCH   1  11
BRANCH   8  25
HETATM   25  C   UNL     1       4.698  28.571  56.384  1.00  0.00     0.270 C 
HETATM   26  N   UNL     1       4.330  27.275  56.625  1.00  0.00    -0.365 N 
HETATM   27  H   UNL     1       5.016  26.543  56.486  1.00  0.00     0.159 HD
HETATM   28  H   UNL     1       3.402  27.074  56.962  1.00  0.00     0.159 HD
HETATM   29  O   UNL     1       3.911  29.495  56.557  1.00  0.00    -0.266 OA
ENDBRANCH   8  25
TORSDOF 6
ENDMDL
MODEL 3
REMARK VINA RESULT:      -9.1      3.927      6.802
REMARK  6 active torsions:
REMARK  status: ('A' for Active; 'I' for Inactive)
REMARK    1  A    between atoms: C_4  and  C_5 
REMARK    2  A    between atoms: C_6  and  C_7 
REMARK    3  A    between atoms: C_7  and  C_8 
REMARK    4  A    between atoms: C_8  and  C_9 
REMARK       I    between atoms: C_9  and  N_10 
REMARK    5  A    between atoms: N_10  and  C_11 
REMARK    6  A    between atoms: C_18  and  C_19 
REMARK       I    between atoms: C_19  and  N_20 
ROOT
HETATM    1  C   UNL     1       6.251  26.463  53.743  1.00  0.00     0.035 A 
HETATM    2  C   UNL     1       6.041  27.490  52.812  1.00  0.00     0.046 A 
HETATM    3  C   UNL     1       5.382  27.204  51.595  1.00  0.00     0.030 A 
HETATM    4  C   UNL     1       4.973  25.900  51.345  1.00  0.00     0.063 A 
HETATM    5  N   UNL     1       4.389  25.933  50.109  1.00  0.00    -0.277 N 
HETATM    6  H   UNL     1       3.981  25.156  49.603  1.00  0.00     0.189 HD
HETATM    7  N   UNL     1       4.365  27.147  49.538  1.00  0.00    -0.168 NA
HETATM    8  C   UNL     1       4.972  27.946  50.446  1.00  0.00     0.156 A 
HETATM    9  C   UNL     1       5.167  24.853  52.247  1.00  0.00     0.034 A 
HETATM   10  C   UNL     1       5.807  25.166  53.452  1.00  0.00     0.032 A 
ENDROOT
BRANCH   1  11
HETATM   11  N   UNL     1       6.878  26.651  54.995  1.00  0.00    -0.327 N 
HETATM   12  C   UNL     1       6.283  26.665  56.242  1.00  0.00     0.222 C 
HETATM   13  O   UNL     1       5.085  26.545  56.477  1.00  0.00    -0.273 OA
HETATM   14  H   UNL     1       7.872  26.832  54.960  1.00  0.00     0.169 HD
BRANCH  12  15
HETATM   15  C   UNL     1       7.273  26.794  57.391  1.00  0.00     0.107 C 
BRANCH  15  16
HETATM   16  C   UNL     1       8.098  25.541  57.690  1.00  0.00     0.036 C 
BRANCH  16  17
HETATM   17  C   UNL     1       7.951  24.347  56.786  1.00  0.00    -0.025 C 
HETATM   18  C   UNL     1       8.892  23.796  56.001  1.00  0.00     0.007 C 
BRANCH  18  19
HETATM   19  C   UNL     1       8.644  22.633  55.138  1.00  0.00    -0.036 A 
HETATM   20  C   UNL     1       8.642  21.354  55.710  1.00  0.00     0.011 A 
HETATM   21  C   UNL     1       8.387  20.226  54.926  1.00  0.00     0.001 A 
HETATM   22  C   UNL     1       8.122  20.366  53.566  1.00  0.00     0.000 A 
HETATM   23  C   UNL     1       8.103  21.634  52.989  1.00  0.00     0.001 A 
HETATM   24  C   UNL     1       8.358  22.763  53.772  1.00  0.00     0.011 A 
ENDBRANCH  18  19
ENDBRANCH  16  17
ENDBRANCH  15  16
ENDBRANCH  12  15
ENDBRANCH   1  11
BRANCH   8  25
HETATM   25  C   UNL     1       5.134  29.385  50.201  1.00  0.00     0.270 C 
HETATM   26  N   UNL     1       4.024  29.991  49.678  1.00  0.00    -0.365 N 
HETATM   27  H   UNL     1       3.197  29.429  49.515  1.00  0.00     0.159 HD
HETATM   28  H   UNL     1       4.035  30.981  49.493  1.00  0.00     0.159 HD
HETATM   29  O   UNL     1       6.153  30.026  50.436  1.00  0.00    -0.266 OA
ENDBRANCH   8  25
TORSDOF 6
ENDMDL
MODEL 4
REMARK VINA RESULT:      -8.9      3.174      5.820
REMARK  6 active torsions:
REMARK  status: ('A' for Active; 'I' for Inactive)
REMARK    1  A    between atoms: C_4  and  C_5 
REMARK    2  A    between atoms: C_6  and  C_7 
REMARK    3  A    between atoms: C_7  and  C_8 
REMARK    4  A    between atoms: C_8  and  C_9 
REMARK       I    between atoms: C_9  and  N_10 
REMARK    5  A    between atoms: N_10  and  C_11 
REMARK    6  A    between atoms: C_18  and  C_19 
REMARK       I    between atoms: C_19  and  N_20 
ROOT
HETATM    1  C   UNL     1       7.164  31.787  61.857  1.00  0.00     0.035 A 
HETATM    2  C   UNL     1       5.867  32.299  62.007  1.00  0.00     0.046 A 
HETATM    3  C   UNL     1       5.569  33.127  63.113  1.00  0.00     0.030 A 
HETATM    4  C   UNL     1       6.571  33.400  64.036  1.00  0.00     0.063 A 
HETATM    5  N   UNL     1       5.989  34.199  64.979  1.00  0.00    -0.277 N 
HETATM    6  H   UNL     1       6.425  34.587  65.808  1.00  0.00     0.189 HD
HETATM    7  N   UNL     1       4.700  34.489  64.744  1.00  0.00    -0.168 NA
HETATM    8  C   UNL     1       4.425  33.835  63.592  1.00  0.00     0.156 A 
HETATM    9  C   UNL     1       7.871  32.906  63.918  1.00  0.00     0.034 A 
HETATM   10  C   UNL     1       8.146  32.102  62.806  1.00  0.00     0.032 A 
ENDROOT
BRANCH   1  11
HETATM   11  N   UNL     1       7.567  30.971  60.777  1.00  0.00    -0.327 N 
HETATM   12  C   UNL     1       8.324  31.337  59.679  1.00  0.00     0.222 C 
HETATM   13  O   UNL     1       8.755  32.460  59.437  1.00  0.00    -0.273 OA
HETATM   14  H   UNL     1       7.227  30.020  60.800  1.00  0.00     0.169 HD
BRANCH  12  15
HETATM   15  C   UNL     1       8.658  30.178  58.751  1.00  0.00     0.107 C 
BRANCH  15  16
HETATM   16  C   UNL     1       7.457  29.501  58.089  1.00  0.00     0.036 C 
BRANCH  16  17
HETATM   17  C   UNL     1       7.688  28.263  57.266  1.00  0.00    -0.025 C 
HETATM   18  C   UNL     1       7.644  26.986  57.681  1.00  0.00     0.007 C 
BRANCH  18  19
HETATM   19  C   UNL     1       7.901  25.840  56.798  1.00  0.00    -0.036 A 
HETATM   20  C   UNL     1       8.603  24.739  57.306  1.00  0.00     0.011 A 
HETATM   21  C   UNL     1       8.847  23.620  56.505  1.00  0.00     0.001 A 
HETATM   22  C   UNL     1       8.382  23.588  55.192  1.00  0.00     0.000 A 
HETATM   23  C   UNL     1       7.668  24.670  54.681  1.00  0.00     0.001 A 
HETATM   24  C   UNL     1       7.424  25.788  55.482  1.00  0.00     0.011 A 
ENDBRANCH  18  19
ENDBRANCH  16  17
ENDBRANCH  15  16
ENDBRANCH  12  15
ENDBRANCH   1  11
BRANCH   8  25
HETATM   25  C   UNL     1       3.094  33.912  62.975  1.00  0.00     0.270 C 
HETATM   26  N   UNL     1       2.062  33.921  63.875  1.00  0.00    -0.365 N 
HETATM   27  H   UNL     1       2.281  33.887  64.864  1.00  0.00     0.159 HD
HETATM   28  H   UNL     1       1.113  33.989  63.546  1.00  0.00     0.159 HD
HETATM   29  O   UNL     1       2.882  33.973  61.769  1.00  0.00    -0.266 OA
ENDBRANCH   8  25
TORSDOF 6
ENDMDL
MODEL 5
REMARK VINA RESULT:      -8.8      2.127      3.322
REMARK  6 active torsions:
REMARK  status: ('A' for Active; 'I' for Inactive)
REMARK    1  A    between atoms: C_4  and  C_5 
REMARK    2  A    between atoms: C_6  and  C_7 
REMARK    3  A    between atoms: C_7  and  C_8 
REMARK    4  A    between atoms: C_8  and  C_9 
REMARK       I    between atoms: C_9  and  N_10 
REMARK    5  A    between atoms: N_10  and  C_11 
REMARK    6  A    between atoms: C_18  and  C_19 
REMARK       I    between atoms: C_19  and  N_20 
ROOT
HETATM    1  C   UNL     1       6.342  27.615  55.296  1.00  0.00     0.035 A 
HETATM    2  C   UNL     1       7.552  28.233  55.644  1.00  0.00     0.046 A 
HETATM    3  C   UNL     1       7.600  29.087  56.768  1.00  0.00     0.030 A 
HETATM    4  C   UNL     1       6.436  29.305  57.495  1.00  0.00     0.063 A 
HETATM    5  N   UNL     1       6.788  30.167  58.495  1.00  0.00    -0.277 N 
HETATM    6  H   UNL     1       6.186  30.549  59.216  1.00  0.00     0.189 HD
HETATM    7  N   UNL     1       8.083  30.517  58.498  1.00  0.00    -0.168 NA
HETATM    8  C   UNL     1       8.601  29.855  57.438  1.00  0.00     0.156 A 
HETATM    9  C   UNL     1       5.215  28.708  57.177  1.00  0.00     0.034 A 
HETATM   10  C   UNL     1       5.197  27.854  56.068  1.00  0.00     0.032 A 
ENDROOT
BRANCH   1  11
HETATM   11  N   UNL     1       6.196  26.729  54.205  1.00  0.00    -0.327 N 
HETATM   12  C   UNL     1       6.126  27.049  52.863  1.00  0.00     0.222 C 
HETATM   13  O   UNL     1       6.148  28.178  52.383  1.00  0.00    -0.273 OA
HETATM   14  H   UNL     1       6.095  25.753  54.448  1.00  0.00     0.169 HD
BRANCH  12  15
HETATM   15  C   UNL     1       6.068  25.836  51.946  1.00  0.00     0.107 C 
BRANCH  15  16
HETATM   16  C   UNL     1       7.383  25.070  51.789  1.00  0.00     0.036 C 
BRANCH  16  17
HETATM   17  C   UNL     1       7.805  24.126  52.884  1.00  0.00    -0.025 C 
HETATM   18  C   UNL     1       7.587  22.803  52.951  1.00  0.00     0.007 C 
BRANCH  18  19
HETATM   19  C   UNL     1       8.028  21.967  54.077  1.00  0.00    -0.036 A 
HETATM   20  C   UNL     1       8.001  22.506  55.370  1.00  0.00     0.011 A 
HETATM   21  C   UNL     1       8.390  21.735  56.468  1.00  0.00     0.001 A 
HETATM   22  C   UNL     1       8.800  20.416  56.286  1.00  0.00     0.000 A 
HETATM   23  C   UNL     1       8.814  19.864  55.006  1.00  0.00     0.001 A 
HETATM   24  C   UNL     1       8.425  20.634  53.908  1.00  0.00     0.011 A 
ENDBRANCH  18  19
ENDBRANCH  16  17
ENDBRANCH  15  16
ENDBRANCH  12  15
ENDBRANCH   1  11
BRANCH   8  25
HETATM   25  C   UNL     1      10.027  29.961  57.100  1.00  0.00     0.270 C 
HETATM   26  N   UNL     1      10.301  29.778  55.772  1.00  0.00    -0.365 N 
HETATM   27  H   UNL     1       9.530  29.601  55.138  1.00  0.00     0.159 HD
HETATM   28  H   UNL     1      11.250  29.850  55.443  1.00  0.00     0.159 HD
HETATM   29  O   UNL     1      10.922  30.199  57.904  1.00  0.00    -0.266 OA
ENDBRANCH   8  25
TORSDOF 6
ENDMDL
MODEL 6
REMARK VINA RESULT:      -8.8      3.114     10.245
REMARK  6 active torsions:
REMARK  status: ('A' for Active; 'I' for Inactive)
REMARK    1  A    between atoms: C_4  and  C_5 
REMARK    2  A    between atoms: C_6  and  C_7 
REMARK    3  A    between atoms: C_7  and  C_8 
REMARK    4  A    between atoms: C_8  and  C_9 
REMARK       I    between atoms: C_9  and  N_10 
REMARK    5  A    between atoms: N_10  and  C_11 
REMARK    6  A    between atoms: C_18  and  C_19 
REMARK       I    between atoms: C_19  and  N_20 
ROOT
HETATM    1  C   UNL     1       7.496  26.653  56.971  1.00  0.00     0.035 A 
HETATM    2  C   UNL     1       6.888  26.430  55.727  1.00  0.00     0.046 A 
HETATM    3  C   UNL     1       7.011  25.167  55.107  1.00  0.00     0.030 A 
HETATM    4  C   UNL     1       7.750  24.177  55.743  1.00  0.00     0.063 A 
HETATM    5  N   UNL     1       7.699  23.094  54.911  1.00  0.00    -0.277 N 
HETATM    6  H   UNL     1       8.134  22.190  55.054  1.00  0.00     0.189 HD
HETATM    7  N   UNL     1       6.976  23.282  53.797  1.00  0.00    -0.168 NA
HETATM    8  C   UNL     1       6.540  24.558  53.904  1.00  0.00     0.156 A 
HETATM    9  C   UNL     1       8.370  24.364  56.979  1.00  0.00     0.034 A 
HETATM   10  C   UNL     1       8.220  25.619  57.581  1.00  0.00     0.032 A 
ENDROOT
BRANCH   1  11
HETATM   11  N   UNL     1       7.413  27.871  57.680  1.00  0.00    -0.327 N 
HETATM   12  C   UNL     1       8.338  28.898  57.703  1.00  0.00     0.222 C 
HETATM   13  O   UNL     1       9.421  28.914  57.126  1.00  0.00    -0.273 OA
HETATM   14  H   UNL     1       6.596  27.979  58.265  1.00  0.00     0.169 HD
BRANCH  12  15
HETATM   15  C   UNL     1       7.883  30.114  58.498  1.00  0.00     0.107 C 
BRANCH  15  16
HETATM   16  C   UNL     1       8.568  30.305  59.852  1.00  0.00     0.036 C 
BRANCH  16  17
HETATM   17  C   UNL     1       7.898  31.170  60.886  1.00  0.00    -0.025 C 
HETATM   18  C   UNL     1       8.436  32.195  61.567  1.00  0.00     0.007 C 
BRANCH  18  19
HETATM   19  C   UNL     1       7.699  32.972  62.574  1.00  0.00    -0.036 A 
HETATM   20  C   UNL     1       6.662  33.814  62.152  1.00  0.00     0.011 A 
HETATM   21  C   UNL     1       5.922  34.551  63.080  1.00  0.00     0.001 A 
HETATM   22  C   UNL     1       6.206  34.445  64.440  1.00  0.00     0.000 A 
HETATM   23  C   UNL     1       7.223  33.597  64.874  1.00  0.00     0.001 A 
HETATM   24  C   UNL     1       7.963  32.860  63.945  1.00  0.00     0.011 A 
ENDBRANCH  18  19
ENDBRANCH  16  17
ENDBRANCH  15  16
ENDBRANCH  12  15
ENDBRANCH   1  11
BRANCH   8  25
HETATM   25  C   UNL     1       5.684  25.156  52.870  1.00  0.00     0.270 C 
HETATM   26  N   UNL     1       4.350  25.145  53.175  1.00  0.00    -0.365 N 
HETATM   27  H   UNL     1       4.059  24.751  54.063  1.00  0.00     0.159 HD
HETATM   28  H   UNL     1       3.687  25.550  52.534  1.00  0.00     0.159 HD
HETATM   29  O   UNL     1       6.089  25.640  51.819  1.00  0.00    -0.266 OA
ENDBRANCH   8  25
TORSDOF 6
ENDMDL
MODEL 7
REMARK VINA RESULT:      -8.6      3.357      9.502
REMARK  6 active torsions:
REMARK  status: ('A' for Active; 'I' for Inactive)
REMARK    1  A    between atoms: C_4  and  C_5 
REMARK    2  A    between atoms: C_6  and  C_7 
REMARK    3  A    between atoms: C_7  and  C_8 
REMARK    4  A    between atoms: C_8  and  C_9 
REMARK       I    between atoms: C_9  and  N_10 
REMARK    5  A    between atoms: N_10  and  C_11 
REMARK    6  A    between atoms: C_18  and  C_19 
REMARK       I    between atoms: C_19  and  N_20 
ROOT
HETATM    1  C   UNL     1       7.689  25.219  54.254  1.00  0.00     0.035 A 
HETATM    2  C   UNL     1       7.993  24.104  55.048  1.00  0.00     0.046 A 
HETATM    3  C   UNL     1       8.071  22.825  54.453  1.00  0.00     0.030 A 
HETATM    4  C   UNL     1       7.828  22.703  53.090  1.00  0.00     0.063 A 
HETATM    5  N   UNL     1       7.963  21.372  52.814  1.00  0.00    -0.277 N 
HETATM    6  H   UNL     1       7.849  20.917  51.916  1.00  0.00     0.189 HD
HETATM    7  N   UNL     1       8.291  20.614  53.873  1.00  0.00    -0.168 NA
HETATM    8  C   UNL     1       8.365  21.499  54.894  1.00  0.00     0.156 A 
HETATM    9  C   UNL     1       7.522  23.790  52.270  1.00  0.00     0.034 A 
HETATM   10  C   UNL     1       7.466  25.049  52.880  1.00  0.00     0.032 A 
ENDROOT
BRANCH   1  11
HETATM   11  N   UNL     1       7.610  26.539  54.749  1.00  0.00    -0.327 N 
HETATM   12  C   UNL     1       6.555  27.124  55.425  1.00  0.00     0.222 C 
HETATM   13  O   UNL     1       5.479  26.597  55.688  1.00  0.00    -0.273 OA
HETATM   14  H   UNL     1       8.406  27.128  54.548  1.00  0.00     0.169 HD
BRANCH  12  15
HETATM   15  C   UNL     1       6.845  28.540  55.904  1.00  0.00     0.107 C 
BRANCH  15  16
HETATM   16  C   UNL     1       8.289  28.805  56.330  1.00  0.00     0.036 C 
BRANCH  16  17
HETATM   17  C   UNL     1       8.540  29.639  57.557  1.00  0.00    -0.025 C 
HETATM   18  C   UNL     1       7.698  29.861  58.579  1.00  0.00     0.007 C 
BRANCH  18  19
HETATM   19  C   UNL     1       8.033  30.710  59.733  1.00  0.00    -0.036 A 
HETATM   20  C   UNL     1       9.136  30.368  60.526  1.00  0.00     0.011 A 
HETATM   21  C   UNL     1       9.500  31.162  61.616  1.00  0.00     0.001 A 
HETATM   22  C   UNL     1       8.772  32.311  61.917  1.00  0.00     0.000 A 
HETATM   23  C   UNL     1       7.683  32.670  61.125  1.00  0.00     0.001 A 
HETATM   24  C   UNL     1       7.319  31.876  60.035  1.00  0.00     0.011 A 
ENDBRANCH  18  19
ENDBRANCH  16  17
ENDBRANCH  15  16
ENDBRANCH  12  15
ENDBRANCH   1  11
BRANCH   8  25
HETATM   25  C   UNL     1       8.722  21.062  56.250  1.00  0.00     0.270 C 
HETATM   26  N   UNL     1       9.606  20.017  56.286  1.00  0.00    -0.365 N 
HETATM   27  H   UNL     1       9.947  19.642  55.408  1.00  0.00     0.159 HD
HETATM   28  H   UNL     1       9.923  19.661  57.173  1.00  0.00     0.159 HD
HETATM   29  O   UNL     1       8.296  21.565  57.284  1.00  0.00    -0.266 OA
ENDBRANCH   8  25
TORSDOF 6
ENDMDL
MODEL 8
REMARK VINA RESULT:      -8.6      3.296     10.040
REMARK  6 active torsions:
REMARK  status: ('A' for Active; 'I' for Inactive)
REMARK    1  A    between atoms: C_4  and  C_5 
REMARK    2  A    between atoms: C_6  and  C_7 
REMARK    3  A    between atoms: C_7  and  C_8 
REMARK    4  A    between atoms: C_8  and  C_9 
REMARK       I    between atoms: C_9  and  N_10 
REMARK    5  A    between atoms: N_10  and  C_11 
REMARK    6  A    between atoms: C_18  and  C_19 
REMARK       I    between atoms: C_19  and  N_20 
ROOT
HETATM    1  C   UNL     1       7.267  26.100  55.077  1.00  0.00     0.035 A 
HETATM    2  C   UNL     1       7.375  24.783  55.545  1.00  0.00     0.046 A 
HETATM    3  C   UNL     1       7.646  23.739  54.632  1.00  0.00     0.030 A 
HETATM    4  C   UNL     1       7.784  24.045  53.284  1.00  0.00     0.063 A 
HETATM    5  N   UNL     1       8.025  22.852  52.663  1.00  0.00    -0.277 N 
HETATM    6  H   UNL     1       8.171  22.695  51.672  1.00  0.00     0.189 HD
HETATM    7  N   UNL     1       8.075  21.795  53.488  1.00  0.00    -0.168 NA
HETATM    8  C   UNL     1       7.846  22.327  54.711  1.00  0.00     0.156 A 
HETATM    9  C   UNL     1       7.681  25.344  52.784  1.00  0.00     0.034 A 
HETATM   10  C   UNL     1       7.428  26.363  53.710  1.00  0.00     0.032 A 
ENDROOT
BRANCH   1  11
HETATM   11  N   UNL     1       7.020  27.214  55.910  1.00  0.00    -0.327 N 
HETATM   12  C   UNL     1       7.772  27.643  56.987  1.00  0.00     0.222 C 
HETATM   13  O   UNL     1       8.781  27.105  57.430  1.00  0.00    -0.273 OA
HETATM   14  H   UNL     1       6.173  27.727  55.710  1.00  0.00     0.169 HD
BRANCH  12  15
HETATM   15  C   UNL     1       7.271  28.942  57.604  1.00  0.00     0.107 C 
BRANCH  15  16
HETATM   16  C   UNL     1       8.324  29.759  58.355  1.00  0.00     0.036 C 
BRANCH  16  17
HETATM   17  C   UNL     1       7.867  30.743  59.398  1.00  0.00    -0.025 C 
HETATM   18  C   UNL     1       8.288  30.842  60.669  1.00  0.00     0.007 C 
BRANCH  18  19
HETATM   19  C   UNL     1       7.765  31.834  61.620  1.00  0.00    -0.036 A 
HETATM   20  C   UNL     1       8.326  31.903  62.901  1.00  0.00     0.011 A 
HETATM   21  C   UNL     1       7.872  32.848  63.825  1.00  0.00     0.001 A 
HETATM   22  C   UNL     1       6.860  33.738  63.473  1.00  0.00     0.000 A 
HETATM   23  C   UNL     1       6.306  33.690  62.195  1.00  0.00     0.001 A 
HETATM   24  C   UNL     1       6.760  32.745  61.271  1.00  0.00     0.011 A 
ENDBRANCH  18  19
ENDBRANCH  16  17
ENDBRANCH  15  16
ENDBRANCH  12  15
ENDBRANCH   1  11
BRANCH   8  25
HETATM   25  C   UNL     1       7.835  21.483  55.914  1.00  0.00     0.270 C 
HETATM   26  N   UNL     1       8.452  22.049  56.997  1.00  0.00    -0.365 N 
HETATM   27  H   UNL     1       8.846  22.977  56.900  1.00  0.00     0.159 HD
HETATM   28  H   UNL     1       8.479  21.551  57.873  1.00  0.00     0.159 HD
HETATM   29  O   UNL     1       7.324  20.371  55.986  1.00  0.00    -0.266 OA
ENDBRANCH   8  25
TORSDOF 6
ENDMDL
MODEL 9
REMARK VINA RESULT:      -8.6      6.425      9.204
REMARK  6 active torsions:
REMARK  status: ('A' for Active; 'I' for Inactive)
REMARK    1  A    between atoms: C_4  and  C_5 
REMARK    2  A    between atoms: C_6  and  C_7 
REMARK    3  A    between atoms: C_7  and  C_8 
REMARK    4  A    between atoms: C_8  and  C_9 
REMARK       I    between atoms: C_9  and  N_10 
REMARK    5  A    between atoms: N_10  and  C_11 
REMARK    6  A    between atoms: C_18  and  C_19 
REMARK       I    between atoms: C_19  and  N_20 
ROOT
HETATM    1  C   UNL     1       4.460  26.587  49.333  1.00  0.00     0.035 A 
HETATM    2  C   UNL     1       3.948  27.829  48.929  1.00  0.00     0.046 A 
HETATM    3  C   UNL     1       2.888  27.875  47.996  1.00  0.00     0.030 A 
HETATM    4  C   UNL     1       2.389  26.682  47.488  1.00  0.00     0.063 A 
HETATM    5  N   UNL     1       1.399  27.043  46.617  1.00  0.00    -0.277 N 
HETATM    6  H   UNL     1       0.820  26.428  46.058  1.00  0.00     0.189 HD
HETATM    7  N   UNL     1       1.194  28.366  46.525  1.00  0.00    -0.168 NA
HETATM    8  C   UNL     1       2.105  28.895  47.375  1.00  0.00     0.156 A 
HETATM    9  C   UNL     1       2.875  25.430  47.866  1.00  0.00     0.034 A 
HETATM   10  C   UNL     1       3.914  25.410  48.804  1.00  0.00     0.032 A 
ENDROOT
BRANCH   1  11
HETATM   11  N   UNL     1       5.501  26.435  50.275  1.00  0.00    -0.327 N 
HETATM   12  C   UNL     1       5.427  26.595  51.646  1.00  0.00     0.222 C 
HETATM   13  O   UNL     1       4.437  26.933  52.286  1.00  0.00    -0.273 OA
HETATM   14  H   UNL     1       6.409  26.219  49.888  1.00  0.00     0.169 HD
BRANCH  12  15
HETATM   15  C   UNL     1       6.721  26.254  52.372  1.00  0.00     0.107 C 
BRANCH  15  16
HETATM   16  C   UNL     1       7.520  25.093  51.779  1.00  0.00     0.036 C 
BRANCH  16  17
HETATM   17  C   UNL     1       7.740  23.863  52.618  1.00  0.00    -0.025 C 
HETATM   18  C   UNL     1       7.765  23.783  53.958  1.00  0.00     0.007 C 
BRANCH  18  19
HETATM   19  C   UNL     1       8.004  22.529  54.689  1.00  0.00    -0.036 A 
HETATM   20  C   UNL     1       8.174  21.344  53.961  1.00  0.00     0.011 A 
HETATM   21  C   UNL     1       8.427  20.137  54.617  1.00  0.00     0.001 A 
HETATM   22  C   UNL     1       8.523  20.105  56.006  1.00  0.00     0.000 A 
HETATM   23  C   UNL     1       8.373  21.280  56.740  1.00  0.00     0.001 A 
HETATM   24  C   UNL     1       8.120  22.487  56.084  1.00  0.00     0.011 A 
ENDBRANCH  18  19
ENDBRANCH  16  17
ENDBRANCH  15  16
ENDBRANCH  12  15
ENDBRANCH   1  11
BRANCH   8  25
HETATM   25  C   UNL     1       2.197  30.347  47.578  1.00  0.00     0.270 C 
HETATM   26  N   UNL     1       1.363  30.828  48.552  1.00  0.00    -0.365 N 
HETATM   27  H   UNL     1       0.774  30.173  49.052  1.00  0.00     0.159 HD
HETATM   28  H   UNL     1       1.370  31.810  48.775  1.00  0.00     0.159 HD
HETATM   29  O   UNL     1       2.945  31.096  46.959  1.00  0.00    -0.266 OA
ENDBRANCH   8  25
TORSDOF 6
ENDMDL
MODEL 10
REMARK VINA RESULT:      -8.5      4.656      7.863
REMARK  6 active torsions:
REMARK  status: ('A' for Active; 'I' for Inactive)
REMARK    1  A    between atoms: C_4  and  C_5 
REMARK    2  A    between atoms: C_6  and  C_7 
REMARK    3  A    between atoms: C_7  and  C_8 
REMARK    4  A    between atoms: C_8  and  C_9 
REMARK       I    between atoms: C_9  and  N_10 
REMARK    5  A    between atoms: N_10  and  C_11 
REMARK    6  A    between atoms: C_18  and  C_19 
REMARK       I    between atoms: C_19  and  N_20 
ROOT
HETATM    1  C   UNL     1       5.204  28.812  52.080  1.00  0.00     0.035 A 
HETATM    2  C   UNL     1       4.947  27.920  51.030  1.00  0.00     0.046 A 
HETATM    3  C   UNL     1       3.969  28.245  50.063  1.00  0.00     0.030 A 
HETATM    4  C   UNL     1       3.272  29.440  50.190  1.00  0.00     0.063 A 
HETATM    5  N   UNL     1       2.404  29.468  49.135  1.00  0.00    -0.277 N 
HETATM    6  H   UNL     1       1.732  30.194  48.913  1.00  0.00     0.189 HD
HETATM    7  N   UNL     1       2.484  28.406  48.319  1.00  0.00    -0.168 NA
HETATM    8  C   UNL     1       3.450  27.640  48.878  1.00  0.00     0.156 A 
HETATM    9  C   UNL     1       3.501  30.350  51.223  1.00  0.00     0.034 A 
HETATM   10  C   UNL     1       4.486  30.013  52.158  1.00  0.00     0.032 A 
ENDROOT
BRANCH   1  11
HETATM   11  N   UNL     1       6.176  28.590  53.082  1.00  0.00    -0.327 N 
HETATM   12  C   UNL     1       5.972  28.107  54.361  1.00  0.00     0.222 C 
HETATM   13  O   UNL     1       4.893  27.813  54.863  1.00  0.00    -0.273 OA
HETATM   14  H   UNL     1       7.120  28.852  52.837  1.00  0.00     0.169 HD
BRANCH  12  15
HETATM   15  C   UNL     1       7.259  27.896  55.147  1.00  0.00     0.107 C 
BRANCH  15  16
HETATM   16  C   UNL     1       7.313  26.616  55.983  1.00  0.00     0.036 C 
BRANCH  16  17
HETATM   17  C   UNL     1       7.517  25.302  55.279  1.00  0.00    -0.025 C 
HETATM   18  C   UNL     1       7.278  24.071  55.761  1.00  0.00     0.007 C 
BRANCH  18  19
HETATM   19  C   UNL     1       7.525  22.841  54.996  1.00  0.00    -0.036 A 
HETATM   20  C   UNL     1       7.666  22.927  53.605  1.00  0.00     0.011 A 
HETATM   21  C   UNL     1       7.926  21.783  52.845  1.00  0.00     0.001 A 
HETATM   22  C   UNL     1       8.057  20.545  53.470  1.00  0.00     0.000 A 
HETATM   23  C   UNL     1       7.936  20.450  54.855  1.00  0.00     0.001 A 
HETATM   24  C   UNL     1       7.677  21.593  55.615  1.00  0.00     0.011 A 
ENDBRANCH  18  19
ENDBRANCH  16  17
ENDBRANCH  15  16
ENDBRANCH  12  15
ENDBRANCH   1  11
BRANCH   8  25
HETATM   25  C   UNL     1       3.858  26.369  48.265  1.00  0.00     0.270 C 
HETATM   26  N   UNL     1       3.268  25.267  48.822  1.00  0.00    -0.365 N 
HETATM   27  H   UNL     1       2.607  25.401  49.579  1.00  0.00     0.159 HD
HETATM   28  H   UNL     1       3.473  24.351  48.455  1.00  0.00     0.159 HD
HETATM   29  O   UNL     1       4.648  26.261  47.333  1.00  0.00    -0.266 OA
ENDBRANCH   8  25
TORSDOF 6
ENDMDL
