MODEL 1
REMARK VINA RESULT:      -8.1      0.000      0.000
REMARK  6 active torsions:
REMARK  status: ('A' for Active; 'I' for Inactive)
REMARK    1  A    between atoms: C_2  and  C_3 
REMARK    2  A    between atoms: C_3  and  N_4 
REMARK    3  A    between atoms: C_3  and  C_17 
REMARK    4  A    between atoms: N_4  and  C_5 
REMARK    5  A    between atoms: C_5  and  C_6 
REMARK       I    between atoms: C_6  and  N_7 
REMARK    6  A    between atoms: N_7  and  C_8 
ROOT
HETATM    1  N   UNL     1       7.645  26.797  57.417  1.00  0.00     0.101 N 
HETATM    2  H   UNL     1       6.693  26.650  57.078  1.00  0.00     0.317 HD
ENDROOT
BRANCH   1   3
HETATM    3  C   UNL     1       8.276  27.855  56.600  1.00  0.00     0.256 C 
BRANCH   3   4
HETATM    4  C   UNL     1       7.379  28.340  55.431  1.00  0.00     0.036 C 
HETATM    5  C   UNL     1       7.644  27.678  54.081  1.00  0.00     0.007 C 
ENDBRANCH   3   4
BRANCH   3   6
HETATM    6  C   UNL     1       8.744  29.030  57.453  1.00  0.00     0.013 A 
HETATM    7  C   UNL     1       9.935  29.690  57.103  1.00  0.00     0.127 A 
HETATM    8  F   UNL     1      10.642  29.266  56.045  1.00  0.00    -0.205 F 
HETATM    9  C   UNL     1      10.410  30.783  57.818  1.00  0.00     0.085 A 
HETATM   10  C   UNL     1       9.689  31.229  58.913  1.00  0.00     0.119 A 
HETATM   11  F   UNL     1      10.133  32.281  59.614  1.00  0.00    -0.206 F 
HETATM   12  C   UNL     1       8.508  30.603  59.297  1.00  0.00     0.043 A 
HETATM   13  C   UNL     1       8.033  29.507  58.568  1.00  0.00     0.015 A 
ENDBRANCH   3   6
ENDBRANCH   1   3
BRANCH   1  14
HETATM   14  C   UNL     1       8.369  25.508  57.301  1.00  0.00     0.372 C 
BRANCH  14  15
HETATM   15  C   UNL     1       7.635  24.563  56.337  1.00  0.00     0.250 C 
HETATM   16  N   UNL     1       8.500  23.711  55.683  1.00  0.00    -0.322 N 
HETATM   17  H   UNL     1       9.483  23.875  55.881  1.00  0.00     0.169 HD
HETATM   18  O   UNL     1       6.422  24.645  56.187  1.00  0.00    -0.271 OA
BRANCH  16  19
HETATM   19  C   UNL     1       8.187  22.686  54.812  1.00  0.00     0.085 A 
HETATM   20  C   UNL     1       8.016  21.278  54.963  1.00  0.00     0.079 A 
HETATM   21  C   UNL     1       8.144  20.412  56.162  1.00  0.00     0.075 C 
HETATM   22  N   UNL     1       7.725  20.693  53.790  1.00  0.00    -0.177 NA
HETATM   23  N   UNL     1       7.709  21.699  52.913  1.00  0.00    -0.280 N 
HETATM   24  H   UNL     1       7.500  21.481  51.944  1.00  0.00     0.189 HD
HETATM   25  C   UNL     1       7.989  22.917  53.462  1.00  0.00     0.052 A 
HETATM   26  C   UNL     1       8.026  24.151  52.643  1.00  0.00     0.072 C 
ENDBRANCH  16  19
ENDBRANCH  14  15
ENDBRANCH   1  14
TORSDOF 6
ENDMDL
MODEL 2
REMARK VINA RESULT:      -8.1      3.422      8.200
REMARK  6 active torsions:
REMARK  status: ('A' for Active; 'I' for Inactive)
REMARK    1  A    between atoms: C_2  and  C_3 
REMARK    2  A    between atoms: C_3  and  N_4 
REMARK    3  A    between atoms: C_3  and  C_17 
REMARK    4  A    between atoms: N_4  and  C_5 
REMARK    5  A    between atoms: C_5  and  C_6 
REMARK       I    between atoms: C_6  and  N_7 
REMARK    6  A    between atoms: N_7  and  C_8 
ROOT
HETATM    1  N   UNL     1       7.433  26.397  54.943  1.00  0.00     0.101 N 
HETATM    2  H   UNL     1       7.145  27.201  54.383  1.00  0.00     0.317 HD
ENDROOT
BRANCH   1   3
HETATM    3  C   UNL     1       6.408  25.340  54.808  1.00  0.00     0.256 C 
BRANCH   3   4
HETATM    4  C   UNL     1       5.295  25.696  53.788  1.00  0.00     0.036 C 
HETATM    5  C   UNL     1       4.939  27.178  53.696  1.00  0.00     0.007 C 
ENDBRANCH   3   4
BRANCH   3   6
HETATM    6  C   UNL     1       7.028  23.983  54.488  1.00  0.00     0.013 A 
HETATM    7  C   UNL     1       7.401  23.141  55.551  1.00  0.00     0.127 A 
HETATM    8  F   UNL     1       7.221  23.550  56.815  1.00  0.00    -0.205 F 
HETATM    9  C   UNL     1       7.948  21.882  55.336  1.00  0.00     0.085 A 
HETATM   10  C   UNL     1       8.138  21.449  54.034  1.00  0.00     0.119 A 
HETATM   11  F   UNL     1       8.664  20.237  53.810  1.00  0.00    -0.206 F 
HETATM   12  C   UNL     1       7.788  22.252  52.954  1.00  0.00     0.043 A 
HETATM   13  C   UNL     1       7.232  23.515  53.178  1.00  0.00     0.015 A 
ENDBRANCH   3   6
ENDBRANCH   1   3
BRANCH   1  14
HETATM   14  C   UNL     1       7.573  26.852  56.347  1.00  0.00     0.372 C 
BRANCH  14  15
HETATM   15  C   UNL     1       7.963  28.337  56.395  1.00  0.00     0.250 C 
HETATM   16  N   UNL     1       8.391  28.723  57.647  1.00  0.00    -0.322 N 
HETATM   17  H   UNL     1       8.324  27.999  58.357  1.00  0.00     0.169 HD
HETATM   18  O   UNL     1       7.840  29.046  55.404  1.00  0.00    -0.271 OA
BRANCH  16  19
HETATM   19  C   UNL     1       8.889  29.952  58.035  1.00  0.00     0.085 A 
HETATM   20  C   UNL     1       8.328  31.079  58.704  1.00  0.00     0.079 A 
HETATM   21  C   UNL     1       6.953  31.316  59.211  1.00  0.00     0.075 C 
HETATM   22  N   UNL     1       9.229  32.065  58.842  1.00  0.00    -0.177 NA
HETATM   23  N   UNL     1      10.337  31.581  58.276  1.00  0.00    -0.280 N 
HETATM   24  H   UNL     1      11.164  32.169  58.271  1.00  0.00     0.189 HD
HETATM   25  C   UNL     1      10.194  30.323  57.765  1.00  0.00     0.052 A 
HETATM   26  C   UNL     1      11.313  29.625  57.091  1.00  0.00     0.072 C 
ENDBRANCH  16  19
ENDBRANCH  14  15
ENDBRANCH   1  14
TORSDOF 6
ENDMDL
MODEL 3
REMARK VINA RESULT:      -7.9      3.347      8.201
REMARK  6 active torsions:
REMARK  status: ('A' for Active; 'I' for Inactive)
REMARK    1  A    between atoms: C_2  and  C_3 
REMARK    2  A    between atoms: C_3  and  N_4 
REMARK    3  A    between atoms: C_3  and  C_17 
REMARK    4  A    between atoms: N_4  and  C_5 
REMARK    5  A    between atoms: C_5  and  C_6 
REMARK       I    between atoms: C_6  and  N_7 
REMARK    6  A    between atoms: N_7  and  C_8 
ROOT
HETATM    1  N   UNL     1       7.641  25.756  55.063  1.00  0.00     0.101 N 
HETATM    2  H   UNL     1       8.224  26.125  54.311  1.00  0.00     0.317 HD
ENDROOT
BRANCH   1   3
HETATM    3  C   UNL     1       6.716  24.755  54.490  1.00  0.00     0.256 C 
BRANCH   3   4
HETATM    4  C   UNL     1       6.145  25.172  53.109  1.00  0.00     0.036 C 
HETATM    5  C   UNL     1       4.653  24.918  52.912  1.00  0.00     0.007 C 
ENDBRANCH   3   4
BRANCH   3   6
HETATM    6  C   UNL     1       7.348  23.368  54.424  1.00  0.00     0.013 A 
HETATM    7  C   UNL     1       7.634  22.696  55.626  1.00  0.00     0.127 A 
HETATM    8  F   UNL     1       7.364  23.289  56.798  1.00  0.00    -0.205 F 
HETATM    9  C   UNL     1       8.185  21.420  55.644  1.00  0.00     0.085 A 
HETATM   10  C   UNL     1       8.469  20.798  54.439  1.00  0.00     0.119 A 
HETATM   11  F   UNL     1       9.001  19.569  54.439  1.00  0.00    -0.206 F 
HETATM   12  C   UNL     1       8.206  21.429  53.228  1.00  0.00     0.043 A 
HETATM   13  C   UNL     1       7.645  22.710  53.218  1.00  0.00     0.015 A 
ENDBRANCH   3   6
ENDBRANCH   1   3
BRANCH   1  14
HETATM   14  C   UNL     1       6.912  26.895  55.670  1.00  0.00     0.372 C 
BRANCH  14  15
HETATM   15  C   UNL     1       7.771  27.572  56.748  1.00  0.00     0.250 C 
HETATM   16  N   UNL     1       7.914  28.925  56.528  1.00  0.00    -0.322 N 
HETATM   17  H   UNL     1       7.494  29.258  55.665  1.00  0.00     0.169 HD
HETATM   18  O   UNL     1       8.275  26.911  57.649  1.00  0.00    -0.271 OA
BRANCH  16  19
HETATM   19  C   UNL     1       8.548  29.855  57.329  1.00  0.00     0.085 A 
HETATM   20  C   UNL     1       9.915  30.188  57.565  1.00  0.00     0.079 A 
HETATM   21  C   UNL     1      11.162  29.601  57.013  1.00  0.00     0.075 C 
HETATM   22  N   UNL     1      10.028  31.178  58.465  1.00  0.00    -0.177 NA
HETATM   23  N   UNL     1       8.768  31.472  58.794  1.00  0.00    -0.280 N 
HETATM   24  H   UNL     1       8.614  32.211  59.472  1.00  0.00     0.189 HD
HETATM   25  C   UNL     1       7.836  30.706  58.155  1.00  0.00     0.052 A 
HETATM   26  C   UNL     1       6.386  30.880  58.399  1.00  0.00     0.072 C 
ENDBRANCH  16  19
ENDBRANCH  14  15
ENDBRANCH   1  14
TORSDOF 6
ENDMDL
MODEL 4
REMARK VINA RESULT:      -7.9      5.749      8.090
REMARK  6 active torsions:
REMARK  status: ('A' for Active; 'I' for Inactive)
REMARK    1  A    between atoms: C_2  and  C_3 
REMARK    2  A    between atoms: C_3  and  N_4 
REMARK    3  A    between atoms: C_3  and  C_17 
REMARK    4  A    between atoms: N_4  and  C_5 
REMARK    5  A    between atoms: C_5  and  C_6 
REMARK       I    between atoms: C_6  and  N_7 
REMARK    6  A    between atoms: N_7  and  C_8 
ROOT
HETATM    1  N   UNL     1       6.854  31.451  61.617  1.00  0.00     0.101 N 
HETATM    2  H   UNL     1       6.309  31.128  60.816  1.00  0.00     0.317 HD
ENDROOT
BRANCH   1   3
HETATM    3  C   UNL     1       6.598  32.895  61.806  1.00  0.00     0.256 C 
BRANCH   3   4
HETATM    4  C   UNL     1       5.541  33.461  60.821  1.00  0.00     0.036 C 
HETATM    5  C   UNL     1       5.119  32.518  59.698  1.00  0.00     0.007 C 
ENDBRANCH   3   4
BRANCH   3   6
HETATM    6  C   UNL     1       6.230  33.223  63.250  1.00  0.00     0.013 A 
HETATM    7  C   UNL     1       7.259  33.337  64.202  1.00  0.00     0.127 A 
HETATM    8  F   UNL     1       8.532  33.140  63.829  1.00  0.00    -0.205 F 
HETATM    9  C   UNL     1       7.003  33.658  65.529  1.00  0.00     0.085 A 
HETATM   10  C   UNL     1       5.692  33.864  65.926  1.00  0.00     0.119 A 
HETATM   11  F   UNL     1       5.427  34.174  67.202  1.00  0.00    -0.206 F 
HETATM   12  C   UNL     1       4.643  33.756  65.018  1.00  0.00     0.043 A 
HETATM   13  C   UNL     1       4.910  33.439  63.682  1.00  0.00     0.015 A 
ENDBRANCH   3   6
ENDBRANCH   1   3
BRANCH   1  14
HETATM   14  C   UNL     1       8.283  31.180  61.328  1.00  0.00     0.372 C 
BRANCH  14  15
HETATM   15  C   UNL     1       8.561  31.300  59.822  1.00  0.00     0.250 C 
HETATM   16  N   UNL     1       8.474  30.084  59.178  1.00  0.00    -0.322 N 
HETATM   17  H   UNL     1       8.309  29.292  59.792  1.00  0.00     0.169 HD
HETATM   18  O   UNL     1       8.860  32.380  59.328  1.00  0.00    -0.271 OA
BRANCH  16  19
HETATM   19  C   UNL     1       8.585  29.829  57.824  1.00  0.00     0.085 A 
HETATM   20  C   UNL     1       9.687  29.727  56.924  1.00  0.00     0.079 A 
HETATM   21  C   UNL     1      11.144  29.888  57.159  1.00  0.00     0.075 C 
HETATM   22  N   UNL     1       9.273  29.474  55.672  1.00  0.00    -0.177 NA
HETATM   23  N   UNL     1       7.943  29.414  55.769  1.00  0.00    -0.280 N 
HETATM   24  H   UNL     1       7.414  29.224  54.925  1.00  0.00     0.189 HD
HETATM   25  C   UNL     1       7.469  29.629  57.031  1.00  0.00     0.052 A 
HETATM   26  C   UNL     1       6.019  29.611  57.332  1.00  0.00     0.072 C 
ENDBRANCH  16  19
ENDBRANCH  14  15
ENDBRANCH   1  14
TORSDOF 6
ENDMDL
MODEL 5
REMARK VINA RESULT:      -7.7      5.094      8.176
REMARK  6 active torsions:
REMARK  status: ('A' for Active; 'I' for Inactive)
REMARK    1  A    between atoms: C_2  and  C_3 
REMARK    2  A    between atoms: C_3  and  N_4 
REMARK    3  A    between atoms: C_3  and  C_17 
REMARK    4  A    between atoms: N_4  and  C_5 
REMARK    5  A    between atoms: C_5  and  C_6 
REMARK       I    between atoms: C_6  and  N_7 
REMARK    6  A    between atoms: N_7  and  C_8 
ROOT
HETATM    1  N   UNL     1       7.171  25.194  52.282  1.00  0.00     0.101 N 
HETATM    2  H   UNL     1       7.506  24.466  51.650  1.00  0.00     0.317 HD
ENDROOT
BRANCH   1   3
HETATM    3  C   UNL     1       7.713  24.929  53.632  1.00  0.00     0.256 C 
BRANCH   3   4
HETATM    4  C   UNL     1       6.779  25.416  54.771  1.00  0.00     0.036 C 
HETATM    5  C   UNL     1       7.126  26.778  55.367  1.00  0.00     0.007 C 
ENDBRANCH   3   4
BRANCH   3   6
HETATM    6  C   UNL     1       8.083  23.461  53.819  1.00  0.00     0.013 A 
HETATM    7  C   UNL     1       8.801  23.084  54.967  1.00  0.00     0.127 A 
HETATM    8  F   UNL     1       9.160  24.017  55.861  1.00  0.00    -0.205 F 
HETATM    9  C   UNL     1       9.151  21.762  55.217  1.00  0.00     0.085 A 
HETATM   10  C   UNL     1       8.786  20.790  54.300  1.00  0.00     0.119 A 
HETATM   11  F   UNL     1       9.115  19.511  54.525  1.00  0.00    -0.206 F 
HETATM   12  C   UNL     1       8.079  21.120  53.149  1.00  0.00     0.043 A 
HETATM   13  C   UNL     1       7.725  22.451  52.908  1.00  0.00     0.015 A 
ENDBRANCH   3   6
ENDBRANCH   1   3
BRANCH   1  14
HETATM   14  C   UNL     1       5.689  25.158  52.268  1.00  0.00     0.372 C 
BRANCH  14  15
HETATM   15  C   UNL     1       5.129  26.352  51.479  1.00  0.00     0.250 C 
HETATM   16  N   UNL     1       5.216  26.164  50.117  1.00  0.00    -0.322 N 
HETATM   17  H   UNL     1       5.689  25.309  49.838  1.00  0.00     0.169 HD
HETATM   18  O   UNL     1       4.708  27.343  52.065  1.00  0.00    -0.271 OA
BRANCH  16  19
HETATM   19  C   UNL     1       4.743  26.987  49.113  1.00  0.00     0.085 A 
HETATM   20  C   UNL     1       4.972  28.350  48.762  1.00  0.00     0.079 A 
HETATM   21  C   UNL     1       5.821  29.384  49.405  1.00  0.00     0.075 C 
HETATM   22  N   UNL     1       4.251  28.706  47.686  1.00  0.00    -0.177 NA
HETATM   23  N   UNL     1       3.580  27.599  47.357  1.00  0.00    -0.280 N 
HETATM   24  H   UNL     1       2.964  27.640  46.552  1.00  0.00     0.189 HD
HETATM   25  C   UNL     1       3.825  26.538  48.181  1.00  0.00     0.052 A 
HETATM   26  C   UNL     1       3.165  25.228  47.978  1.00  0.00     0.072 C 
ENDBRANCH  16  19
ENDBRANCH  14  15
ENDBRANCH   1  14
TORSDOF 6
ENDMDL
MODEL 6
REMARK VINA RESULT:      -7.6      5.082      7.961
REMARK  6 active torsions:
REMARK  status: ('A' for Active; 'I' for Inactive)
REMARK    1  A    between atoms: C_2  and  C_3 
REMARK    2  A    between atoms: C_3  and  N_4 
REMARK    3  A    between atoms: C_3  and  C_17 
REMARK    4  A    between atoms: N_4  and  C_5 
REMARK    5  A    between atoms: C_5  and  C_6 
REMARK       I    between atoms: C_6  and  N_7 
REMARK    6  A    between atoms: N_7  and  C_8 
ROOT
HETATM    1  N   UNL     1       5.340  24.920  53.836  1.00  0.00     0.101 N 
HETATM    2  H   UNL     1       4.682  24.798  54.607  1.00  0.00     0.317 HD
ENDROOT
BRANCH   1   3
HETATM    3  C   UNL     1       6.713  24.921  54.386  1.00  0.00     0.256 C 
BRANCH   3   4
HETATM    4  C   UNL     1       6.810  25.597  55.779  1.00  0.00     0.036 C 
HETATM    5  C   UNL     1       5.529  25.579  56.609  1.00  0.00     0.007 C 
ENDBRANCH   3   4
BRANCH   3   6
HETATM    6  C   UNL     1       7.315  23.520  54.415  1.00  0.00     0.013 A 
HETATM    7  C   UNL     1       7.943  23.029  53.256  1.00  0.00     0.127 A 
HETATM    8  F   UNL     1       7.984  23.788  52.152  1.00  0.00    -0.205 F 
HETATM    9  C   UNL     1       8.536  21.773  53.216  1.00  0.00     0.085 A 
HETATM   10  C   UNL     1       8.499  20.979  54.350  1.00  0.00     0.119 A 
HETATM   11  F   UNL     1       9.066  19.766  54.328  1.00  0.00    -0.206 F 
HETATM   12  C   UNL     1       7.885  21.424  55.516  1.00  0.00     0.043 A 
HETATM   13  C   UNL     1       7.296  22.692  55.551  1.00  0.00     0.015 A 
ENDBRANCH   3   6
ENDBRANCH   1   3
BRANCH   1  14
HETATM   14  C   UNL     1       5.016  26.201  53.165  1.00  0.00     0.372 C 
BRANCH  14  15
HETATM   15  C   UNL     1       5.201  26.076  51.645  1.00  0.00     0.250 C 
HETATM   16  N   UNL     1       4.507  27.046  50.953  1.00  0.00    -0.322 N 
HETATM   17  H   UNL     1       3.933  27.649  51.535  1.00  0.00     0.169 HD
HETATM   18  O   UNL     1       5.870  25.165  51.172  1.00  0.00    -0.271 OA
BRANCH  16  19
HETATM   19  C   UNL     1       4.506  27.284  49.592  1.00  0.00     0.085 A 
HETATM   20  C   UNL     1       4.023  26.560  48.463  1.00  0.00     0.079 A 
HETATM   21  C   UNL     1       3.346  25.241  48.378  1.00  0.00     0.075 C 
HETATM   22  N   UNL     1       4.278  27.214  47.318  1.00  0.00    -0.177 NA
HETATM   23  N   UNL     1       4.906  28.326  47.705  1.00  0.00    -0.280 N 
HETATM   24  H   UNL     1       5.193  28.983  46.987  1.00  0.00     0.189 HD
HETATM   25  C   UNL     1       5.083  28.421  49.055  1.00  0.00     0.052 A 
HETATM   26  C   UNL     1       5.768  29.581  49.671  1.00  0.00     0.072 C 
ENDBRANCH  16  19
ENDBRANCH  14  15
ENDBRANCH   1  14
TORSDOF 6
ENDMDL
MODEL 7
REMARK VINA RESULT:      -7.6      3.477      8.270
REMARK  6 active torsions:
REMARK  status: ('A' for Active; 'I' for Inactive)
REMARK    1  A    between atoms: C_2  and  C_3 
REMARK    2  A    between atoms: C_3  and  N_4 
REMARK    3  A    between atoms: C_3  and  C_17 
REMARK    4  A    between atoms: N_4  and  C_5 
REMARK    5  A    between atoms: C_5  and  C_6 
REMARK       I    between atoms: C_6  and  N_7 
REMARK    6  A    between atoms: N_7  and  C_8 
ROOT
HETATM    1  N   UNL     1       5.904  25.058  55.168  1.00  0.00     0.101 N 
HETATM    2  H   UNL     1       5.314  24.901  55.987  1.00  0.00     0.317 HD
ENDROOT
BRANCH   1   3
HETATM    3  C   UNL     1       7.267  24.571  55.472  1.00  0.00     0.256 C 
BRANCH   3   4
HETATM    4  C   UNL     1       7.545  24.446  56.993  1.00  0.00     0.036 C 
HETATM    5  C   UNL     1       8.997  24.657  57.414  1.00  0.00     0.007 C 
ENDBRANCH   3   4
BRANCH   3   6
HETATM    6  C   UNL     1       7.578  23.263  54.750  1.00  0.00     0.013 A 
HETATM    7  C   UNL     1       7.963  23.311  53.399  1.00  0.00     0.127 A 
HETATM    8  F   UNL     1       8.032  24.493  52.770  1.00  0.00    -0.205 F 
HETATM    9  C   UNL     1       8.285  22.164  52.684  1.00  0.00     0.085 A 
HETATM   10  C   UNL     1       8.217  20.937  53.323  1.00  0.00     0.119 A 
HETATM   11  F   UNL     1       8.525  19.821  52.648  1.00  0.00    -0.206 F 
HETATM   12  C   UNL     1       7.836  20.844  54.657  1.00  0.00     0.043 A 
HETATM   13  C   UNL     1       7.519  22.004  55.372  1.00  0.00     0.015 A 
ENDBRANCH   3   6
ENDBRANCH   1   3
BRANCH   1  14
HETATM   14  C   UNL     1       5.892  26.511  54.876  1.00  0.00     0.372 C 
BRANCH  14  15
HETATM   15  C   UNL     1       5.498  27.310  56.128  1.00  0.00     0.250 C 
HETATM   16  N   UNL     1       6.111  28.544  56.173  1.00  0.00    -0.322 N 
HETATM   17  H   UNL     1       6.772  28.714  55.421  1.00  0.00     0.169 HD
HETATM   18  O   UNL     1       4.752  26.822  56.968  1.00  0.00    -0.271 OA
BRANCH  16  19
HETATM   19  C   UNL     1       5.931  29.549  57.104  1.00  0.00     0.085 A 
HETATM   20  C   UNL     1       4.848  30.421  57.419  1.00  0.00     0.079 A 
HETATM   21  C   UNL     1       3.501  30.550  56.808  1.00  0.00     0.075 C 
HETATM   22  N   UNL     1       5.169  31.258  58.419  1.00  0.00    -0.177 NA
HETATM   23  N   UNL     1       6.424  30.929  58.735  1.00  0.00    -0.280 N 
HETATM   24  H   UNL     1       6.875  31.443  59.484  1.00  0.00     0.189 HD
HETATM   25  C   UNL     1       6.940  29.919  57.974  1.00  0.00     0.052 A 
HETATM   26  C   UNL     1       8.321  29.424  58.173  1.00  0.00     0.072 C 
ENDBRANCH  16  19
ENDBRANCH  14  15
ENDBRANCH   1  14
TORSDOF 6
ENDMDL
MODEL 8
REMARK VINA RESULT:      -7.6      3.743      8.104
REMARK  6 active torsions:
REMARK  status: ('A' for Active; 'I' for Inactive)
REMARK    1  A    between atoms: C_2  and  C_3 
REMARK    2  A    between atoms: C_3  and  N_4 
REMARK    3  A    between atoms: C_3  and  C_17 
REMARK    4  A    between atoms: N_4  and  C_5 
REMARK    5  A    between atoms: C_5  and  C_6 
REMARK       I    between atoms: C_6  and  N_7 
REMARK    6  A    between atoms: N_7  and  C_8 
ROOT
HETATM    1  N   UNL     1       6.866  27.052  56.141  1.00  0.00     0.101 N 
HETATM    2  H   UNL     1       7.689  27.561  55.813  1.00  0.00     0.317 HD
ENDROOT
BRANCH   1   3
HETATM    3  C   UNL     1       6.096  26.598  54.963  1.00  0.00     0.256 C 
BRANCH   3   4
HETATM    4  C   UNL     1       5.841  27.727  53.929  1.00  0.00     0.036 C 
HETATM    5  C   UNL     1       4.375  28.008  53.612  1.00  0.00     0.007 C 
ENDBRANCH   3   4
BRANCH   3   6
HETATM    6  C   UNL     1       6.734  25.382  54.299  1.00  0.00     0.013 A 
HETATM    7  C   UNL     1       6.749  24.161  54.994  1.00  0.00     0.127 A 
HETATM    8  F   UNL     1       6.223  24.092  56.226  1.00  0.00    -0.205 F 
HETATM    9  C   UNL     1       7.290  23.005  54.443  1.00  0.00     0.085 A 
HETATM   10  C   UNL     1       7.838  23.065  53.172  1.00  0.00     0.119 A 
HETATM   11  F   UNL     1       8.363  21.960  52.626  1.00  0.00    -0.206 F 
HETATM   12  C   UNL     1       7.847  24.254  52.451  1.00  0.00     0.043 A 
HETATM   13  C   UNL     1       7.295  25.411  53.010  1.00  0.00     0.015 A 
ENDBRANCH   3   6
ENDBRANCH   1   3
BRANCH   1  14
HETATM   14  C   UNL     1       6.077  27.971  56.994  1.00  0.00     0.372 C 
BRANCH  14  15
HETATM   15  C   UNL     1       6.776  29.335  57.107  1.00  0.00     0.250 C 
HETATM   16  N   UNL     1       7.857  29.297  57.962  1.00  0.00    -0.322 N 
HETATM   17  H   UNL     1       7.991  28.406  58.434  1.00  0.00     0.169 HD
HETATM   18  O   UNL     1       6.339  30.311  56.509  1.00  0.00    -0.271 OA
BRANCH  16  19
HETATM   19  C   UNL     1       8.757  30.307  58.241  1.00  0.00     0.085 A 
HETATM   20  C   UNL     1      10.091  30.587  57.821  1.00  0.00     0.079 A 
HETATM   21  C   UNL     1      10.996  29.836  56.915  1.00  0.00     0.075 C 
HETATM   22  N   UNL     1      10.559  31.707  58.394  1.00  0.00    -0.177 NA
HETATM   23  N   UNL     1       9.551  32.133  59.159  1.00  0.00    -0.280 N 
HETATM   24  H   UNL     1       9.687  32.986  59.692  1.00  0.00     0.189 HD
HETATM   25  C   UNL     1       8.448  31.331  59.119  1.00  0.00     0.052 A 
HETATM   26  C   UNL     1       7.233  31.637  59.909  1.00  0.00     0.072 C 
ENDBRANCH  16  19
ENDBRANCH  14  15
ENDBRANCH   1  14
TORSDOF 6
ENDMDL
MODEL 9
REMARK VINA RESULT:      -7.3      3.541      8.108
REMARK  6 active torsions:
REMARK  status: ('A' for Active; 'I' for Inactive)
REMARK    1  A    between atoms: C_2  and  C_3 
REMARK    2  A    between atoms: C_3  and  N_4 
REMARK    3  A    between atoms: C_3  and  C_17 
REMARK    4  A    between atoms: N_4  and  C_5 
REMARK    5  A    between atoms: C_5  and  C_6 
REMARK       I    between atoms: C_6  and  N_7 
REMARK    6  A    between atoms: N_7  and  C_8 
ROOT
HETATM    1  N   UNL     1       7.574  26.354  56.144  1.00  0.00     0.101 N 
HETATM    2  H   UNL     1       6.881  27.105  56.116  1.00  0.00     0.317 HD
ENDROOT
BRANCH   1   3
HETATM    3  C   UNL     1       6.881  25.089  56.468  1.00  0.00     0.256 C 
BRANCH   3   4
HETATM    4  C   UNL     1       5.349  25.260  56.643  1.00  0.00     0.036 C 
HETATM    5  C   UNL     1       4.840  26.699  56.606  1.00  0.00     0.007 C 
ENDBRANCH   3   4
BRANCH   3   6
HETATM    6  C   UNL     1       7.197  23.991  55.457  1.00  0.00     0.013 A 
HETATM    7  C   UNL     1       6.923  24.224  54.098  1.00  0.00     0.127 A 
HETATM    8  F   UNL     1       6.377  25.389  53.721  1.00  0.00    -0.205 F 
HETATM    9  C   UNL     1       7.208  23.281  53.117  1.00  0.00     0.085 A 
HETATM   10  C   UNL     1       7.771  22.073  53.495  1.00  0.00     0.119 A 
HETATM   11  F   UNL     1       8.051  21.153  52.562  1.00  0.00    -0.206 F 
HETATM   12  C   UNL     1       8.054  21.801  54.829  1.00  0.00     0.043 A 
HETATM   13  C   UNL     1       7.770  22.757  55.809  1.00  0.00     0.015 A 
ENDBRANCH   3   6
ENDBRANCH   1   3
BRANCH   1  14
HETATM   14  C   UNL     1       8.582  26.709  57.171  1.00  0.00     0.372 C 
BRANCH  14  15
HETATM   15  C   UNL     1       8.645  28.232  57.361  1.00  0.00     0.250 C 
HETATM   16  N   UNL     1       7.454  28.749  57.824  1.00  0.00    -0.322 N 
HETATM   17  H   UNL     1       6.702  28.070  57.906  1.00  0.00     0.169 HD
HETATM   18  O   UNL     1       9.660  28.855  57.072  1.00  0.00    -0.271 OA
BRANCH  16  19
HETATM   19  C   UNL     1       7.174  30.055  58.180  1.00  0.00     0.085 A 
HETATM   20  C   UNL     1       7.695  30.944  59.166  1.00  0.00     0.079 A 
HETATM   21  C   UNL     1       8.747  30.738  60.193  1.00  0.00     0.075 C 
HETATM   22  N   UNL     1       7.072  32.133  59.129  1.00  0.00    -0.177 NA
HETATM   23  N   UNL     1       6.177  32.008  58.146  1.00  0.00    -0.280 N 
HETATM   24  H   UNL     1       5.587  32.806  57.937  1.00  0.00     0.189 HD
HETATM   25  C   UNL     1       6.182  30.782  57.546  1.00  0.00     0.052 A 
HETATM   26  C   UNL     1       5.254  30.453  56.440  1.00  0.00     0.072 C 
ENDBRANCH  16  19
ENDBRANCH  14  15
ENDBRANCH   1  14
TORSDOF 6
ENDMDL
MODEL 10
REMARK VINA RESULT:      -7.2      4.696      9.217
REMARK  6 active torsions:
REMARK  status: ('A' for Active; 'I' for Inactive)
REMARK    1  A    between atoms: C_2  and  C_3 
REMARK    2  A    between atoms: C_3  and  N_4 
REMARK    3  A    between atoms: C_3  and  C_17 
REMARK    4  A    between atoms: N_4  and  C_5 
REMARK    5  A    between atoms: C_5  and  C_6 
REMARK       I    between atoms: C_6  and  N_7 
REMARK    6  A    between atoms: N_7  and  C_8 
ROOT
HETATM    1  N   UNL     1       7.293  29.900  57.929  1.00  0.00     0.101 N 
HETATM    2  H   UNL     1       6.548  29.256  58.200  1.00  0.00     0.317 HD
ENDROOT
BRANCH   1   3
HETATM    3  C   UNL     1       8.031  29.311  56.791  1.00  0.00     0.256 C 
BRANCH   3   4
HETATM    4  C   UNL     1       9.503  28.964  57.133  1.00  0.00     0.036 C 
HETATM    5  C   UNL     1      10.560  29.758  56.370  1.00  0.00     0.007 C 
ENDBRANCH   3   4
BRANCH   3   6
HETATM    6  C   UNL     1       7.305  28.102  56.207  1.00  0.00     0.013 A 
HETATM    7  C   UNL     1       7.533  27.760  54.863  1.00  0.00     0.127 A 
HETATM    8  F   UNL     1       8.363  28.507  54.120  1.00  0.00    -0.205 F 
HETATM    9  C   UNL     1       6.928  26.658  54.270  1.00  0.00     0.085 A 
HETATM   10  C   UNL     1       6.068  25.880  55.027  1.00  0.00     0.119 A 
HETATM   11  F   UNL     1       5.476  24.815  54.471  1.00  0.00    -0.206 F 
HETATM   12  C   UNL     1       5.811  26.186  56.359  1.00  0.00     0.043 A 
HETATM   13  C   UNL     1       6.429  27.293  56.951  1.00  0.00     0.015 A 
ENDBRANCH   3   6
ENDBRANCH   1   3
BRANCH   1  14
HETATM   14  C   UNL     1       8.168  30.100  59.108  1.00  0.00     0.372 C 
BRANCH  14  15
HETATM   15  C   UNL     1       7.975  31.508  59.691  1.00  0.00     0.250 C 
HETATM   16  N   UNL     1       6.925  31.564  60.582  1.00  0.00    -0.322 N 
HETATM   17  H   UNL     1       6.401  30.698  60.671  1.00  0.00     0.169 HD
HETATM   18  O   UNL     1       8.686  32.437  59.324  1.00  0.00    -0.271 OA
BRANCH  16  19
HETATM   19  C   UNL     1       6.516  32.639  61.348  1.00  0.00     0.085 A 
HETATM   20  C   UNL     1       6.925  33.167  62.608  1.00  0.00     0.079 A 
HETATM   21  C   UNL     1       7.964  32.700  63.560  1.00  0.00     0.075 C 
HETATM   22  N   UNL     1       6.196  34.242  62.947  1.00  0.00    -0.177 NA
HETATM   23  N   UNL     1       5.344  34.398  61.932  1.00  0.00    -0.280 N 
HETATM   24  H   UNL     1       4.687  35.170  61.977  1.00  0.00     0.189 HD
HETATM   25  C   UNL     1       5.478  33.461  60.947  1.00  0.00     0.052 A 
HETATM   26  C   UNL     1       4.614  33.467  59.745  1.00  0.00     0.072 C 
ENDBRANCH  16  19
ENDBRANCH  14  15
ENDBRANCH   1  14
TORSDOF 6
ENDMDL
