MODEL 1
REMARK VINA RESULT:     -10.1      0.000      0.000
REMARK  5 active torsions:
REMARK  status: ('A' for Active; 'I' for Inactive)
REMARK    1  A    between atoms: N_7  and  N_8 
REMARK       I    between atoms: N_8  and  C_9 
REMARK    2  A    between atoms: C_9  and  C_10 
REMARK    3  A    between atoms: C_13  and  O_14 
REMARK    4  A    between atoms: O_14  and  C_15 
REMARK    5  A    between atoms: C_15  and  C_16 
ROOT
HETATM    1  N   UNL     1       7.004  27.505  55.359  1.00  0.00    -0.242 N 
HETATM    2  C   UNL     1       8.067  28.391  55.253  1.00  0.00     0.271 C 
HETATM    3  O   UNL     1       8.701  28.636  54.231  1.00  0.00    -0.266 OA
HETATM    4  H   UNL     1       6.715  27.190  56.272  1.00  0.00     0.192 HD
ENDROOT
BRANCH   2   5
HETATM    5  C   UNL     1       8.461  29.073  56.515  1.00  0.00     0.033 A 
HETATM    6  C   UNL     1       9.707  29.707  56.569  1.00  0.00     0.020 A 
HETATM    7  C   UNL     1      10.095  30.414  57.711  1.00  0.00     0.038 A 
HETATM    8  C   UNL     1       9.227  30.509  58.800  1.00  0.00     0.069 A 
HETATM    9  C   UNL     1       7.990  29.857  58.753  1.00  0.00     0.038 A 
HETATM   10  C   UNL     1       7.599  29.147  57.614  1.00  0.00     0.020 A 
BRANCH   8  11
HETATM   11  O   UNL     1       9.467  31.206  59.952  1.00  0.00    -0.347 OA
BRANCH  11  12
HETATM   12  C   UNL     1       8.887  30.681  61.146  1.00  0.00     0.214 C 
BRANCH  12  13
HETATM   13  C   UNL     1       8.107  31.782  61.825  1.00  0.00    -0.034 A 
HETATM   14  C   UNL     1       7.178  32.544  61.102  1.00  0.00     0.011 A 
HETATM   15  C   UNL     1       6.458  33.564  61.730  1.00  0.00     0.024 A 
HETATM   16  C   UNL     1       6.668  33.831  63.080  1.00  0.00     0.034 A 
HETATM   17 CL   UNL     1       5.782  35.086  63.854  1.00  0.00    -0.084 Cl
HETATM   18  C   UNL     1       7.594  33.088  63.810  1.00  0.00     0.024 A 
HETATM   19  C   UNL     1       8.313  32.068  63.184  1.00  0.00     0.011 A 
ENDBRANCH  12  13
ENDBRANCH  11  12
ENDBRANCH   8  11
ENDBRANCH   2   5
BRANCH   1  20
HETATM   20  N   UNL     1       6.624  26.805  54.260  1.00  0.00    -0.166 NA
HETATM   21  C   UNL     1       6.861  25.537  54.152  1.00  0.00     0.157 A 
HETATM   22  C   UNL     1       7.454  24.522  55.038  1.00  0.00     0.027 A 
HETATM   23  C   UNL     1       6.503  24.791  52.846  1.00  0.00     0.277 A 
HETATM   24  C   UNL     1       7.904  24.543  56.346  1.00  0.00     0.016 A 
HETATM   25  C   UNL     1       7.481  23.334  54.298  1.00  0.00     0.048 A 
HETATM   26  C   UNL     1       8.419  23.356  56.882  1.00  0.00     0.001 A 
HETATM   27  C   UNL     1       8.463  22.174  56.121  1.00  0.00     0.002 A 
HETATM   28  C   UNL     1       7.982  22.154  54.811  1.00  0.00     0.030 A 
HETATM   29  N   UNL     1       6.933  23.498  53.033  1.00  0.00    -0.321 N 
HETATM   30  H   UNL     1       6.821  22.784  52.330  1.00  0.00     0.169 HD
HETATM   31  O   UNL     1       5.963  25.252  51.866  1.00  0.00    -0.266 OA
ENDBRANCH   1  20
TORSDOF 5
ENDMDL
MODEL 2
REMARK VINA RESULT:     -10.0      4.703     10.354
REMARK  5 active torsions:
REMARK  status: ('A' for Active; 'I' for Inactive)
REMARK    1  A    between atoms: N_7  and  N_8 
REMARK       I    between atoms: N_8  and  C_9 
REMARK    2  A    between atoms: C_9  and  C_10 
REMARK    3  A    between atoms: C_13  and  O_14 
REMARK    4  A    between atoms: O_14  and  C_15 
REMARK    5  A    between atoms: C_15  and  C_16 
ROOT
HETATM    1  N   UNL     1       5.960  31.044  58.713  1.00  0.00    -0.242 N 
HETATM    2  C   UNL     1       5.461  30.295  57.657  1.00  0.00     0.271 C 
HETATM    3  O   UNL     1       4.468  30.565  56.988  1.00  0.00    -0.266 OA
HETATM    4  H   UNL     1       6.619  30.622  59.349  1.00  0.00     0.192 HD
ENDROOT
BRANCH   2   5
HETATM    5  C   UNL     1       6.208  29.047  57.348  1.00  0.00     0.033 A 
HETATM    6  C   UNL     1       7.590  29.027  57.564  1.00  0.00     0.020 A 
HETATM    7  C   UNL     1       8.325  27.857  57.347  1.00  0.00     0.038 A 
HETATM    8  C   UNL     1       7.677  26.692  56.935  1.00  0.00     0.069 A 
HETATM    9  C   UNL     1       6.298  26.719  56.700  1.00  0.00     0.038 A 
HETATM   10  C   UNL     1       5.559  27.887  56.911  1.00  0.00     0.020 A 
BRANCH   8  11
HETATM   11  O   UNL     1       8.271  25.477  56.734  1.00  0.00    -0.347 OA
BRANCH  11  12
HETATM   12  C   UNL     1       7.473  24.326  57.005  1.00  0.00     0.214 C 
BRANCH  12  13
HETATM   13  C   UNL     1       7.683  23.325  55.893  1.00  0.00    -0.034 A 
HETATM   14  C   UNL     1       8.103  22.019  56.182  1.00  0.00     0.011 A 
HETATM   15  C   UNL     1       8.299  21.094  55.153  1.00  0.00     0.024 A 
HETATM   16  C   UNL     1       8.081  21.472  53.831  1.00  0.00     0.034 A 
HETATM   17 CL   UNL     1       8.322  20.333  52.563  1.00  0.00    -0.084 Cl
HETATM   18  C   UNL     1       7.671  22.768  53.526  1.00  0.00     0.024 A 
HETATM   19  C   UNL     1       7.475  23.693  54.554  1.00  0.00     0.011 A 
ENDBRANCH  12  13
ENDBRANCH  11  12
ENDBRANCH   8  11
ENDBRANCH   2   5
BRANCH   1  20
HETATM   20  N   UNL     1       5.297  32.168  59.089  1.00  0.00    -0.166 NA
HETATM   21  C   UNL     1       5.547  32.754  60.216  1.00  0.00     0.157 A 
HETATM   22  C   UNL     1       6.517  32.530  61.300  1.00  0.00     0.027 A 
HETATM   23  C   UNL     1       4.706  33.974  60.657  1.00  0.00     0.277 A 
HETATM   24  C   UNL     1       7.572  31.650  61.469  1.00  0.00     0.016 A 
HETATM   25  C   UNL     1       6.227  33.486  62.280  1.00  0.00     0.048 A 
HETATM   26  C   UNL     1       8.303  31.723  62.661  1.00  0.00     0.001 A 
HETATM   27  C   UNL     1       7.986  32.673  63.649  1.00  0.00     0.002 A 
HETATM   28  C   UNL     1       6.939  33.575  63.460  1.00  0.00     0.030 A 
HETATM   29  N   UNL     1       5.179  34.313  61.903  1.00  0.00    -0.321 N 
HETATM   30  H   UNL     1       4.805  35.088  62.430  1.00  0.00     0.169 HD
HETATM   31  O   UNL     1       3.817  34.511  60.036  1.00  0.00    -0.266 OA
ENDBRANCH   1  20
TORSDOF 5
ENDMDL
MODEL 3
REMARK VINA RESULT:      -9.9      4.710     10.443
REMARK  5 active torsions:
REMARK  status: ('A' for Active; 'I' for Inactive)
REMARK    1  A    between atoms: N_7  and  N_8 
REMARK       I    between atoms: N_8  and  C_9 
REMARK    2  A    between atoms: C_9  and  C_10 
REMARK    3  A    between atoms: C_13  and  O_14 
REMARK    4  A    between atoms: O_14  and  C_15 
REMARK    5  A    between atoms: C_15  and  C_16 
ROOT
HETATM    1  N   UNL     1       4.900  31.347  59.311  1.00  0.00    -0.242 N 
HETATM    2  C   UNL     1       5.753  31.564  58.238  1.00  0.00     0.271 C 
HETATM    3  O   UNL     1       6.076  32.658  57.785  1.00  0.00    -0.266 OA
HETATM    4  H   UNL     1       4.505  30.430  59.449  1.00  0.00     0.192 HD
ENDROOT
BRANCH   2   5
HETATM    5  C   UNL     1       6.288  30.339  57.587  1.00  0.00     0.033 A 
HETATM    6  C   UNL     1       7.340  29.658  58.210  1.00  0.00     0.020 A 
HETATM    7  C   UNL     1       7.834  28.468  57.669  1.00  0.00     0.038 A 
HETATM    8  C   UNL     1       7.262  27.937  56.512  1.00  0.00     0.069 A 
HETATM    9  C   UNL     1       6.224  28.629  55.879  1.00  0.00     0.038 A 
HETATM   10  C   UNL     1       5.729  29.822  56.414  1.00  0.00     0.020 A 
BRANCH   8  11
HETATM   11  O   UNL     1       7.621  26.762  55.912  1.00  0.00    -0.347 OA
BRANCH  11  12
HETATM   12  C   UNL     1       6.840  26.357  54.788  1.00  0.00     0.214 C 
BRANCH  12  13
HETATM   13  C   UNL     1       7.212  24.937  54.433  1.00  0.00    -0.034 A 
HETATM   14  C   UNL     1       7.175  23.928  55.407  1.00  0.00     0.011 A 
HETATM   15  C   UNL     1       7.521  22.614  55.078  1.00  0.00     0.024 A 
HETATM   16  C   UNL     1       7.911  22.305  53.778  1.00  0.00     0.034 A 
HETATM   17 CL   UNL     1       8.337  20.687  53.373  1.00  0.00    -0.084 Cl
HETATM   18  C   UNL     1       7.960  23.297  52.801  1.00  0.00     0.024 A 
HETATM   19  C   UNL     1       7.614  24.610  53.128  1.00  0.00     0.011 A 
ENDBRANCH  12  13
ENDBRANCH  11  12
ENDBRANCH   8  11
ENDBRANCH   2   5
BRANCH   1  20
HETATM   20  N   UNL     1       4.328  32.417  59.920  1.00  0.00    -0.166 NA
HETATM   21  C   UNL     1       4.835  32.934  60.993  1.00  0.00     0.157 A 
HETATM   22  C   UNL     1       6.044  32.671  61.790  1.00  0.00     0.027 A 
HETATM   23  C   UNL     1       4.104  34.090  61.715  1.00  0.00     0.277 A 
HETATM   24  C   UNL     1       7.125  31.821  61.631  1.00  0.00     0.016 A 
HETATM   25  C   UNL     1       5.985  33.547  62.880  1.00  0.00     0.048 A 
HETATM   26  C   UNL     1       8.123  31.839  62.613  1.00  0.00     0.001 A 
HETATM   27  C   UNL     1       8.040  32.707  63.717  1.00  0.00     0.002 A 
HETATM   28  C   UNL     1       6.961  33.581  63.855  1.00  0.00     0.030 A 
HETATM   29  N   UNL     1       4.861  34.359  62.831  1.00  0.00    -0.321 N 
HETATM   30  H   UNL     1       4.613  35.082  63.490  1.00  0.00     0.169 HD
HETATM   31  O   UNL     1       3.080  34.635  61.371  1.00  0.00    -0.266 OA
ENDBRANCH   1  20
TORSDOF 5
ENDMDL
MODEL 4
REMARK VINA RESULT:      -9.8      6.716     10.457
REMARK  5 active torsions:
REMARK  status: ('A' for Active; 'I' for Inactive)
REMARK    1  A    between atoms: N_7  and  N_8 
REMARK       I    between atoms: N_8  and  C_9 
REMARK    2  A    between atoms: C_9  and  C_10 
REMARK    3  A    between atoms: C_13  and  O_14 
REMARK    4  A    between atoms: O_14  and  C_15 
REMARK    5  A    between atoms: C_15  and  C_16 
ROOT
HETATM    1  N   UNL     1       7.173  26.218  54.077  1.00  0.00    -0.242 N 
HETATM    2  C   UNL     1       5.896  26.718  53.865  1.00  0.00     0.271 C 
HETATM    3  O   UNL     1       5.085  27.015  54.737  1.00  0.00    -0.266 OA
HETATM    4  H   UNL     1       7.662  25.778  53.313  1.00  0.00     0.192 HD
ENDROOT
BRANCH   2   5
HETATM    5  C   UNL     1       5.498  26.877  52.441  1.00  0.00     0.033 A 
HETATM    6  C   UNL     1       5.431  28.168  51.907  1.00  0.00     0.020 A 
HETATM    7  C   UNL     1       5.122  28.364  50.558  1.00  0.00     0.038 A 
HETATM    8  C   UNL     1       4.902  27.264  49.726  1.00  0.00     0.069 A 
HETATM    9  C   UNL     1       4.950  25.974  50.265  1.00  0.00     0.038 A 
HETATM   10  C   UNL     1       5.254  25.774  51.615  1.00  0.00     0.020 A 
BRANCH   8  11
HETATM   11  O   UNL     1       4.640  27.319  48.385  1.00  0.00    -0.347 OA
BRANCH  11  12
HETATM   12  C   UNL     1       3.555  26.519  47.917  1.00  0.00     0.214 C 
BRANCH  12  13
HETATM   13  C   UNL     1       2.490  27.435  47.361  1.00  0.00    -0.034 A 
HETATM   14  C   UNL     1       2.763  28.795  47.148  1.00  0.00     0.011 A 
HETATM   15  C   UNL     1       1.777  29.642  46.635  1.00  0.00     0.024 A 
HETATM   16  C   UNL     1       0.514  29.136  46.338  1.00  0.00     0.034 A 
HETATM   17 CL   UNL     1      -0.700  30.180  45.706  1.00  0.00    -0.084 Cl
HETATM   18  C   UNL     1       0.225  27.790  46.551  1.00  0.00     0.024 A 
HETATM   19  C   UNL     1       1.210  26.942  47.063  1.00  0.00     0.011 A 
ENDBRANCH  12  13
ENDBRANCH  11  12
ENDBRANCH   8  11
ENDBRANCH   2   5
BRANCH   1  20
HETATM   20  N   UNL     1       7.585  25.994  55.350  1.00  0.00    -0.166 NA
HETATM   21  C   UNL     1       7.837  24.798  55.778  1.00  0.00     0.157 A 
HETATM   22  C   UNL     1       7.852  23.464  55.156  1.00  0.00     0.027 A 
HETATM   23  C   UNL     1       8.209  24.569  57.262  1.00  0.00     0.277 A 
HETATM   24  C   UNL     1       7.676  23.015  53.859  1.00  0.00     0.016 A 
HETATM   25  C   UNL     1       8.149  22.563  56.185  1.00  0.00     0.048 A 
HETATM   26  C   UNL     1       7.764  21.637  53.624  1.00  0.00     0.001 A 
HETATM   27  C   UNL     1       8.039  20.739  54.671  1.00  0.00     0.002 A 
HETATM   28  C   UNL     1       8.243  21.202  55.972  1.00  0.00     0.030 A 
HETATM   29  N   UNL     1       8.350  23.208  57.397  1.00  0.00    -0.321 N 
HETATM   30  H   UNL     1       8.598  22.775  58.274  1.00  0.00     0.169 HD
HETATM   31  O   UNL     1       8.342  25.412  58.120  1.00  0.00    -0.266 OA
ENDBRANCH   1  20
TORSDOF 5
ENDMDL
MODEL 5
REMARK VINA RESULT:      -9.6      1.591      2.209
REMARK  5 active torsions:
REMARK  status: ('A' for Active; 'I' for Inactive)
REMARK    1  A    between atoms: N_7  and  N_8 
REMARK       I    between atoms: N_8  and  C_9 
REMARK    2  A    between atoms: C_9  and  C_10 
REMARK    3  A    between atoms: C_13  and  O_14 
REMARK    4  A    between atoms: O_14  and  C_15 
REMARK    5  A    between atoms: C_15  and  C_16 
ROOT
HETATM    1  N   UNL     1       7.040  28.765  54.416  1.00  0.00    -0.242 N 
HETATM    2  C   UNL     1       6.165  28.989  55.470  1.00  0.00     0.271 C 
HETATM    3  O   UNL     1       4.958  28.771  55.463  1.00  0.00    -0.266 OA
HETATM    4  H   UNL     1       7.950  29.200  54.430  1.00  0.00     0.192 HD
ENDROOT
BRANCH   2   5
HETATM    5  C   UNL     1       6.775  29.569  56.697  1.00  0.00     0.033 A 
HETATM    6  C   UNL     1       6.130  30.643  57.318  1.00  0.00     0.020 A 
HETATM    7  C   UNL     1       6.632  31.180  58.508  1.00  0.00     0.038 A 
HETATM    8  C   UNL     1       7.771  30.629  59.096  1.00  0.00     0.069 A 
HETATM    9  C   UNL     1       8.427  29.568  58.463  1.00  0.00     0.038 A 
HETATM   10  C   UNL     1       7.931  29.030  57.271  1.00  0.00     0.020 A 
BRANCH   8  11
HETATM   11  O   UNL     1       8.332  31.030  60.277  1.00  0.00    -0.347 OA
BRANCH  11  12
HETATM   12  C   UNL     1       8.412  32.437  60.497  1.00  0.00     0.214 C 
BRANCH  12  13
HETATM   13  C   UNL     1       7.670  32.766  61.772  1.00  0.00    -0.034 A 
HETATM   14  C   UNL     1       8.268  32.538  63.020  1.00  0.00     0.011 A 
HETATM   15  C   UNL     1       7.581  32.840  64.199  1.00  0.00     0.024 A 
HETATM   16  C   UNL     1       6.292  33.365  64.135  1.00  0.00     0.034 A 
HETATM   17 CL   UNL     1       5.446  33.737  65.587  1.00  0.00    -0.084 Cl
HETATM   18  C   UNL     1       5.682  33.589  62.903  1.00  0.00     0.024 A 
HETATM   19  C   UNL     1       6.368  33.288  61.725  1.00  0.00     0.011 A 
ENDBRANCH  12  13
ENDBRANCH  11  12
ENDBRANCH   8  11
ENDBRANCH   2   5
BRANCH   1  20
HETATM   20  N   UNL     1       6.545  28.290  53.245  1.00  0.00    -0.166 NA
HETATM   21  C   UNL     1       6.623  27.034  52.939  1.00  0.00     0.157 A 
HETATM   22  C   UNL     1       7.113  25.834  53.635  1.00  0.00     0.027 A 
HETATM   23  C   UNL     1       6.139  26.543  51.555  1.00  0.00     0.277 A 
HETATM   24  C   UNL     1       7.600  25.602  54.910  1.00  0.00     0.016 A 
HETATM   25  C   UNL     1       6.973  24.778  52.727  1.00  0.00     0.048 A 
HETATM   26  C   UNL     1       7.981  24.296  55.240  1.00  0.00     0.001 A 
HETATM   27  C   UNL     1       7.858  23.247  54.310  1.00  0.00     0.002 A 
HETATM   28  C   UNL     1       7.340  23.483  53.036  1.00  0.00     0.030 A 
HETATM   29  N   UNL     1       6.413  25.196  51.528  1.00  0.00    -0.321 N 
HETATM   30  H   UNL     1       6.194  24.616  50.733  1.00  0.00     0.169 HD
HETATM   31  O   UNL     1       5.631  27.209  50.681  1.00  0.00    -0.266 OA
ENDBRANCH   1  20
TORSDOF 5
ENDMDL
MODEL 6
REMARK VINA RESULT:      -9.1      2.163      3.178
REMARK  5 active torsions:
REMARK  status: ('A' for Active; 'I' for Inactive)
REMARK    1  A    between atoms: N_7  and  N_8 
REMARK       I    between atoms: N_8  and  C_9 
REMARK    2  A    between atoms: C_9  and  C_10 
REMARK    3  A    between atoms: C_13  and  O_14 
REMARK    4  A    between atoms: O_14  and  C_15 
REMARK    5  A    between atoms: C_15  and  C_16 
ROOT
HETATM    1  N   UNL     1       7.029  26.206  57.426  1.00  0.00    -0.242 N 
HETATM    2  C   UNL     1       8.013  27.184  57.444  1.00  0.00     0.271 C 
HETATM    3  O   UNL     1       9.218  26.997  57.307  1.00  0.00    -0.266 OA
HETATM    4  H   UNL     1       6.113  26.421  57.789  1.00  0.00     0.192 HD
ENDROOT
BRANCH   2   5
HETATM    5  C   UNL     1       7.531  28.573  57.676  1.00  0.00     0.033 A 
HETATM    6  C   UNL     1       6.202  28.877  57.364  1.00  0.00     0.020 A 
HETATM    7  C   UNL     1       5.687  30.151  57.623  1.00  0.00     0.038 A 
HETATM    8  C   UNL     1       6.493  31.122  58.218  1.00  0.00     0.069 A 
HETATM    9  C   UNL     1       7.828  30.823  58.510  1.00  0.00     0.038 A 
HETATM   10  C   UNL     1       8.349  29.552  58.250  1.00  0.00     0.020 A 
BRANCH   8  11
HETATM   11  O   UNL     1       6.098  32.385  58.563  1.00  0.00    -0.347 OA
BRANCH  11  12
HETATM   12  C   UNL     1       5.056  32.482  59.534  1.00  0.00     0.214 C 
BRANCH  12  13
HETATM   13  C   UNL     1       5.676  32.827  60.868  1.00  0.00    -0.034 A 
HETATM   14  C   UNL     1       6.457  31.885  61.553  1.00  0.00     0.011 A 
HETATM   15  C   UNL     1       7.028  32.203  62.788  1.00  0.00     0.024 A 
HETATM   16  C   UNL     1       6.816  33.461  63.346  1.00  0.00     0.034 A 
HETATM   17 CL   UNL     1       7.519  33.853  64.867  1.00  0.00    -0.084 Cl
HETATM   18  C   UNL     1       6.036  34.405  62.682  1.00  0.00     0.024 A 
HETATM   19  C   UNL     1       5.465  34.088  61.447  1.00  0.00     0.011 A 
ENDBRANCH  12  13
ENDBRANCH  11  12
ENDBRANCH   8  11
ENDBRANCH   2   5
BRANCH   1  20
HETATM   20  N   UNL     1       7.399  24.909  57.275  1.00  0.00    -0.166 NA
HETATM   21  C   UNL     1       7.550  24.382  56.102  1.00  0.00     0.157 A 
HETATM   22  C   UNL     1       7.473  24.895  54.725  1.00  0.00     0.027 A 
HETATM   23  C   UNL     1       7.876  22.876  55.967  1.00  0.00     0.277 A 
HETATM   24  C   UNL     1       7.286  26.156  54.187  1.00  0.00     0.016 A 
HETATM   25  C   UNL     1       7.680  23.791  53.890  1.00  0.00     0.048 A 
HETATM   26  C   UNL     1       7.271  26.278  52.792  1.00  0.00     0.001 A 
HETATM   27  C   UNL     1       7.456  25.157  51.963  1.00  0.00     0.002 A 
HETATM   28  C   UNL     1       7.671  23.893  52.513  1.00  0.00     0.030 A 
HETATM   29  N   UNL     1       7.908  22.629  54.614  1.00  0.00    -0.321 N 
HETATM   30  H   UNL     1       8.105  21.715  54.236  1.00  0.00     0.169 HD
HETATM   31  O   UNL     1       8.058  22.085  56.864  1.00  0.00    -0.266 OA
ENDBRANCH   1  20
TORSDOF 5
ENDMDL
MODEL 7
REMARK VINA RESULT:      -8.5      5.095     10.643
REMARK  5 active torsions:
REMARK  status: ('A' for Active; 'I' for Inactive)
REMARK    1  A    between atoms: N_7  and  N_8 
REMARK       I    between atoms: N_8  and  C_9 
REMARK    2  A    between atoms: C_9  and  C_10 
REMARK    3  A    between atoms: C_13  and  O_14 
REMARK    4  A    between atoms: O_14  and  C_15 
REMARK    5  A    between atoms: C_15  and  C_16 
ROOT
HETATM    1  N   UNL     1       4.435  33.116  59.181  1.00  0.00    -0.242 N 
HETATM    2  C   UNL     1       3.802  31.885  59.081  1.00  0.00     0.271 C 
HETATM    3  O   UNL     1       2.971  31.437  59.864  1.00  0.00    -0.266 OA
HETATM    4  H   UNL     1       5.269  33.287  58.640  1.00  0.00     0.192 HD
ENDROOT
BRANCH   2   5
HETATM    5  C   UNL     1       4.208  31.049  57.919  1.00  0.00     0.033 A 
HETATM    6  C   UNL     1       3.284  30.847  56.889  1.00  0.00     0.020 A 
HETATM    7  C   UNL     1       3.640  30.121  55.748  1.00  0.00     0.038 A 
HETATM    8  C   UNL     1       4.934  29.612  55.622  1.00  0.00     0.069 A 
HETATM    9  C   UNL     1       5.851  29.797  56.662  1.00  0.00     0.038 A 
HETATM   10  C   UNL     1       5.497  30.519  57.806  1.00  0.00     0.020 A 
BRANCH   8  11
HETATM   11  O   UNL     1       5.419  28.928  54.541  1.00  0.00    -0.347 OA
BRANCH  11  12
HETATM   12  C   UNL     1       4.577  27.910  54.002  1.00  0.00     0.214 C 
BRANCH  12  13
HETATM   13  C   UNL     1       5.423  26.692  53.715  1.00  0.00    -0.034 A 
HETATM   14  C   UNL     1       6.778  26.665  54.076  1.00  0.00     0.011 A 
HETATM   15  C   UNL     1       7.560  25.539  53.808  1.00  0.00     0.024 A 
HETATM   16  C   UNL     1       6.993  24.437  53.173  1.00  0.00     0.034 A 
HETATM   17 CL   UNL     1       7.956  23.049  52.842  1.00  0.00    -0.084 Cl
HETATM   18  C   UNL     1       5.651  24.450  52.800  1.00  0.00     0.024 A 
HETATM   19  C   UNL     1       4.868  25.576  53.068  1.00  0.00     0.011 A 
ENDBRANCH  12  13
ENDBRANCH  11  12
ENDBRANCH   8  11
ENDBRANCH   2   5
BRANCH   1  20
HETATM   20  N   UNL     1       4.157  33.910  60.246  1.00  0.00    -0.166 NA
HETATM   21  C   UNL     1       4.893  33.894  61.311  1.00  0.00     0.157 A 
HETATM   22  C   UNL     1       6.133  33.201  61.694  1.00  0.00     0.027 A 
HETATM   23  C   UNL     1       4.490  34.738  62.543  1.00  0.00     0.277 A 
HETATM   24  C   UNL     1       7.009  32.370  61.019  1.00  0.00     0.016 A 
HETATM   25  C   UNL     1       6.385  33.569  63.022  1.00  0.00     0.048 A 
HETATM   26  C   UNL     1       8.121  31.882  61.717  1.00  0.00     0.001 A 
HETATM   27  C   UNL     1       8.350  32.239  63.058  1.00  0.00     0.002 A 
HETATM   28  C   UNL     1       7.477  33.100  63.724  1.00  0.00     0.030 A 
HETATM   29  N   UNL     1       5.430  34.453  63.505  1.00  0.00    -0.321 N 
HETATM   30  H   UNL     1       5.412  34.874  64.421  1.00  0.00     0.169 HD
HETATM   31  O   UNL     1       3.544  35.487  62.637  1.00  0.00    -0.266 OA
ENDBRANCH   1  20
TORSDOF 5
ENDMDL
MODEL 8
REMARK VINA RESULT:      -8.5      5.207     10.545
REMARK  5 active torsions:
REMARK  status: ('A' for Active; 'I' for Inactive)
REMARK    1  A    between atoms: N_7  and  N_8 
REMARK       I    between atoms: N_8  and  C_9 
REMARK    2  A    between atoms: C_9  and  C_10 
REMARK    3  A    between atoms: C_13  and  O_14 
REMARK    4  A    between atoms: O_14  and  C_15 
REMARK    5  A    between atoms: C_15  and  C_16 
ROOT
HETATM    1  N   UNL     1       3.511  31.771  57.633  1.00  0.00    -0.242 N 
HETATM    2  C   UNL     1       4.453  31.518  56.646  1.00  0.00     0.271 C 
HETATM    3  O   UNL     1       4.989  32.358  55.930  1.00  0.00    -0.266 OA
HETATM    4  H   UNL     1       2.955  31.010  57.990  1.00  0.00     0.192 HD
ENDROOT
BRANCH   2   5
HETATM    5  C   UNL     1       4.806  30.087  56.449  1.00  0.00     0.033 A 
HETATM    6  C   UNL     1       4.362  29.444  55.288  1.00  0.00     0.020 A 
HETATM    7  C   UNL     1       4.721  28.118  55.030  1.00  0.00     0.038 A 
HETATM    8  C   UNL     1       5.548  27.433  55.921  1.00  0.00     0.069 A 
HETATM    9  C   UNL     1       5.975  28.070  57.092  1.00  0.00     0.038 A 
HETATM   10  C   UNL     1       5.615  29.394  57.356  1.00  0.00     0.020 A 
BRANCH   8  11
HETATM   11  O   UNL     1       6.007  26.155  55.762  1.00  0.00    -0.347 OA
BRANCH  11  12
HETATM   12  C   UNL     1       7.361  26.014  55.332  1.00  0.00     0.214 C 
BRANCH  12  13
HETATM   13  C   UNL     1       7.530  24.643  54.722  1.00  0.00    -0.034 A 
HETATM   14  C   UNL     1       7.628  24.491  53.331  1.00  0.00     0.011 A 
HETATM   15  C   UNL     1       7.782  23.222  52.766  1.00  0.00     0.024 A 
HETATM   16  C   UNL     1       7.833  22.099  53.589  1.00  0.00     0.034 A 
HETATM   17 CL   UNL     1       8.023  20.537  52.894  1.00  0.00    -0.084 Cl
HETATM   18  C   UNL     1       7.729  22.232  54.972  1.00  0.00     0.024 A 
HETATM   19  C   UNL     1       7.575  23.500  55.536  1.00  0.00     0.011 A 
ENDBRANCH  12  13
ENDBRANCH  11  12
ENDBRANCH   8  11
ENDBRANCH   2   5
BRANCH   1  20
HETATM   20  N   UNL     1       3.098  33.049  57.831  1.00  0.00    -0.166 NA
HETATM   21  C   UNL     1       3.535  33.753  58.826  1.00  0.00     0.157 A 
HETATM   22  C   UNL     1       4.523  33.525  59.893  1.00  0.00     0.027 A 
HETATM   23  C   UNL     1       2.970  35.170  59.079  1.00  0.00     0.277 A 
HETATM   24  C   UNL     1       5.405  32.496  60.172  1.00  0.00     0.016 A 
HETATM   25  C   UNL     1       4.489  34.668  60.700  1.00  0.00     0.048 A 
HETATM   26  C   UNL     1       6.223  32.620  61.302  1.00  0.00     0.001 A 
HETATM   27  C   UNL     1       6.162  33.764  62.120  1.00  0.00     0.002 A 
HETATM   28  C   UNL     1       5.289  34.810  61.816  1.00  0.00     0.030 A 
HETATM   29  N   UNL     1       3.587  35.611  60.226  1.00  0.00    -0.321 N 
HETATM   30  H   UNL     1       3.404  36.519  60.623  1.00  0.00     0.169 HD
HETATM   31  O   UNL     1       2.153  35.760  58.410  1.00  0.00    -0.266 OA
ENDBRANCH   1  20
TORSDOF 5
ENDMDL
MODEL 9
REMARK VINA RESULT:      -8.4      7.738     11.101
REMARK  5 active torsions:
REMARK  status: ('A' for Active; 'I' for Inactive)
REMARK    1  A    between atoms: N_7  and  N_8 
REMARK       I    between atoms: N_8  and  C_9 
REMARK    2  A    between atoms: C_9  and  C_10 
REMARK    3  A    between atoms: C_13  and  O_14 
REMARK    4  A    between atoms: O_14  and  C_15 
REMARK    5  A    between atoms: C_15  and  C_16 
ROOT
HETATM    1  N   UNL     1       2.912  29.854  50.148  1.00  0.00    -0.242 N 
HETATM    2  C   UNL     1       4.181  29.481  49.726  1.00  0.00     0.271 C 
HETATM    3  O   UNL     1       4.819  30.000  48.815  1.00  0.00    -0.266 OA
HETATM    4  H   UNL     1       2.380  29.222  50.725  1.00  0.00     0.192 HD
ENDROOT
BRANCH   2   5
HETATM    5  C   UNL     1       4.785  28.331  50.451  1.00  0.00     0.033 A 
HETATM    6  C   UNL     1       5.459  28.580  51.651  1.00  0.00     0.020 A 
HETATM    7  C   UNL     1       5.989  27.524  52.399  1.00  0.00     0.038 A 
HETATM    8  C   UNL     1       5.825  26.208  51.962  1.00  0.00     0.069 A 
HETATM    9  C   UNL     1       5.168  25.963  50.751  1.00  0.00     0.038 A 
HETATM   10  C   UNL     1       4.640  27.016  49.998  1.00  0.00     0.020 A 
BRANCH   8  11
HETATM   11  O   UNL     1       6.253  25.089  52.622  1.00  0.00    -0.347 OA
BRANCH  11  12
HETATM   12  C   UNL     1       7.558  24.617  52.293  1.00  0.00     0.214 C 
BRANCH  12  13
HETATM   13  C   UNL     1       7.943  23.544  53.285  1.00  0.00    -0.034 A 
HETATM   14  C   UNL     1       8.248  23.880  54.612  1.00  0.00     0.011 A 
HETATM   15  C   UNL     1       8.606  22.888  55.529  1.00  0.00     0.024 A 
HETATM   16  C   UNL     1       8.667  21.558  55.121  1.00  0.00     0.034 A 
HETATM   17 CL   UNL     1       9.109  20.336  56.249  1.00  0.00    -0.084 Cl
HETATM   18  C   UNL     1       8.376  21.209  53.804  1.00  0.00     0.024 A 
HETATM   19  C   UNL     1       8.017  22.200  52.888  1.00  0.00     0.011 A 
ENDBRANCH  12  13
ENDBRANCH  11  12
ENDBRANCH   8  11
ENDBRANCH   2   5
BRANCH   1  20
HETATM   20  N   UNL     1       2.276  30.860  49.496  1.00  0.00    -0.166 NA
HETATM   21  C   UNL     1       1.541  30.631  48.455  1.00  0.00     0.157 A 
HETATM   22  C   UNL     1       1.116  29.416  47.742  1.00  0.00     0.027 A 
HETATM   23  C   UNL     1       0.910  31.811  47.679  1.00  0.00     0.277 A 
HETATM   24  C   UNL     1       1.289  28.063  47.976  1.00  0.00     0.016 A 
HETATM   25  C   UNL     1       0.367  29.856  46.644  1.00  0.00     0.048 A 
HETATM   26  C   UNL     1       0.728  27.162  47.062  1.00  0.00     0.001 A 
HETATM   27  C   UNL     1      -0.002  27.617  45.950  1.00  0.00     0.002 A 
HETATM   28  C   UNL     1      -0.196  28.982  45.735  1.00  0.00     0.030 A 
HETATM   29  N   UNL     1       0.256  31.239  46.613  1.00  0.00    -0.321 N 
HETATM   30  H   UNL     1      -0.253  31.785  45.935  1.00  0.00     0.169 HD
HETATM   31  O   UNL     1       0.984  32.987  47.952  1.00  0.00    -0.266 OA
ENDBRANCH   1  20
TORSDOF 5
ENDMDL
MODEL 10
REMARK VINA RESULT:      -8.2      3.058      4.028
REMARK  5 active torsions:
REMARK  status: ('A' for Active; 'I' for Inactive)
REMARK    1  A    between atoms: N_7  and  N_8 
REMARK       I    between atoms: N_8  and  C_9 
REMARK    2  A    between atoms: C_9  and  C_10 
REMARK    3  A    between atoms: C_13  and  O_14 
REMARK    4  A    between atoms: O_14  and  C_15 
REMARK    5  A    between atoms: C_15  and  C_16 
ROOT
HETATM    1  N   UNL     1       7.004  26.308  57.402  1.00  0.00    -0.242 N 
HETATM    2  C   UNL     1       7.938  27.334  57.428  1.00  0.00     0.271 C 
HETATM    3  O   UNL     1       9.157  27.200  57.377  1.00  0.00    -0.266 OA
HETATM    4  H   UNL     1       6.058  26.496  57.695  1.00  0.00     0.192 HD
ENDROOT
BRANCH   2   5
HETATM    5  C   UNL     1       7.379  28.706  57.554  1.00  0.00     0.033 A 
HETATM    6  C   UNL     1       6.128  28.971  56.986  1.00  0.00     0.020 A 
HETATM    7  C   UNL     1       5.534  30.228  57.132  1.00  0.00     0.038 A 
HETATM    8  C   UNL     1       6.178  31.223  57.869  1.00  0.00     0.069 A 
HETATM    9  C   UNL     1       7.438  30.964  58.419  1.00  0.00     0.038 A 
HETATM   10  C   UNL     1       8.038  29.709  58.272  1.00  0.00     0.020 A 
BRANCH   8  11
HETATM   11  O   UNL     1       5.685  32.473  58.124  1.00  0.00    -0.347 OA
BRANCH  11  12
HETATM   12  C   UNL     1       5.295  32.740  59.470  1.00  0.00     0.214 C 
BRANCH  12  13
HETATM   13  C   UNL     1       4.498  34.023  59.493  1.00  0.00    -0.034 A 
HETATM   14  C   UNL     1       4.063  34.610  58.295  1.00  0.00     0.011 A 
HETATM   15  C   UNL     1       3.327  35.798  58.316  1.00  0.00     0.024 A 
HETATM   16  C   UNL     1       3.029  36.407  59.532  1.00  0.00     0.034 A 
HETATM   17 CL   UNL     1       2.123  37.870  59.558  1.00  0.00    -0.084 Cl
HETATM   18  C   UNL     1       3.460  35.841  60.730  1.00  0.00     0.024 A 
HETATM   19  C   UNL     1       4.195  34.653  60.710  1.00  0.00     0.011 A 
ENDBRANCH  12  13
ENDBRANCH  11  12
ENDBRANCH   8  11
ENDBRANCH   2   5
BRANCH   1  20
HETATM   20  N   UNL     1       7.443  25.025  57.345  1.00  0.00    -0.166 NA
HETATM   21  C   UNL     1       7.647  24.431  56.213  1.00  0.00     0.157 A 
HETATM   22  C   UNL     1       7.575  24.849  54.803  1.00  0.00     0.027 A 
HETATM   23  C   UNL     1       8.052  22.939  56.184  1.00  0.00     0.277 A 
HETATM   24  C   UNL     1       7.337  26.061  54.179  1.00  0.00     0.016 A 
HETATM   25  C   UNL     1       7.857  23.705  54.048  1.00  0.00     0.048 A 
HETATM   26  C   UNL     1       7.348  26.090  52.779  1.00  0.00     0.001 A 
HETATM   27  C   UNL     1       7.609  24.929  52.030  1.00  0.00     0.002 A 
HETATM   28  C   UNL     1       7.875  23.716  52.667  1.00  0.00     0.030 A 
HETATM   29  N   UNL     1       8.128  22.606  54.852  1.00  0.00    -0.321 N 
HETATM   30  H   UNL     1       8.379  21.681  54.539  1.00  0.00     0.169 HD
HETATM   31  O   UNL     1       8.253  22.218  57.135  1.00  0.00    -0.266 OA
ENDBRANCH   1  20
TORSDOF 5
ENDMDL
