MODEL 1
REMARK VINA RESULT:     -10.5      0.000      0.000
REMARK  8 active torsions:
REMARK  status: ('A' for Active; 'I' for Inactive)
REMARK    1  A    between atoms: C_4  and  O_5 
REMARK    2  A    between atoms: O_5  and  C_6 
REMARK    3  A    between atoms: C_8  and  C_9 
REMARK    4  A    between atoms: C_9  and  N_10 
REMARK    5  A    between atoms: C_9  and  C_14 
REMARK       I    between atoms: N_10  and  C_11 
REMARK       I    between atoms: C_11  and  N_12 
REMARK    6  A    between atoms: C_14  and  C_15 
REMARK       I    between atoms: C_15  and  N_16 
REMARK    7  A    between atoms: N_16  and  N_17 
REMARK       I    between atoms: N_17  and  C_18 
REMARK    8  A    between atoms: C_18  and  C_19 
ROOT
HETATM    1  C   UNL     1       7.817  28.805  57.189  1.00  0.00     0.127 C 
ENDROOT
BRANCH   1   2
HETATM    2  C   UNL     1       7.166  27.443  56.971  1.00  0.00    -0.032 A 
HETATM    3  C   UNL     1       7.944  26.279  56.827  1.00  0.00     0.046 A 
HETATM    4  C   UNL     1       7.352  25.020  56.693  1.00  0.00     0.076 A 
HETATM    5  C   UNL     1       5.966  24.886  56.748  1.00  0.00     0.037 A 
HETATM    6  C   UNL     1       5.178  26.021  56.909  1.00  0.00     0.003 A 
HETATM    7  C   UNL     1       5.771  27.283  57.031  1.00  0.00     0.009 A 
BRANCH   4   8
HETATM    8  O   UNL     1       8.206  23.944  56.608  1.00  0.00    -0.311 OA
BRANCH   8   9
HETATM    9  C   UNL     1       8.079  23.098  55.529  1.00  0.00     0.076 A 
HETATM   10  C   UNL     1       8.178  23.527  54.204  1.00  0.00     0.037 A 
HETATM   11  C   UNL     1       8.079  22.599  53.166  1.00  0.00     0.003 A 
HETATM   12  C   UNL     1       7.903  21.244  53.453  1.00  0.00     0.000 A 
HETATM   13  C   UNL     1       7.832  20.814  54.778  1.00  0.00     0.003 A 
HETATM   14  C   UNL     1       7.926  21.740  55.816  1.00  0.00     0.037 A 
ENDBRANCH   8   9
ENDBRANCH   4   8
ENDBRANCH   1   2
BRANCH   1  15
HETATM   15  N   UNL     1       9.201  28.923  56.709  1.00  0.00    -0.339 N 
HETATM   16  C   UNL     1      10.180  29.607  57.346  1.00  0.00     0.292 C 
HETATM   17  N   UNL     1      11.362  29.572  56.688  1.00  0.00    -0.254 NA
HETATM   18  O   UNL     1      10.057  30.198  58.405  1.00  0.00    -0.254 OA
HETATM   19  H   UNL     1      11.613  28.692  56.262  1.00  0.00     0.128 HD
HETATM   20  H   UNL     1      12.112  29.995  57.223  1.00  0.00     0.128 HD
HETATM   21  H   UNL     1       9.335  28.842  55.712  1.00  0.00     0.164 HD
ENDBRANCH   1  15
BRANCH   1  22
HETATM   22  C   UNL     1       6.994  30.081  56.937  1.00  0.00     0.134 C 
BRANCH  22  23
HETATM   23  C   UNL     1       6.760  31.076  58.058  1.00  0.00     0.238 C 
HETATM   24  N   UNL     1       7.167  30.697  59.308  1.00  0.00    -0.267 N 
HETATM   25  H   UNL     1       7.885  29.982  59.471  1.00  0.00     0.190 HD
HETATM   26  O   UNL     1       6.126  32.115  57.855  1.00  0.00    -0.272 OA
BRANCH  24  27
HETATM   27  N   UNL     1       6.857  31.508  60.400  1.00  0.00    -0.262 N 
HETATM   28  C   UNL     1       7.628  31.411  61.540  1.00  0.00     0.288 C 
HETATM   29  O   UNL     1       8.670  30.764  61.621  1.00  0.00    -0.264 OA
HETATM   30  H   UNL     1       5.929  31.935  60.437  1.00  0.00     0.190 HD
BRANCH  28  31
HETATM   31  C   UNL     1       7.091  32.158  62.715  1.00  0.00     0.125 A 
HETATM   32  N   UNL     1       5.735  32.249  62.817  1.00  0.00    -0.255 NA
HETATM   33  C   UNL     1       5.259  32.912  63.891  1.00  0.00     0.117 A 
HETATM   34  C   UNL     1       6.063  33.494  64.862  1.00  0.00     0.019 A 
HETATM   35  C   UNL     1       7.444  33.389  64.729  1.00  0.00     0.004 A 
HETATM   36  C   UNL     1       7.974  32.707  63.639  1.00  0.00     0.037 A 
ENDBRANCH  28  31
ENDBRANCH  24  27
ENDBRANCH  22  23
ENDBRANCH   1  22
TORSDOF 8
ENDMDL
MODEL 2
REMARK VINA RESULT:      -9.9      1.705      2.611
REMARK  8 active torsions:
REMARK  status: ('A' for Active; 'I' for Inactive)
REMARK    1  A    between atoms: C_4  and  O_5 
REMARK    2  A    between atoms: O_5  and  C_6 
REMARK    3  A    between atoms: C_8  and  C_9 
REMARK    4  A    between atoms: C_9  and  N_10 
REMARK    5  A    between atoms: C_9  and  C_14 
REMARK       I    between atoms: N_10  and  C_11 
REMARK       I    between atoms: C_11  and  N_12 
REMARK    6  A    between atoms: C_14  and  C_15 
REMARK       I    between atoms: C_15  and  N_16 
REMARK    7  A    between atoms: N_16  and  N_17 
REMARK       I    between atoms: N_17  and  C_18 
REMARK    8  A    between atoms: C_18  and  C_19 
ROOT
HETATM    1  C   UNL     1       7.143  28.055  56.717  1.00  0.00     0.127 C 
ENDROOT
BRANCH   1   2
HETATM    2  C   UNL     1       7.542  26.583  56.700  1.00  0.00    -0.032 A 
HETATM    3  C   UNL     1       7.015  25.696  55.742  1.00  0.00     0.046 A 
HETATM    4  C   UNL     1       7.428  24.362  55.681  1.00  0.00     0.076 A 
HETATM    5  C   UNL     1       8.413  23.891  56.545  1.00  0.00     0.037 A 
HETATM    6  C   UNL     1       8.962  24.755  57.488  1.00  0.00     0.003 A 
HETATM    7  C   UNL     1       8.540  26.088  57.558  1.00  0.00     0.009 A 
BRANCH   4   8
HETATM    8  O   UNL     1       6.885  23.596  54.674  1.00  0.00    -0.311 OA
BRANCH   8   9
HETATM    9  C   UNL     1       7.480  22.389  54.385  1.00  0.00     0.076 A 
HETATM   10  C   UNL     1       8.047  22.093  53.144  1.00  0.00     0.037 A 
HETATM   11  C   UNL     1       8.670  20.860  52.942  1.00  0.00     0.003 A 
HETATM   12  C   UNL     1       8.743  19.934  53.985  1.00  0.00     0.000 A 
HETATM   13  C   UNL     1       8.200  20.243  55.232  1.00  0.00     0.003 A 
HETATM   14  C   UNL     1       7.574  21.473  55.434  1.00  0.00     0.037 A 
ENDBRANCH   8   9
ENDBRANCH   4   8
ENDBRANCH   1   2
BRANCH   1  15
HETATM   15  N   UNL     1       5.724  28.317  56.998  1.00  0.00    -0.339 N 
HETATM   16  C   UNL     1       4.800  28.632  56.061  1.00  0.00     0.292 C 
HETATM   17  N   UNL     1       3.569  28.837  56.582  1.00  0.00    -0.254 NA
HETATM   18  O   UNL     1       5.009  28.721  54.863  1.00  0.00    -0.254 OA
HETATM   19  H   UNL     1       3.284  28.213  57.322  1.00  0.00     0.128 HD
HETATM   20  H   UNL     1       2.865  28.967  55.863  1.00  0.00     0.128 HD
HETATM   21  H   UNL     1       5.509  28.662  57.922  1.00  0.00     0.164 HD
ENDBRANCH   1  15
BRANCH   1  22
HETATM   22  C   UNL     1       8.076  29.080  57.387  1.00  0.00     0.134 C 
BRANCH  22  23
HETATM   23  C   UNL     1       7.515  30.122  58.335  1.00  0.00     0.238 C 
HETATM   24  N   UNL     1       7.969  30.082  59.626  1.00  0.00    -0.267 N 
HETATM   25  H   UNL     1       8.859  29.649  59.894  1.00  0.00     0.190 HD
HETATM   26  O   UNL     1       6.609  30.879  57.975  1.00  0.00    -0.272 OA
BRANCH  24  27
HETATM   27  N   UNL     1       7.390  30.924  60.576  1.00  0.00    -0.262 N 
HETATM   28  C   UNL     1       8.152  31.333  61.652  1.00  0.00     0.288 C 
HETATM   29  O   UNL     1       9.358  31.131  61.766  1.00  0.00    -0.264 OA
HETATM   30  H   UNL     1       6.371  30.989  60.608  1.00  0.00     0.190 HD
BRANCH  28  31
HETATM   31  C   UNL     1       7.386  32.051  62.714  1.00  0.00     0.125 A 
HETATM   32  N   UNL     1       6.028  31.952  62.663  1.00  0.00    -0.255 NA
HETATM   33  C   UNL     1       5.346  32.592  63.637  1.00  0.00     0.117 A 
HETATM   34  C   UNL     1       5.947  33.328  64.649  1.00  0.00     0.019 A 
HETATM   35  C   UNL     1       7.335  33.414  64.671  1.00  0.00     0.004 A 
HETATM   36  C   UNL     1       8.074  32.764  63.690  1.00  0.00     0.037 A 
ENDBRANCH  28  31
ENDBRANCH  24  27
ENDBRANCH  22  23
ENDBRANCH   1  22
TORSDOF 8
ENDMDL
MODEL 3
REMARK VINA RESULT:      -9.8      1.905      2.314
REMARK  8 active torsions:
REMARK  status: ('A' for Active; 'I' for Inactive)
REMARK    1  A    between atoms: C_4  and  O_5 
REMARK    2  A    between atoms: O_5  and  C_6 
REMARK    3  A    between atoms: C_8  and  C_9 
REMARK    4  A    between atoms: C_9  and  N_10 
REMARK    5  A    between atoms: C_9  and  C_14 
REMARK       I    between atoms: N_10  and  C_11 
REMARK       I    between atoms: C_11  and  N_12 
REMARK    6  A    between atoms: C_14  and  C_15 
REMARK       I    between atoms: C_15  and  N_16 
REMARK    7  A    between atoms: N_16  and  N_17 
REMARK       I    between atoms: N_17  and  C_18 
REMARK    8  A    between atoms: C_18  and  C_19 
ROOT
HETATM    1  C   UNL     1       6.879  28.318  55.371  1.00  0.00     0.127 C 
ENDROOT
BRANCH   1   2
HETATM    2  C   UNL     1       6.570  27.084  54.529  1.00  0.00    -0.032 A 
HETATM    3  C   UNL     1       7.572  26.146  54.216  1.00  0.00     0.046 A 
HETATM    4  C   UNL     1       7.281  24.981  53.502  1.00  0.00     0.076 A 
HETATM    5  C   UNL     1       5.971  24.699  53.122  1.00  0.00     0.037 A 
HETATM    6  C   UNL     1       4.961  25.602  53.437  1.00  0.00     0.003 A 
HETATM    7  C   UNL     1       5.255  26.776  54.141  1.00  0.00     0.009 A 
BRANCH   4   8
HETATM    8  O   UNL     1       8.326  24.109  53.294  1.00  0.00    -0.311 OA
BRANCH   8   9
HETATM    9  C   UNL     1       8.230  22.843  53.827  1.00  0.00     0.076 A 
HETATM   10  C   UNL     1       8.013  21.701  53.053  1.00  0.00     0.037 A 
HETATM   11  C   UNL     1       7.970  20.447  53.665  1.00  0.00     0.003 A 
HETATM   12  C   UNL     1       8.165  20.334  55.043  1.00  0.00     0.000 A 
HETATM   13  C   UNL     1       8.410  21.473  55.810  1.00  0.00     0.003 A 
HETATM   14  C   UNL     1       8.449  22.727  55.201  1.00  0.00     0.037 A 
ENDBRANCH   8   9
ENDBRANCH   4   8
ENDBRANCH   1   2
BRANCH   1  15
HETATM   15  N   UNL     1       8.193  28.930  55.128  1.00  0.00    -0.339 N 
HETATM   16  C   UNL     1       9.085  29.244  56.097  1.00  0.00     0.292 C 
HETATM   17  N   UNL     1      10.214  29.809  55.610  1.00  0.00    -0.254 NA
HETATM   18  O   UNL     1       8.933  29.048  57.290  1.00  0.00    -0.254 OA
HETATM   19  H   UNL     1      10.578  29.420  54.754  1.00  0.00     0.128 HD
HETATM   20  H   UNL     1      10.917  29.942  56.330  1.00  0.00     0.128 HD
HETATM   21  H   UNL     1       8.278  29.489  54.292  1.00  0.00     0.164 HD
ENDBRANCH   1  15
BRANCH   1  22
HETATM   22  C   UNL     1       5.775  29.365  55.604  1.00  0.00     0.134 C 
BRANCH  22  23
HETATM   23  C   UNL     1       5.515  29.907  56.997  1.00  0.00     0.238 C 
HETATM   24  N   UNL     1       6.366  30.882  57.443  1.00  0.00    -0.267 N 
HETATM   25  H   UNL     1       6.915  31.477  56.813  1.00  0.00     0.190 HD
HETATM   26  O   UNL     1       4.654  29.398  57.720  1.00  0.00    -0.272 OA
BRANCH  24  27
HETATM   27  N   UNL     1       6.263  31.322  58.763  1.00  0.00    -0.262 N 
HETATM   28  C   UNL     1       7.387  31.830  59.382  1.00  0.00     0.288 C 
HETATM   29  O   UNL     1       8.450  32.063  58.811  1.00  0.00    -0.264 OA
HETATM   30  H   UNL     1       5.463  31.010  59.316  1.00  0.00     0.190 HD
BRANCH  28  31
HETATM   31  C   UNL     1       7.229  32.073  60.846  1.00  0.00     0.125 A 
HETATM   32  N   UNL     1       6.014  32.527  61.265  1.00  0.00    -0.255 NA
HETATM   33  C   UNL     1       5.876  32.728  62.592  1.00  0.00     0.117 A 
HETATM   34  C   UNL     1       6.885  32.509  63.518  1.00  0.00     0.019 A 
HETATM   35  C   UNL     1       8.117  32.050  63.061  1.00  0.00     0.004 A 
HETATM   36  C   UNL     1       8.297  31.824  61.701  1.00  0.00     0.037 A 
ENDBRANCH  28  31
ENDBRANCH  24  27
ENDBRANCH  22  23
ENDBRANCH   1  22
TORSDOF 8
ENDMDL
MODEL 4
REMARK VINA RESULT:      -9.7      2.506      9.793
REMARK  8 active torsions:
REMARK  status: ('A' for Active; 'I' for Inactive)
REMARK    1  A    between atoms: C_4  and  O_5 
REMARK    2  A    between atoms: O_5  and  C_6 
REMARK    3  A    between atoms: C_8  and  C_9 
REMARK    4  A    between atoms: C_9  and  N_10 
REMARK    5  A    between atoms: C_9  and  C_14 
REMARK       I    between atoms: N_10  and  C_11 
REMARK       I    between atoms: C_11  and  N_12 
REMARK    6  A    between atoms: C_14  and  C_15 
REMARK       I    between atoms: C_15  and  N_16 
REMARK    7  A    between atoms: N_16  and  N_17 
REMARK       I    between atoms: N_17  and  C_18 
REMARK    8  A    between atoms: C_18  and  C_19 
ROOT
HETATM    1  C   UNL     1       6.972  28.773  56.859  1.00  0.00     0.127 C 
ENDROOT
BRANCH   1   2
HETATM    2  C   UNL     1       8.281  29.507  57.132  1.00  0.00    -0.032 A 
HETATM    3  C   UNL     1       8.322  30.632  57.978  1.00  0.00     0.046 A 
HETATM    4  C   UNL     1       9.529  31.268  58.284  1.00  0.00     0.076 A 
HETATM    5  C   UNL     1      10.731  30.769  57.790  1.00  0.00     0.037 A 
HETATM    6  C   UNL     1      10.717  29.646  56.967  1.00  0.00     0.003 A 
HETATM    7  C   UNL     1       9.507  29.017  56.651  1.00  0.00     0.009 A 
BRANCH   4   8
HETATM    8  O   UNL     1       9.460  32.328  59.160  1.00  0.00    -0.311 OA
BRANCH   8   9
HETATM    9  C   UNL     1       8.934  32.101  60.412  1.00  0.00     0.076 A 
HETATM   10  C   UNL     1       7.879  32.845  60.945  1.00  0.00     0.037 A 
HETATM   11  C   UNL     1       7.373  32.526  62.206  1.00  0.00     0.003 A 
HETATM   12  C   UNL     1       7.906  31.453  62.922  1.00  0.00     0.000 A 
HETATM   13  C   UNL     1       8.941  30.693  62.376  1.00  0.00     0.003 A 
HETATM   14  C   UNL     1       9.450  31.014  61.118  1.00  0.00     0.037 A 
ENDBRANCH   8   9
ENDBRANCH   4   8
ENDBRANCH   1   2
BRANCH   1  15
HETATM   15  N   UNL     1       5.855  29.132  57.743  1.00  0.00    -0.339 N 
HETATM   16  C   UNL     1       4.973  30.130  57.501  1.00  0.00     0.292 C 
HETATM   17  N   UNL     1       4.047  30.263  58.478  1.00  0.00    -0.254 NA
HETATM   18  O   UNL     1       4.970  30.848  56.517  1.00  0.00    -0.254 OA
HETATM   19  H   UNL     1       3.683  29.409  58.872  1.00  0.00     0.128 HD
HETATM   20  H   UNL     1       3.330  30.939  58.237  1.00  0.00     0.128 HD
HETATM   21  H   UNL     1       5.973  28.914  58.722  1.00  0.00     0.164 HD
ENDBRANCH   1  15
BRANCH   1  22
HETATM   22  C   UNL     1       6.525  28.551  55.403  1.00  0.00     0.134 C 
BRANCH  22  23
HETATM   23  C   UNL     1       6.722  27.202  54.738  1.00  0.00     0.238 C 
HETATM   24  N   UNL     1       6.080  26.137  55.310  1.00  0.00    -0.267 N 
HETATM   25  H   UNL     1       5.252  26.238  55.909  1.00  0.00     0.190 HD
HETATM   26  O   UNL     1       7.519  27.070  53.805  1.00  0.00    -0.272 OA
BRANCH  24  27
HETATM   27  N   UNL     1       6.330  24.852  54.828  1.00  0.00    -0.262 N 
HETATM   28  C   UNL     1       7.136  24.011  55.569  1.00  0.00     0.288 C 
HETATM   29  O   UNL     1       7.538  24.255  56.704  1.00  0.00    -0.264 OA
HETATM   30  H   UNL     1       6.154  24.664  53.840  1.00  0.00     0.190 HD
BRANCH  28  31
HETATM   31  C   UNL     1       7.514  22.746  54.872  1.00  0.00     0.125 A 
HETATM   32  N   UNL     1       7.630  21.631  55.646  1.00  0.00    -0.255 NA
HETATM   33  C   UNL     1       7.956  20.489  55.003  1.00  0.00     0.117 A 
HETATM   34  C   UNL     1       8.178  20.405  53.636  1.00  0.00     0.019 A 
HETATM   35  C   UNL     1       8.056  21.562  52.872  1.00  0.00     0.004 A 
HETATM   36  C   UNL     1       7.715  22.757  53.496  1.00  0.00     0.037 A 
ENDBRANCH  28  31
ENDBRANCH  24  27
ENDBRANCH  22  23
ENDBRANCH   1  22
TORSDOF 8
ENDMDL
MODEL 5
REMARK VINA RESULT:      -9.6      2.319      3.483
REMARK  8 active torsions:
REMARK  status: ('A' for Active; 'I' for Inactive)
REMARK    1  A    between atoms: C_4  and  O_5 
REMARK    2  A    between atoms: O_5  and  C_6 
REMARK    3  A    between atoms: C_8  and  C_9 
REMARK    4  A    between atoms: C_9  and  N_10 
REMARK    5  A    between atoms: C_9  and  C_14 
REMARK       I    between atoms: N_10  and  C_11 
REMARK       I    between atoms: C_11  and  N_12 
REMARK    6  A    between atoms: C_14  and  C_15 
REMARK       I    between atoms: C_15  and  N_16 
REMARK    7  A    between atoms: N_16  and  N_17 
REMARK       I    between atoms: N_17  and  C_18 
REMARK    8  A    between atoms: C_18  and  C_19 
ROOT
HETATM    1  C   UNL     1       6.202  28.156  55.081  1.00  0.00     0.127 C 
ENDROOT
BRANCH   1   2
HETATM    2  C   UNL     1       6.151  26.913  54.199  1.00  0.00    -0.032 A 
HETATM    3  C   UNL     1       7.249  26.036  54.112  1.00  0.00     0.046 A 
HETATM    4  C   UNL     1       7.184  24.860  53.358  1.00  0.00     0.076 A 
HETATM    5  C   UNL     1       6.003  24.507  52.710  1.00  0.00     0.037 A 
HETATM    6  C   UNL     1       4.898  25.348  52.797  1.00  0.00     0.003 A 
HETATM    7  C   UNL     1       4.968  26.532  53.542  1.00  0.00     0.009 A 
BRANCH   4   8
HETATM    8  O   UNL     1       8.297  24.052  53.383  1.00  0.00    -0.311 OA
BRANCH   8   9
HETATM    9  C   UNL     1       8.166  22.783  53.902  1.00  0.00     0.076 A 
HETATM   10  C   UNL     1       8.262  21.625  53.127  1.00  0.00     0.037 A 
HETATM   11  C   UNL     1       8.159  20.373  53.735  1.00  0.00     0.003 A 
HETATM   12  C   UNL     1       7.984  20.280  55.117  1.00  0.00     0.000 A 
HETATM   13  C   UNL     1       7.917  21.437  55.893  1.00  0.00     0.003 A 
HETATM   14  C   UNL     1       8.015  22.688  55.286  1.00  0.00     0.037 A 
ENDBRANCH   8   9
ENDBRANCH   4   8
ENDBRANCH   1   2
BRANCH   1  15
HETATM   15  N   UNL     1       4.988  28.420  55.866  1.00  0.00    -0.339 N 
HETATM   16  C   UNL     1       4.286  29.576  55.831  1.00  0.00     0.292 C 
HETATM   17  N   UNL     1       3.215  29.568  56.658  1.00  0.00    -0.254 NA
HETATM   18  O   UNL     1       4.548  30.543  55.137  1.00  0.00    -0.254 OA
HETATM   19  H   UNL     1       2.689  28.708  56.704  1.00  0.00     0.128 HD
HETATM   20  H   UNL     1       2.638  30.395  56.546  1.00  0.00     0.128 HD
HETATM   21  H   UNL     1       4.896  27.907  56.730  1.00  0.00     0.164 HD
ENDBRANCH   1  15
BRANCH   1  22
HETATM   22  C   UNL     1       7.490  28.471  55.862  1.00  0.00     0.134 C 
BRANCH  22  23
HETATM   23  C   UNL     1       7.434  28.750  57.352  1.00  0.00     0.238 C 
HETATM   24  N   UNL     1       7.282  30.058  57.725  1.00  0.00    -0.267 N 
HETATM   25  H   UNL     1       6.882  30.774  57.108  1.00  0.00     0.190 HD
HETATM   26  O   UNL     1       7.637  27.849  58.170  1.00  0.00    -0.272 OA
BRANCH  24  27
HETATM   27  N   UNL     1       7.360  30.394  59.077  1.00  0.00    -0.262 N 
HETATM   28  C   UNL     1       6.996  31.667  59.467  1.00  0.00     0.288 C 
HETATM   29  O   UNL     1       6.464  32.494  58.731  1.00  0.00    -0.264 OA
HETATM   30  H   UNL     1       7.931  29.808  59.688  1.00  0.00     0.190 HD
BRANCH  28  31
HETATM   31  C   UNL     1       7.315  31.991  60.889  1.00  0.00     0.125 A 
HETATM   32  N   UNL     1       8.147  31.133  61.542  1.00  0.00    -0.255 NA
HETATM   33  C   UNL     1       8.441  31.445  62.822  1.00  0.00     0.117 A 
HETATM   34  C   UNL     1       7.944  32.559  63.483  1.00  0.00     0.019 A 
HETATM   35  C   UNL     1       7.093  33.415  62.791  1.00  0.00     0.004 A 
HETATM   36  C   UNL     1       6.771  33.133  61.468  1.00  0.00     0.037 A 
ENDBRANCH  28  31
ENDBRANCH  24  27
ENDBRANCH  22  23
ENDBRANCH   1  22
TORSDOF 8
ENDMDL
MODEL 6
REMARK VINA RESULT:      -9.6      2.110     10.083
REMARK  8 active torsions:
REMARK  status: ('A' for Active; 'I' for Inactive)
REMARK    1  A    between atoms: C_4  and  O_5 
REMARK    2  A    between atoms: O_5  and  C_6 
REMARK    3  A    between atoms: C_8  and  C_9 
REMARK    4  A    between atoms: C_9  and  N_10 
REMARK    5  A    between atoms: C_9  and  C_14 
REMARK       I    between atoms: N_10  and  C_11 
REMARK       I    between atoms: C_11  and  N_12 
REMARK    6  A    between atoms: C_14  and  C_15 
REMARK       I    between atoms: C_15  and  N_16 
REMARK    7  A    between atoms: N_16  and  N_17 
REMARK       I    between atoms: N_17  and  C_18 
REMARK    8  A    between atoms: C_18  and  C_19 
ROOT
HETATM    1  C   UNL     1       8.051  30.920  58.530  1.00  0.00     0.127 C 
ENDROOT
BRANCH   1   2
HETATM    2  C   UNL     1       8.154  31.254  60.015  1.00  0.00    -0.032 A 
HETATM    3  C   UNL     1       7.462  32.350  60.564  1.00  0.00     0.046 A 
HETATM    4  C   UNL     1       7.500  32.622  61.935  1.00  0.00     0.076 A 
HETATM    5  C   UNL     1       8.193  31.778  62.799  1.00  0.00     0.037 A 
HETATM    6  C   UNL     1       8.869  30.677  62.281  1.00  0.00     0.003 A 
HETATM    7  C   UNL     1       8.841  30.413  60.907  1.00  0.00     0.009 A 
BRANCH   4   8
HETATM    8  O   UNL     1       6.747  33.689  62.371  1.00  0.00    -0.311 OA
BRANCH   8   9
HETATM    9  C   UNL     1       6.404  33.738  63.704  1.00  0.00     0.076 A 
HETATM   10  C   UNL     1       7.340  33.872  64.731  1.00  0.00     0.037 A 
HETATM   11  C   UNL     1       6.907  33.957  66.056  1.00  0.00     0.003 A 
HETATM   12  C   UNL     1       5.543  33.928  66.350  1.00  0.00     0.000 A 
HETATM   13  C   UNL     1       4.609  33.822  65.320  1.00  0.00     0.003 A 
HETATM   14  C   UNL     1       5.039  33.733  63.996  1.00  0.00     0.037 A 
ENDBRANCH   8   9
ENDBRANCH   4   8
ENDBRANCH   1   2
BRANCH   1  15
HETATM   15  N   UNL     1       9.223  30.242  57.957  1.00  0.00    -0.339 N 
HETATM   16  C   UNL     1      10.433  30.820  57.778  1.00  0.00     0.292 C 
HETATM   17  N   UNL     1      11.339  29.985  57.219  1.00  0.00    -0.254 NA
HETATM   18  O   UNL     1      10.724  31.964  58.082  1.00  0.00    -0.254 OA
HETATM   19  H   UNL     1      11.325  29.028  57.539  1.00  0.00     0.128 HD
HETATM   20  H   UNL     1      12.268  30.392  57.187  1.00  0.00     0.128 HD
HETATM   21  H   UNL     1       9.031  29.480  57.323  1.00  0.00     0.164 HD
ENDBRANCH   1  15
BRANCH   1  22
HETATM   22  C   UNL     1       6.723  30.376  57.973  1.00  0.00     0.134 C 
BRANCH  22  23
HETATM   23  C   UNL     1       6.719  29.200  57.015  1.00  0.00     0.238 C 
HETATM   24  N   UNL     1       6.278  28.005  57.515  1.00  0.00    -0.267 N 
HETATM   25  H   UNL     1       5.665  27.932  58.334  1.00  0.00     0.190 HD
HETATM   26  O   UNL     1       7.204  29.306  55.885  1.00  0.00    -0.272 OA
BRANCH  24  27
HETATM   27  N   UNL     1       6.379  26.859  56.725  1.00  0.00    -0.262 N 
HETATM   28  C   UNL     1       7.386  25.953  56.994  1.00  0.00     0.288 C 
HETATM   29  O   UNL     1       8.121  26.004  57.977  1.00  0.00    -0.264 OA
HETATM   30  H   UNL     1       5.903  26.851  55.821  1.00  0.00     0.190 HD
BRANCH  28  31
HETATM   31  C   UNL     1       7.539  24.878  55.971  1.00  0.00     0.125 A 
HETATM   32  N   UNL     1       6.708  24.934  54.893  1.00  0.00    -0.255 NA
HETATM   33  C   UNL     1       6.866  23.967  53.965  1.00  0.00     0.117 A 
HETATM   34  C   UNL     1       7.802  22.946  54.061  1.00  0.00     0.019 A 
HETATM   35  C   UNL     1       8.634  22.912  55.176  1.00  0.00     0.004 A 
HETATM   36  C   UNL     1       8.507  23.895  56.150  1.00  0.00     0.037 A 
ENDBRANCH  28  31
ENDBRANCH  24  27
ENDBRANCH  22  23
ENDBRANCH   1  22
TORSDOF 8
ENDMDL
MODEL 7
REMARK VINA RESULT:      -9.5      1.527      2.304
REMARK  8 active torsions:
REMARK  status: ('A' for Active; 'I' for Inactive)
REMARK    1  A    between atoms: C_4  and  O_5 
REMARK    2  A    between atoms: O_5  and  C_6 
REMARK    3  A    between atoms: C_8  and  C_9 
REMARK    4  A    between atoms: C_9  and  N_10 
REMARK    5  A    between atoms: C_9  and  C_14 
REMARK       I    between atoms: N_10  and  C_11 
REMARK       I    between atoms: C_11  and  N_12 
REMARK    6  A    between atoms: C_14  and  C_15 
REMARK       I    between atoms: C_15  and  N_16 
REMARK    7  A    between atoms: N_16  and  N_17 
REMARK       I    between atoms: N_17  and  C_18 
REMARK    8  A    between atoms: C_18  and  C_19 
ROOT
HETATM    1  C   UNL     1       8.463  29.586  58.306  1.00  0.00     0.127 C 
ENDROOT
BRANCH   1   2
HETATM    2  C   UNL     1       7.352  28.838  57.576  1.00  0.00    -0.032 A 
HETATM    3  C   UNL     1       7.294  27.432  57.583  1.00  0.00     0.046 A 
HETATM    4  C   UNL     1       6.242  26.743  56.971  1.00  0.00     0.076 A 
HETATM    5  C   UNL     1       5.196  27.444  56.377  1.00  0.00     0.037 A 
HETATM    6  C   UNL     1       5.222  28.836  56.375  1.00  0.00     0.003 A 
HETATM    7  C   UNL     1       6.282  29.525  56.977  1.00  0.00     0.009 A 
BRANCH   4   8
HETATM    8  O   UNL     1       6.258  25.371  57.081  1.00  0.00    -0.311 OA
BRANCH   8   9
HETATM    9  C   UNL     1       7.005  24.657  56.171  1.00  0.00     0.076 A 
HETATM   10  C   UNL     1       8.221  24.048  56.489  1.00  0.00     0.037 A 
HETATM   11  C   UNL     1       8.897  23.304  55.520  1.00  0.00     0.003 A 
HETATM   12  C   UNL     1       8.349  23.153  54.245  1.00  0.00     0.000 A 
HETATM   13  C   UNL     1       7.121  23.739  53.938  1.00  0.00     0.003 A 
HETATM   14  C   UNL     1       6.446  24.485  54.904  1.00  0.00     0.037 A 
ENDBRANCH   8   9
ENDBRANCH   4   8
ENDBRANCH   1   2
BRANCH   1  15
HETATM   15  N   UNL     1       9.821  29.343  57.798  1.00  0.00    -0.339 N 
HETATM   16  C   UNL     1      10.715  30.315  57.500  1.00  0.00     0.292 C 
HETATM   17  N   UNL     1      11.889  29.828  57.038  1.00  0.00    -0.254 NA
HETATM   18  O   UNL     1      10.527  31.513  57.628  1.00  0.00    -0.254 OA
HETATM   19  H   UNL     1      12.241  28.998  57.492  1.00  0.00     0.128 HD
HETATM   20  H   UNL     1      12.586  30.555  56.919  1.00  0.00     0.128 HD
HETATM   21  H   UNL     1       9.959  28.484  57.287  1.00  0.00     0.164 HD
ENDBRANCH   1  15
BRANCH   1  22
HETATM   22  C   UNL     1       8.239  31.052  58.716  1.00  0.00     0.134 C 
BRANCH  22  23
HETATM   23  C   UNL     1       8.262  31.451  60.179  1.00  0.00     0.238 C 
HETATM   24  N   UNL     1       7.068  31.405  60.846  1.00  0.00    -0.267 N 
HETATM   25  H   UNL     1       6.277  30.827  60.540  1.00  0.00     0.190 HD
HETATM   26  O   UNL     1       9.289  31.905  60.692  1.00  0.00    -0.272 OA
BRANCH  24  27
HETATM   27  N   UNL     1       6.999  31.889  62.152  1.00  0.00    -0.262 N 
HETATM   28  C   UNL     1       5.762  32.195  62.683  1.00  0.00     0.288 C 
HETATM   29  O   UNL     1       4.691  31.935  62.142  1.00  0.00    -0.264 OA
HETATM   30  H   UNL     1       7.851  32.263  62.575  1.00  0.00     0.190 HD
BRANCH  28  31
HETATM   31  C   UNL     1       5.811  32.900  63.998  1.00  0.00     0.125 A 
HETATM   32  N   UNL     1       4.623  33.087  64.638  1.00  0.00    -0.255 NA
HETATM   33  C   UNL     1       4.681  33.711  65.834  1.00  0.00     0.117 A 
HETATM   34  C   UNL     1       5.856  34.162  66.417  1.00  0.00     0.019 A 
HETATM   35  C   UNL     1       7.054  33.960  65.737  1.00  0.00     0.004 A 
HETATM   36  C   UNL     1       7.038  33.315  64.506  1.00  0.00     0.037 A 
ENDBRANCH  28  31
ENDBRANCH  24  27
ENDBRANCH  22  23
ENDBRANCH   1  22
TORSDOF 8
ENDMDL
MODEL 8
REMARK VINA RESULT:      -9.4      2.781      9.865
REMARK  8 active torsions:
REMARK  status: ('A' for Active; 'I' for Inactive)
REMARK    1  A    between atoms: C_4  and  O_5 
REMARK    2  A    between atoms: O_5  and  C_6 
REMARK    3  A    between atoms: C_8  and  C_9 
REMARK    4  A    between atoms: C_9  and  N_10 
REMARK    5  A    between atoms: C_9  and  C_14 
REMARK       I    between atoms: N_10  and  C_11 
REMARK       I    between atoms: C_11  and  N_12 
REMARK    6  A    between atoms: C_14  and  C_15 
REMARK       I    between atoms: C_15  and  N_16 
REMARK    7  A    between atoms: N_16  and  N_17 
REMARK       I    between atoms: N_17  and  C_18 
REMARK    8  A    between atoms: C_18  and  C_19 
ROOT
HETATM    1  C   UNL     1       6.437  28.504  56.416  1.00  0.00     0.127 C 
ENDROOT
BRANCH   1   2
HETATM    2  C   UNL     1       5.719  29.656  57.111  1.00  0.00    -0.032 A 
HETATM    3  C   UNL     1       6.437  30.663  57.784  1.00  0.00     0.046 A 
HETATM    4  C   UNL     1       5.788  31.755  58.366  1.00  0.00     0.076 A 
HETATM    5  C   UNL     1       4.407  31.894  58.251  1.00  0.00     0.037 A 
HETATM    6  C   UNL     1       3.678  30.921  57.574  1.00  0.00     0.003 A 
HETATM    7  C   UNL     1       4.327  29.820  57.002  1.00  0.00     0.009 A 
BRANCH   4   8
HETATM    8  O   UNL     1       6.591  32.705  58.955  1.00  0.00    -0.311 OA
BRANCH   8   9
HETATM    9  C   UNL     1       7.303  32.348  60.077  1.00  0.00     0.076 A 
HETATM   10  C   UNL     1       8.695  32.241  60.098  1.00  0.00     0.037 A 
HETATM   11  C   UNL     1       9.348  31.914  61.288  1.00  0.00     0.003 A 
HETATM   12  C   UNL     1       8.612  31.715  62.458  1.00  0.00     0.000 A 
HETATM   13  C   UNL     1       7.223  31.849  62.441  1.00  0.00     0.003 A 
HETATM   14  C   UNL     1       6.570  32.172  61.252  1.00  0.00     0.037 A 
ENDBRANCH   8   9
ENDBRANCH   4   8
ENDBRANCH   1   2
BRANCH   1  15
HETATM   15  N   UNL     1       6.682  27.321  57.252  1.00  0.00    -0.339 N 
HETATM   16  C   UNL     1       7.907  26.885  57.627  1.00  0.00     0.292 C 
HETATM   17  N   UNL     1       7.859  25.765  58.385  1.00  0.00    -0.254 NA
HETATM   18  O   UNL     1       8.966  27.419  57.344  1.00  0.00    -0.254 OA
HETATM   19  H   UNL     1       7.120  25.718  59.071  1.00  0.00     0.128 HD
HETATM   20  H   UNL     1       8.771  25.509  58.749  1.00  0.00     0.128 HD
HETATM   21  H   UNL     1       5.980  26.596  57.217  1.00  0.00     0.164 HD
ENDBRANCH   1  15
BRANCH   1  22
HETATM   22  C   UNL     1       6.047  28.137  54.972  1.00  0.00     0.134 C 
BRANCH  22  23
HETATM   23  C   UNL     1       6.524  26.835  54.358  1.00  0.00     0.238 C 
HETATM   24  N   UNL     1       5.793  25.716  54.649  1.00  0.00    -0.267 N 
HETATM   25  H   UNL     1       4.812  25.750  54.949  1.00  0.00     0.190 HD
HETATM   26  O   UNL     1       7.586  26.786  53.731  1.00  0.00    -0.272 OA
BRANCH  24  27
HETATM   27  N   UNL     1       6.258  24.470  54.227  1.00  0.00    -0.262 N 
HETATM   28  C   UNL     1       6.894  23.654  55.140  1.00  0.00     0.288 C 
HETATM   29  O   UNL     1       6.955  23.878  56.347  1.00  0.00    -0.264 OA
HETATM   30  H   UNL     1       6.369  24.310  53.224  1.00  0.00     0.190 HD
BRANCH  28  31
HETATM   31  C   UNL     1       7.537  22.445  54.546  1.00  0.00     0.125 A 
HETATM   32  N   UNL     1       7.917  21.465  55.412  1.00  0.00    -0.255 NA
HETATM   33  C   UNL     1       8.483  20.369  54.863  1.00  0.00     0.117 A 
HETATM   34  C   UNL     1       8.694  20.206  53.502  1.00  0.00     0.019 A 
HETATM   35  C   UNL     1       8.299  21.226  52.642  1.00  0.00     0.004 A 
HETATM   36  C   UNL     1       7.706  22.368  53.168  1.00  0.00     0.037 A 
ENDBRANCH  28  31
ENDBRANCH  24  27
ENDBRANCH  22  23
ENDBRANCH   1  22
TORSDOF 8
ENDMDL
MODEL 9
REMARK VINA RESULT:      -9.2      3.408      6.656
REMARK  8 active torsions:
REMARK  status: ('A' for Active; 'I' for Inactive)
REMARK    1  A    between atoms: C_4  and  O_5 
REMARK    2  A    between atoms: O_5  and  C_6 
REMARK    3  A    between atoms: C_8  and  C_9 
REMARK    4  A    between atoms: C_9  and  N_10 
REMARK    5  A    between atoms: C_9  and  C_14 
REMARK       I    between atoms: N_10  and  C_11 
REMARK       I    between atoms: C_11  and  N_12 
REMARK    6  A    between atoms: C_14  and  C_15 
REMARK       I    between atoms: C_15  and  N_16 
REMARK    7  A    between atoms: N_16  and  N_17 
REMARK       I    between atoms: N_17  and  C_18 
REMARK    8  A    between atoms: C_18  and  C_19 
ROOT
HETATM    1  C   UNL     1       7.615  23.059  55.264  1.00  0.00     0.127 C 
ENDROOT
BRANCH   1   2
HETATM    2  C   UNL     1       7.210  23.883  54.046  1.00  0.00    -0.032 A 
HETATM    3  C   UNL     1       5.971  24.550  53.997  1.00  0.00     0.046 A 
HETATM    4  C   UNL     1       5.623  25.360  52.912  1.00  0.00     0.076 A 
HETATM    5  C   UNL     1       6.524  25.563  51.870  1.00  0.00     0.037 A 
HETATM    6  C   UNL     1       7.763  24.930  51.906  1.00  0.00     0.003 A 
HETATM    7  C   UNL     1       8.106  24.108  52.987  1.00  0.00     0.009 A 
BRANCH   4   8
HETATM    8  O   UNL     1       4.409  26.003  52.990  1.00  0.00    -0.311 OA
BRANCH   8   9
HETATM    9  C   UNL     1       4.392  27.307  53.431  1.00  0.00     0.076 A 
HETATM   10  C   UNL     1       4.903  27.703  54.669  1.00  0.00     0.037 A 
HETATM   11  C   UNL     1       4.888  29.052  55.026  1.00  0.00     0.003 A 
HETATM   12  C   UNL     1       4.382  30.005  54.140  1.00  0.00     0.000 A 
HETATM   13  C   UNL     1       3.898  29.611  52.892  1.00  0.00     0.003 A 
HETATM   14  C   UNL     1       3.909  28.262  52.536  1.00  0.00     0.037 A 
ENDBRANCH   8   9
ENDBRANCH   4   8
ENDBRANCH   1   2
BRANCH   1  15
HETATM   15  N   UNL     1       8.403  21.853  54.972  1.00  0.00    -0.339 N 
HETATM   16  C   UNL     1       8.120  20.617  55.446  1.00  0.00     0.292 C 
HETATM   17  N   UNL     1       9.009  19.681  55.040  1.00  0.00    -0.254 NA
HETATM   18  O   UNL     1       7.173  20.331  56.157  1.00  0.00    -0.254 OA
HETATM   19  H   UNL     1       9.329  19.750  54.086  1.00  0.00     0.128 HD
HETATM   20  H   UNL     1       8.730  18.745  55.311  1.00  0.00     0.128 HD
HETATM   21  H   UNL     1       9.378  21.999  54.755  1.00  0.00     0.164 HD
ENDBRANCH   1  15
BRANCH   1  22
HETATM   22  C   UNL     1       8.092  23.783  56.537  1.00  0.00     0.134 C 
BRANCH  22  23
HETATM   23  C   UNL     1       7.434  25.077  56.974  1.00  0.00     0.238 C 
HETATM   24  N   UNL     1       8.206  26.206  56.920  1.00  0.00    -0.267 N 
HETATM   25  H   UNL     1       9.032  26.291  56.317  1.00  0.00     0.190 HD
HETATM   26  O   UNL     1       6.301  25.074  57.464  1.00  0.00    -0.272 OA
BRANCH  24  27
HETATM   27  N   UNL     1       7.703  27.400  57.437  1.00  0.00    -0.262 N 
HETATM   28  C   UNL     1       8.538  28.497  57.507  1.00  0.00     0.288 C 
HETATM   29  O   UNL     1       9.660  28.549  57.011  1.00  0.00    -0.264 OA
HETATM   30  H   UNL     1       6.848  27.363  57.994  1.00  0.00     0.190 HD
BRANCH  28  31
HETATM   31  C   UNL     1       7.975  29.654  58.264  1.00  0.00     0.125 A 
HETATM   32  N   UNL     1       8.549  29.937  59.467  1.00  0.00    -0.255 NA
HETATM   33  C   UNL     1       8.044  30.995  60.136  1.00  0.00     0.117 A 
HETATM   34  C   UNL     1       6.995  31.776  59.672  1.00  0.00     0.019 A 
HETATM   35  C   UNL     1       6.425  31.459  58.442  1.00  0.00     0.004 A 
HETATM   36  C   UNL     1       6.923  30.381  57.719  1.00  0.00     0.037 A 
ENDBRANCH  28  31
ENDBRANCH  24  27
ENDBRANCH  22  23
ENDBRANCH   1  22
TORSDOF 8
ENDMDL
MODEL 10
REMARK VINA RESULT:      -9.0      2.173      3.259
REMARK  8 active torsions:
REMARK  status: ('A' for Active; 'I' for Inactive)
REMARK    1  A    between atoms: C_4  and  O_5 
REMARK    2  A    between atoms: O_5  and  C_6 
REMARK    3  A    between atoms: C_8  and  C_9 
REMARK    4  A    between atoms: C_9  and  N_10 
REMARK    5  A    between atoms: C_9  and  C_14 
REMARK       I    between atoms: N_10  and  C_11 
REMARK       I    between atoms: C_11  and  N_12 
REMARK    6  A    between atoms: C_14  and  C_15 
REMARK       I    between atoms: C_15  and  N_16 
REMARK    7  A    between atoms: N_16  and  N_17 
REMARK       I    between atoms: N_17  and  C_18 
REMARK    8  A    between atoms: C_18  and  C_19 
ROOT
HETATM    1  C   UNL     1       6.702  27.312  55.693  1.00  0.00     0.127 C 
ENDROOT
BRANCH   1   2
HETATM    2  C   UNL     1       6.709  26.717  54.289  1.00  0.00    -0.032 A 
HETATM    3  C   UNL     1       7.518  25.609  53.971  1.00  0.00     0.046 A 
HETATM    4  C   UNL     1       7.479  25.019  52.705  1.00  0.00     0.076 A 
HETATM    5  C   UNL     1       6.596  25.491  51.737  1.00  0.00     0.037 A 
HETATM    6  C   UNL     1       5.773  26.573  52.034  1.00  0.00     0.003 A 
HETATM    7  C   UNL     1       5.822  27.172  53.298  1.00  0.00     0.009 A 
BRANCH   4   8
HETATM    8  O   UNL     1       8.274  23.910  52.518  1.00  0.00    -0.311 OA
BRANCH   8   9
HETATM    9  C   UNL     1       8.082  22.828  53.346  1.00  0.00     0.076 A 
HETATM   10  C   UNL     1       8.161  21.504  52.908  1.00  0.00     0.037 A 
HETATM   11  C   UNL     1       7.996  20.460  53.819  1.00  0.00     0.003 A 
HETATM   12  C   UNL     1       7.773  20.739  55.169  1.00  0.00     0.000 A 
HETATM   13  C   UNL     1       7.722  22.062  55.610  1.00  0.00     0.003 A 
HETATM   14  C   UNL     1       7.883  23.106  54.700  1.00  0.00     0.037 A 
ENDBRANCH   8   9
ENDBRANCH   4   8
ENDBRANCH   1   2
BRANCH   1  15
HETATM   15  N   UNL     1       7.576  26.639  56.664  1.00  0.00    -0.339 N 
HETATM   16  C   UNL     1       7.196  25.605  57.452  1.00  0.00     0.292 C 
HETATM   17  N   UNL     1       8.185  25.174  58.268  1.00  0.00    -0.254 NA
HETATM   18  O   UNL     1       6.096  25.082  57.451  1.00  0.00    -0.254 OA
HETATM   19  H   UNL     1       9.112  25.138  57.871  1.00  0.00     0.128 HD
HETATM   20  H   UNL     1       7.925  24.335  58.775  1.00  0.00     0.128 HD
HETATM   21  H   UNL     1       8.330  27.191  57.044  1.00  0.00     0.164 HD
ENDBRANCH   1  15
BRANCH   1  22
HETATM   22  C   UNL     1       6.701  28.842  55.861  1.00  0.00     0.134 C 
BRANCH  22  23
HETATM   23  C   UNL     1       6.475  29.463  57.226  1.00  0.00     0.238 C 
HETATM   24  N   UNL     1       7.593  29.825  57.928  1.00  0.00    -0.267 N 
HETATM   25  H   UNL     1       8.498  30.013  57.481  1.00  0.00     0.190 HD
HETATM   26  O   UNL     1       5.342  29.519  57.713  1.00  0.00    -0.272 OA
BRANCH  24  27
HETATM   27  N   UNL     1       7.457  30.273  59.242  1.00  0.00    -0.262 N 
HETATM   28  C   UNL     1       7.244  31.618  59.466  1.00  0.00     0.288 C 
HETATM   29  O   UNL     1       7.016  32.442  58.583  1.00  0.00    -0.264 OA
HETATM   30  H   UNL     1       7.788  29.668  59.996  1.00  0.00     0.190 HD
BRANCH  28  31
HETATM   31  C   UNL     1       7.324  32.026  60.900  1.00  0.00     0.125 A 
HETATM   32  N   UNL     1       8.167  31.310  61.695  1.00  0.00    -0.255 NA
HETATM   33  C   UNL     1       8.244  31.697  62.985  1.00  0.00     0.117 A 
HETATM   34  C   UNL     1       7.520  32.752  63.523  1.00  0.00     0.019 A 
HETATM   35  C   UNL     1       6.664  33.462  62.687  1.00  0.00     0.004 A 
HETATM   36  C   UNL     1       6.561  33.099  61.349  1.00  0.00     0.037 A 
ENDBRANCH  28  31
ENDBRANCH  24  27
ENDBRANCH  22  23
ENDBRANCH   1  22
TORSDOF 8
ENDMDL
