MODEL 1
REMARK VINA RESULT:      -9.2      0.000      0.000
REMARK  7 active torsions:
REMARK  status: ('A' for Active; 'I' for Inactive)
REMARK    1  A    between atoms: C_3  and  C_4 
REMARK    2  A    between atoms: N_5  and  C_7 
REMARK    3  A    between atoms: N_10  and  C_11 
REMARK    4  A    between atoms: C_14  and  C_15 
REMARK       I    between atoms: C_15  and  N_16 
REMARK    5  A    between atoms: N_16  and  C_17 
REMARK    6  A    between atoms: C_17  and  C_18 
REMARK    7  A    between atoms: C_18  and  N_19 
ROOT
HETATM    1  C   UNL     1       7.642  28.740  55.856  1.00  0.00     0.192 C 
HETATM    2  C   UNL     1       6.576  29.786  56.122  1.00  0.00     0.053 C 
HETATM    3  C   UNL     1       6.459  30.203  57.576  1.00  0.00     0.125 C 
HETATM    4  N   UNL     1       7.768  30.607  58.128  1.00  0.00    -0.381 N 
HETATM    5  C   UNL     1       8.896  29.691  57.906  1.00  0.00     0.125 C 
HETATM    6  C   UNL     1       8.975  29.163  56.478  1.00  0.00     0.053 C 
ENDROOT
BRANCH   4   7
HETATM    7  C   UNL     1       7.675  31.189  59.423  1.00  0.00     0.030 A 
HETATM    8  C   UNL     1       8.586  30.912  60.460  1.00  0.00     0.030 A 
HETATM    9  C   UNL     1       8.423  31.425  61.757  1.00  0.00     0.019 A 
HETATM   10  C   UNL     1       7.343  32.256  62.047  1.00  0.00     0.032 A 
HETATM   11  C   UNL     1       6.460  32.605  61.029  1.00  0.00     0.019 A 
HETATM   12  C   UNL     1       6.646  32.098  59.736  1.00  0.00     0.030 A 
BRANCH  10  13
HETATM   13  C   UNL     1       7.056  32.702  63.430  1.00  0.00     0.251 C 
HETATM   14  N   UNL     1       5.737  32.729  63.819  1.00  0.00    -0.355 N 
HETATM   15  H   UNL     1       5.044  32.416  63.145  1.00  0.00     0.162 HD
HETATM   16  O   UNL     1       7.975  33.030  64.175  1.00  0.00    -0.268 OA
BRANCH  14  17
HETATM   17  C   UNL     1       5.234  33.416  65.006  1.00  0.00     0.150 C 
BRANCH  17  18
HETATM   18  C   UNL     1       4.002  34.333  64.823  1.00  0.00     0.254 C 
BRANCH  18  19
HETATM   19  N   UNL     1       3.697  34.646  63.379  1.00  0.00    -0.066 N 
HETATM   20  H   UNL     1       4.469  34.210  62.829  1.00  0.00     0.280 HD
HETATM   21  C   UNL     1       2.409  34.044  62.844  1.00  0.00     0.261 C 
HETATM   22  C   UNL     1       2.270  34.374  61.352  1.00  0.00     0.195 C 
HETATM   23  O   UNL     1       2.298  35.789  61.136  1.00  0.00    -0.388 OA
HETATM   24  C   UNL     1       3.538  36.360  61.571  1.00  0.00     0.195 C 
HETATM   25  C   UNL     1       3.750  36.133  63.072  1.00  0.00     0.261 C 
ENDBRANCH  18  19
ENDBRANCH  17  18
ENDBRANCH  14  17
ENDBRANCH  10  13
ENDBRANCH   4   7
BRANCH   1  26
HETATM   26  N   UNL     1       7.286  27.278  56.170  1.00  0.00    -0.056 N 
HETATM   27  C   UNL     1       7.550  26.299  54.988  1.00  0.00     0.257 C 
HETATM   28  C   UNL     1       7.559  24.871  55.566  1.00  0.00     0.041 C 
HETATM   29  C   UNL     1       6.275  24.527  56.317  1.00  0.00     0.004 C 
HETATM   30  C   UNL     1       5.975  25.557  57.395  1.00  0.00     0.028 C 
HETATM   31  C   UNL     1       5.969  26.981  56.854  1.00  0.00     0.236 C 
HETATM   32  H   UNL     1       7.997  26.999  56.855  1.00  0.00     0.281 HD
BRANCH  27  33
HETATM   33  C   UNL     1       6.596  26.400  53.825  1.00  0.00     0.136 A 
HETATM   34  N   UNL     1       6.816  25.838  52.583  1.00  0.00    -0.346 N 
HETATM   35  C   UNL     1       7.958  25.063  52.156  1.00  0.00     0.157 C 
HETATM   36  C   UNL     1       5.733  26.120  51.799  1.00  0.00     0.111 A 
HETATM   37  C   UNL     1       4.877  26.834  52.598  1.00  0.00     0.136 A 
HETATM   38  N   UNL     1       5.419  27.004  53.844  1.00  0.00    -0.244 NA
ENDBRANCH  27  33
ENDBRANCH   1  26
TORSDOF 7
ENDMDL
MODEL 2
REMARK VINA RESULT:      -8.8      1.957      3.931
REMARK  7 active torsions:
REMARK  status: ('A' for Active; 'I' for Inactive)
REMARK    1  A    between atoms: C_3  and  C_4 
REMARK    2  A    between atoms: N_5  and  C_7 
REMARK    3  A    between atoms: N_10  and  C_11 
REMARK    4  A    between atoms: C_14  and  C_15 
REMARK       I    between atoms: C_15  and  N_16 
REMARK    5  A    between atoms: N_16  and  C_17 
REMARK    6  A    between atoms: C_17  and  C_18 
REMARK    7  A    between atoms: C_18  and  N_19 
ROOT
HETATM    1  C   UNL     1       7.330  26.813  55.510  1.00  0.00     0.192 C 
HETATM    2  C   UNL     1       8.021  28.164  55.473  1.00  0.00     0.053 C 
HETATM    3  C   UNL     1       7.140  29.327  55.886  1.00  0.00     0.125 C 
HETATM    4  N   UNL     1       6.497  29.080  57.193  1.00  0.00    -0.381 N 
HETATM    5  C   UNL     1       5.820  27.786  57.368  1.00  0.00     0.125 C 
HETATM    6  C   UNL     1       6.635  26.603  56.857  1.00  0.00     0.053 C 
ENDROOT
BRANCH   4   7
HETATM    7  C   UNL     1       5.820  30.219  57.710  1.00  0.00     0.030 A 
HETATM    8  C   UNL     1       6.489  31.343  58.230  1.00  0.00     0.030 A 
HETATM    9  C   UNL     1       5.802  32.417  58.820  1.00  0.00     0.019 A 
HETATM   10  C   UNL     1       4.411  32.402  58.885  1.00  0.00     0.032 A 
HETATM   11  C   UNL     1       3.713  31.338  58.321  1.00  0.00     0.019 A 
HETATM   12  C   UNL     1       4.412  30.282  57.720  1.00  0.00     0.030 A 
BRANCH  10  13
HETATM   13  C   UNL     1       3.657  33.443  59.622  1.00  0.00     0.251 C 
HETATM   14  N   UNL     1       4.324  34.609  59.919  1.00  0.00    -0.355 N 
HETATM   15  H   UNL     1       5.283  34.696  59.592  1.00  0.00     0.162 HD
HETATM   16  O   UNL     1       2.489  33.246  59.944  1.00  0.00    -0.268 OA
BRANCH  14  17
HETATM   17  C   UNL     1       3.869  35.605  60.886  1.00  0.00     0.150 C 
BRANCH  17  18
HETATM   18  C   UNL     1       4.907  36.126  61.907  1.00  0.00     0.254 C 
BRANCH  18  19
HETATM   19  N   UNL     1       4.917  35.349  63.200  1.00  0.00    -0.066 N 
HETATM   20  H   UNL     1       5.337  35.990  63.908  1.00  0.00     0.280 HD
HETATM   21  C   UNL     1       3.549  34.967  63.738  1.00  0.00     0.261 C 
HETATM   22  C   UNL     1       3.709  34.257  65.089  1.00  0.00     0.195 C 
HETATM   23  O   UNL     1       4.546  33.103  64.964  1.00  0.00    -0.388 OA
HETATM   24  C   UNL     1       5.863  33.457  64.526  1.00  0.00     0.195 C 
HETATM   25  C   UNL     1       5.822  34.129  63.148  1.00  0.00     0.261 C 
ENDBRANCH  18  19
ENDBRANCH  17  18
ENDBRANCH  14  17
ENDBRANCH  10  13
ENDBRANCH   4   7
BRANCH   1  26
HETATM   26  N   UNL     1       6.425  26.455  54.320  1.00  0.00    -0.056 N 
HETATM   27  C   UNL     1       5.918  24.982  54.337  1.00  0.00     0.257 C 
HETATM   28  C   UNL     1       4.726  24.894  53.367  1.00  0.00     0.041 C 
HETATM   29  C   UNL     1       5.072  25.362  51.956  1.00  0.00     0.004 C 
HETATM   30  C   UNL     1       5.669  26.761  51.971  1.00  0.00     0.028 C 
HETATM   31  C   UNL     1       6.846  26.881  52.931  1.00  0.00     0.236 C 
HETATM   32  H   UNL     1       5.567  26.989  54.502  1.00  0.00     0.281 HD
BRANCH  27  33
HETATM   33  C   UNL     1       6.949  23.929  54.017  1.00  0.00     0.136 A 
HETATM   34  N   UNL     1       7.646  23.206  54.964  1.00  0.00    -0.346 N 
HETATM   35  C   UNL     1       7.539  23.300  56.402  1.00  0.00     0.157 C 
HETATM   36  C   UNL     1       8.470  22.337  54.303  1.00  0.00     0.111 A 
HETATM   37  C   UNL     1       8.232  22.549  52.969  1.00  0.00     0.136 A 
HETATM   38  N   UNL     1       7.294  23.534  52.803  1.00  0.00    -0.244 NA
ENDBRANCH  27  33
ENDBRANCH   1  26
TORSDOF 7
ENDMDL
MODEL 3
REMARK VINA RESULT:      -8.7      4.234     11.796
REMARK  7 active torsions:
REMARK  status: ('A' for Active; 'I' for Inactive)
REMARK    1  A    between atoms: C_3  and  C_4 
REMARK    2  A    between atoms: N_5  and  C_7 
REMARK    3  A    between atoms: N_10  and  C_11 
REMARK    4  A    between atoms: C_14  and  C_15 
REMARK       I    between atoms: C_15  and  N_16 
REMARK    5  A    between atoms: N_16  and  C_17 
REMARK    6  A    between atoms: C_17  and  C_18 
REMARK    7  A    between atoms: C_18  and  N_19 
ROOT
HETATM    1  C   UNL     1       4.517  33.171  60.285  1.00  0.00     0.192 C 
HETATM    2  C   UNL     1       5.168  33.455  58.944  1.00  0.00     0.053 C 
HETATM    3  C   UNL     1       5.603  32.216  58.186  1.00  0.00     0.125 C 
HETATM    4  N   UNL     1       4.498  31.244  58.059  1.00  0.00    -0.381 N 
HETATM    5  C   UNL     1       3.762  30.909  59.288  1.00  0.00     0.125 C 
HETATM    6  C   UNL     1       3.407  32.129  60.132  1.00  0.00     0.053 C 
ENDROOT
BRANCH   4   7
HETATM    7  C   UNL     1       4.801  30.158  57.192  1.00  0.00     0.030 A 
HETATM    8  C   UNL     1       3.898  29.663  56.233  1.00  0.00     0.030 A 
HETATM    9  C   UNL     1       4.183  28.531  55.450  1.00  0.00     0.019 A 
HETATM   10  C   UNL     1       5.402  27.873  55.595  1.00  0.00     0.032 A 
HETATM   11  C   UNL     1       6.346  28.375  56.487  1.00  0.00     0.019 A 
HETATM   12  C   UNL     1       6.053  29.515  57.248  1.00  0.00     0.030 A 
BRANCH  10  13
HETATM   13  C   UNL     1       5.684  26.599  54.895  1.00  0.00     0.251 C 
HETATM   14  N   UNL     1       6.818  25.916  55.269  1.00  0.00    -0.355 N 
HETATM   15  H   UNL     1       7.377  26.312  56.019  1.00  0.00     0.162 HD
HETATM   16  O   UNL     1       4.924  26.194  54.021  1.00  0.00    -0.268 OA
BRANCH  14  17
HETATM   17  C   UNL     1       7.423  24.828  54.504  1.00  0.00     0.150 C 
BRANCH  17  18
HETATM   18  C   UNL     1       8.288  23.810  55.284  1.00  0.00     0.254 C 
BRANCH  18  19
HETATM   19  N   UNL     1       8.114  22.388  54.810  1.00  0.00    -0.066 N 
HETATM   20  H   UNL     1       7.154  22.109  55.109  1.00  0.00     0.280 HD
HETATM   21  C   UNL     1       8.156  22.198  53.303  1.00  0.00     0.261 C 
HETATM   22  C   UNL     1       7.886  20.726  52.965  1.00  0.00     0.195 C 
HETATM   23  O   UNL     1       8.834  19.871  53.611  1.00  0.00    -0.388 OA
HETATM   24  C   UNL     1       8.756  19.986  55.037  1.00  0.00     0.195 C 
HETATM   25  C   UNL     1       9.066  21.418  55.490  1.00  0.00     0.261 C 
ENDBRANCH  18  19
ENDBRANCH  17  18
ENDBRANCH  14  17
ENDBRANCH  10  13
ENDBRANCH   4   7
BRANCH   1  26
HETATM   26  N   UNL     1       5.451  32.865  61.468  1.00  0.00    -0.056 N 
HETATM   27  C   UNL     1       4.946  33.431  62.829  1.00  0.00     0.257 C 
HETATM   28  C   UNL     1       5.723  32.706  63.944  1.00  0.00     0.041 C 
HETATM   29  C   UNL     1       7.237  32.839  63.796  1.00  0.00     0.004 C 
HETATM   30  C   UNL     1       7.697  32.385  62.420  1.00  0.00     0.028 C 
HETATM   31  C   UNL     1       6.938  33.078  61.294  1.00  0.00     0.236 C 
HETATM   32  H   UNL     1       5.351  31.851  61.596  1.00  0.00     0.281 HD
BRANCH  27  33
HETATM   33  C   UNL     1       5.041  34.926  62.994  1.00  0.00     0.136 A 
HETATM   34  N   UNL     1       4.410  35.642  63.991  1.00  0.00    -0.346 N 
HETATM   35  C   UNL     1       3.563  35.131  65.045  1.00  0.00     0.157 C 
HETATM   36  C   UNL     1       4.742  36.959  63.834  1.00  0.00     0.111 A 
HETATM   37  C   UNL     1       5.582  36.999  62.751  1.00  0.00     0.136 A 
HETATM   38  N   UNL     1       5.758  35.741  62.239  1.00  0.00    -0.244 NA
ENDBRANCH  27  33
ENDBRANCH   1  26
TORSDOF 7
ENDMDL
MODEL 4
REMARK VINA RESULT:      -8.6      3.200      5.847
REMARK  7 active torsions:
REMARK  status: ('A' for Active; 'I' for Inactive)
REMARK    1  A    between atoms: C_3  and  C_4 
REMARK    2  A    between atoms: N_5  and  C_7 
REMARK    3  A    between atoms: N_10  and  C_11 
REMARK    4  A    between atoms: C_14  and  C_15 
REMARK       I    between atoms: C_15  and  N_16 
REMARK    5  A    between atoms: N_16  and  C_17 
REMARK    6  A    between atoms: C_17  and  C_18 
REMARK    7  A    between atoms: C_18  and  N_19 
ROOT
HETATM    1  C   UNL     1       4.519  27.546  52.087  1.00  0.00     0.192 C 
HETATM    2  C   UNL     1       5.903  27.043  52.454  1.00  0.00     0.053 C 
HETATM    3  C   UNL     1       6.578  27.826  53.564  1.00  0.00     0.125 C 
HETATM    4  N   UNL     1       5.707  27.938  54.752  1.00  0.00    -0.381 N 
HETATM    5  C   UNL     1       4.324  28.384  54.524  1.00  0.00     0.125 C 
HETATM    6  C   UNL     1       3.653  27.695  53.340  1.00  0.00     0.053 C 
ENDROOT
BRANCH   4   7
HETATM    7  C   UNL     1       6.368  28.492  55.882  1.00  0.00     0.030 A 
HETATM    8  C   UNL     1       6.069  29.765  56.404  1.00  0.00     0.030 A 
HETATM    9  C   UNL     1       6.797  30.330  57.464  1.00  0.00     0.019 A 
HETATM   10  C   UNL     1       7.842  29.618  58.049  1.00  0.00     0.032 A 
HETATM   11  C   UNL     1       8.123  28.330  57.602  1.00  0.00     0.019 A 
HETATM   12  C   UNL     1       7.375  27.773  56.556  1.00  0.00     0.030 A 
BRANCH  10  13
HETATM   13  C   UNL     1       8.723  30.231  59.069  1.00  0.00     0.251 C 
HETATM   14  N   UNL     1       8.214  30.362  60.340  1.00  0.00    -0.355 N 
HETATM   15  H   UNL     1       7.277  30.008  60.509  1.00  0.00     0.162 HD
HETATM   16  O   UNL     1       9.854  30.600  58.766  1.00  0.00    -0.268 OA
BRANCH  14  17
HETATM   17  C   UNL     1       8.794  31.203  61.386  1.00  0.00     0.150 C 
BRANCH  17  18
HETATM   18  C   UNL     1       8.127  31.158  62.780  1.00  0.00     0.254 C 
BRANCH  18  19
HETATM   19  N   UNL     1       7.136  32.273  63.007  1.00  0.00    -0.066 N 
HETATM   20  H   UNL     1       7.249  32.917  62.194  1.00  0.00     0.280 HD
HETATM   21  C   UNL     1       5.677  31.853  63.011  1.00  0.00     0.261 C 
HETATM   22  C   UNL     1       4.786  33.092  63.169  1.00  0.00     0.195 C 
HETATM   23  O   UNL     1       5.113  33.806  64.366  1.00  0.00    -0.388 OA
HETATM   24  C   UNL     1       6.467  34.272  64.344  1.00  0.00     0.195 C 
HETATM   25  C   UNL     1       7.449  33.100  64.244  1.00  0.00     0.261 C 
ENDBRANCH  18  19
ENDBRANCH  17  18
ENDBRANCH  14  17
ENDBRANCH  10  13
ENDBRANCH   4   7
BRANCH   1  26
HETATM   26  N   UNL     1       4.439  28.776  51.168  1.00  0.00    -0.056 N 
HETATM   27  C   UNL     1       3.304  28.692  50.104  1.00  0.00     0.257 C 
HETATM   28  C   UNL     1       3.073  30.116  49.565  1.00  0.00     0.041 C 
HETATM   29  C   UNL     1       4.342  30.749  48.999  1.00  0.00     0.004 C 
HETATM   30  C   UNL     1       5.472  30.721  50.015  1.00  0.00     0.028 C 
HETATM   31  C   UNL     1       5.717  29.325  50.575  1.00  0.00     0.236 C 
HETATM   32  H   UNL     1       4.107  29.520  51.792  1.00  0.00     0.281 HD
BRANCH  27  33
HETATM   33  C   UNL     1       3.533  27.721  48.974  1.00  0.00     0.136 A 
HETATM   34  N   UNL     1       2.535  27.214  48.166  1.00  0.00    -0.346 N 
HETATM   35  C   UNL     1       1.119  27.496  48.230  1.00  0.00     0.157 C 
HETATM   36  C   UNL     1       3.120  26.388  47.247  1.00  0.00     0.111 A 
HETATM   37  C   UNL     1       4.464  26.434  47.516  1.00  0.00     0.136 A 
HETATM   38  N   UNL     1       4.709  27.257  48.583  1.00  0.00    -0.244 NA
ENDBRANCH  27  33
ENDBRANCH   1  26
TORSDOF 7
ENDMDL
MODEL 5
REMARK VINA RESULT:      -8.4      5.099     11.339
REMARK  7 active torsions:
REMARK  status: ('A' for Active; 'I' for Inactive)
REMARK    1  A    between atoms: C_3  and  C_4 
REMARK    2  A    between atoms: N_5  and  C_7 
REMARK    3  A    between atoms: N_10  and  C_11 
REMARK    4  A    between atoms: C_14  and  C_15 
REMARK       I    between atoms: C_15  and  N_16 
REMARK    5  A    between atoms: N_16  and  C_17 
REMARK    6  A    between atoms: C_17  and  C_18 
REMARK    7  A    between atoms: C_18  and  N_19 
ROOT
HETATM    1  C   UNL     1       7.300  27.602  57.736  1.00  0.00     0.192 C 
HETATM    2  C   UNL     1       5.918  28.072  57.322  1.00  0.00     0.053 C 
HETATM    3  C   UNL     1       5.671  28.042  55.826  1.00  0.00     0.125 C 
HETATM    4  N   UNL     1       5.990  26.719  55.251  1.00  0.00    -0.381 N 
HETATM    5  C   UNL     1       7.293  26.136  55.607  1.00  0.00     0.125 C 
HETATM    6  C   UNL     1       7.623  26.251  57.091  1.00  0.00     0.053 C 
ENDROOT
BRANCH   4   7
HETATM    7  C   UNL     1       5.590  26.585  53.893  1.00  0.00     0.030 A 
HETATM    8  C   UNL     1       5.796  25.413  53.141  1.00  0.00     0.030 A 
HETATM    9  C   UNL     1       5.477  25.334  51.775  1.00  0.00     0.019 A 
HETATM   10  C   UNL     1       4.918  26.433  51.126  1.00  0.00     0.032 A 
HETATM   11  C   UNL     1       4.639  27.586  51.854  1.00  0.00     0.019 A 
HETATM   12  C   UNL     1       4.947  27.643  53.220  1.00  0.00     0.030 A 
BRANCH  10  13
HETATM   13  C   UNL     1       4.699  26.440  49.661  1.00  0.00     0.251 C 
HETATM   14  N   UNL     1       5.344  27.414  48.935  1.00  0.00    -0.355 N 
HETATM   15  H   UNL     1       5.951  28.052  49.443  1.00  0.00     0.162 HD
HETATM   16  O   UNL     1       3.967  25.602  49.143  1.00  0.00    -0.268 OA
BRANCH  14  17
HETATM   17  C   UNL     1       5.021  27.775  47.557  1.00  0.00     0.150 C 
BRANCH  17  18
HETATM   18  C   UNL     1       4.284  29.116  47.331  1.00  0.00     0.254 C 
BRANCH  18  19
HETATM   19  N   UNL     1       2.782  28.978  47.314  1.00  0.00    -0.066 N 
HETATM   20  H   UNL     1       2.475  29.143  48.298  1.00  0.00     0.280 HD
HETATM   21  C   UNL     1       2.046  30.002  46.467  1.00  0.00     0.261 C 
HETATM   22  C   UNL     1       0.533  29.793  46.609  1.00  0.00     0.195 C 
HETATM   23  O   UNL     1       0.163  28.462  46.232  1.00  0.00    -0.388 OA
HETATM   24  C   UNL     1       0.794  27.487  47.070  1.00  0.00     0.195 C 
HETATM   25  C   UNL     1       2.321  27.574  46.960  1.00  0.00     0.261 C 
ENDBRANCH  18  19
ENDBRANCH  17  18
ENDBRANCH  14  17
ENDBRANCH  10  13
ENDBRANCH   4   7
BRANCH   1  26
HETATM   26  N   UNL     1       8.455  28.608  57.599  1.00  0.00    -0.056 N 
HETATM   27  C   UNL     1       8.477  29.693  58.716  1.00  0.00     0.257 C 
HETATM   28  C   UNL     1       9.875  30.339  58.702  1.00  0.00     0.041 C 
HETATM   29  C   UNL     1      10.248  30.915  57.338  1.00  0.00     0.004 C 
HETATM   30  C   UNL     1      10.113  29.870  56.243  1.00  0.00     0.028 C 
HETATM   31  C   UNL     1       8.741  29.205  56.239  1.00  0.00     0.236 C 
HETATM   32  H   UNL     1       9.287  28.048  57.813  1.00  0.00     0.281 HD
BRANCH  27  33
HETATM   33  C   UNL     1       7.400  30.744  58.634  1.00  0.00     0.136 A 
HETATM   34  N   UNL     1       7.018  31.555  59.684  1.00  0.00    -0.346 N 
HETATM   35  C   UNL     1       7.550  31.568  61.027  1.00  0.00     0.157 C 
HETATM   36  C   UNL     1       6.036  32.391  59.231  1.00  0.00     0.111 A 
HETATM   37  C   UNL     1       5.863  32.072  57.908  1.00  0.00     0.136 A 
HETATM   38  N   UNL     1       6.707  31.054  57.550  1.00  0.00    -0.244 NA
ENDBRANCH  27  33
ENDBRANCH   1  26
TORSDOF 7
ENDMDL
MODEL 6
REMARK VINA RESULT:      -8.1      4.219     11.785
REMARK  7 active torsions:
REMARK  status: ('A' for Active; 'I' for Inactive)
REMARK    1  A    between atoms: C_3  and  C_4 
REMARK    2  A    between atoms: N_5  and  C_7 
REMARK    3  A    between atoms: N_10  and  C_11 
REMARK    4  A    between atoms: C_14  and  C_15 
REMARK       I    between atoms: C_15  and  N_16 
REMARK    5  A    between atoms: N_16  and  C_17 
REMARK    6  A    between atoms: C_17  and  C_18 
REMARK    7  A    between atoms: C_18  and  N_19 
ROOT
HETATM    1  C   UNL     1       4.231  33.641  61.046  1.00  0.00     0.192 C 
HETATM    2  C   UNL     1       4.769  34.140  59.717  1.00  0.00     0.053 C 
HETATM    3  C   UNL     1       5.264  33.044  58.793  1.00  0.00     0.125 C 
HETATM    4  N   UNL     1       4.243  31.992  58.607  1.00  0.00    -0.381 N 
HETATM    5  C   UNL     1       3.617  31.449  59.821  1.00  0.00     0.125 C 
HETATM    6  C   UNL     1       3.210  32.523  60.824  1.00  0.00     0.053 C 
ENDROOT
BRANCH   4   7
HETATM    7  C   UNL     1       4.586  31.049  57.600  1.00  0.00     0.030 A 
HETATM    8  C   UNL     1       5.915  30.765  57.229  1.00  0.00     0.030 A 
HETATM    9  C   UNL     1       6.228  29.899  56.169  1.00  0.00     0.019 A 
HETATM   10  C   UNL     1       5.208  29.270  55.458  1.00  0.00     0.032 A 
HETATM   11  C   UNL     1       3.885  29.476  55.840  1.00  0.00     0.019 A 
HETATM   12  C   UNL     1       3.589  30.330  56.911  1.00  0.00     0.030 A 
BRANCH  10  13
HETATM   13  C   UNL     1       5.488  28.464  54.248  1.00  0.00     0.251 C 
HETATM   14  N   UNL     1       5.682  29.147  53.070  1.00  0.00    -0.355 N 
HETATM   15  H   UNL     1       5.648  30.162  53.106  1.00  0.00     0.162 HD
HETATM   16  O   UNL     1       5.537  27.240  54.321  1.00  0.00    -0.268 OA
BRANCH  14  17
HETATM   17  C   UNL     1       5.661  28.539  51.742  1.00  0.00     0.150 C 
BRANCH  17  18
HETATM   18  C   UNL     1       4.284  28.109  51.182  1.00  0.00     0.254 C 
BRANCH  18  19
HETATM   19  N   UNL     1       4.297  27.849  49.696  1.00  0.00    -0.066 N 
HETATM   20  H   UNL     1       3.401  28.245  49.335  1.00  0.00     0.280 HD
HETATM   21  C   UNL     1       5.405  28.546  48.925  1.00  0.00     0.261 C 
HETATM   22  C   UNL     1       5.246  28.258  47.427  1.00  0.00     0.195 C 
HETATM   23  O   UNL     1       5.259  26.849  47.173  1.00  0.00    -0.388 OA
HETATM   24  C   UNL     1       4.175  26.189  47.836  1.00  0.00     0.195 C 
HETATM   25  C   UNL     1       4.269  26.368  49.356  1.00  0.00     0.261 C 
ENDBRANCH  18  19
ENDBRANCH  17  18
ENDBRANCH  14  17
ENDBRANCH  10  13
ENDBRANCH   4   7
BRANCH   1  26
HETATM   26  N   UNL     1       5.260  33.290  62.133  1.00  0.00    -0.056 N 
HETATM   27  C   UNL     1       4.947  33.924  63.521  1.00  0.00     0.257 C 
HETATM   28  C   UNL     1       5.782  33.166  64.570  1.00  0.00     0.041 C 
HETATM   29  C   UNL     1       7.277  33.178  64.261  1.00  0.00     0.004 C 
HETATM   30  C   UNL     1       7.552  32.660  62.858  1.00  0.00     0.028 C 
HETATM   31  C   UNL     1       6.732  33.384  61.798  1.00  0.00     0.236 C 
HETATM   32  H   UNL     1       5.099  32.291  62.301  1.00  0.00     0.281 HD
BRANCH  27  33
HETATM   33  C   UNL     1       5.169  35.411  63.630  1.00  0.00     0.136 A 
HETATM   34  N   UNL     1       4.671  36.202  64.646  1.00  0.00    -0.346 N 
HETATM   35  C   UNL     1       3.867  35.789  65.773  1.00  0.00     0.157 C 
HETATM   36  C   UNL     1       5.093  37.483  64.423  1.00  0.00     0.111 A 
HETATM   37  C   UNL     1       5.851  37.426  63.282  1.00  0.00     0.136 A 
HETATM   38  N   UNL     1       5.891  36.145  62.800  1.00  0.00    -0.244 NA
ENDBRANCH  27  33
ENDBRANCH   1  26
TORSDOF 7
ENDMDL
MODEL 7
REMARK VINA RESULT:      -8.0      3.243     11.557
REMARK  7 active torsions:
REMARK  status: ('A' for Active; 'I' for Inactive)
REMARK    1  A    between atoms: C_3  and  C_4 
REMARK    2  A    between atoms: N_5  and  C_7 
REMARK    3  A    between atoms: N_10  and  C_11 
REMARK    4  A    between atoms: C_14  and  C_15 
REMARK       I    between atoms: C_15  and  N_16 
REMARK    5  A    between atoms: N_16  and  C_17 
REMARK    6  A    between atoms: C_17  and  C_18 
REMARK    7  A    between atoms: C_18  and  N_19 
ROOT
HETATM    1  C   UNL     1       2.875  34.655  61.777  1.00  0.00     0.192 C 
HETATM    2  C   UNL     1       2.422  34.581  60.330  1.00  0.00     0.053 C 
HETATM    3  C   UNL     1       3.390  33.864  59.408  1.00  0.00     0.125 C 
HETATM    4  N   UNL     1       3.751  32.532  59.934  1.00  0.00    -0.381 N 
HETATM    5  C   UNL     1       4.175  32.463  61.341  1.00  0.00     0.125 C 
HETATM    6  C   UNL     1       3.285  33.269  62.281  1.00  0.00     0.053 C 
ENDROOT
BRANCH   4   7
HETATM    7  C   UNL     1       4.498  31.748  59.012  1.00  0.00     0.030 A 
HETATM    8  C   UNL     1       3.907  30.826  58.128  1.00  0.00     0.030 A 
HETATM    9  C   UNL     1       4.671  29.996  57.291  1.00  0.00     0.019 A 
HETATM   10  C   UNL     1       6.062  30.084  57.304  1.00  0.00     0.032 A 
HETATM   11  C   UNL     1       6.677  31.031  58.117  1.00  0.00     0.019 A 
HETATM   12  C   UNL     1       5.900  31.864  58.934  1.00  0.00     0.030 A 
BRANCH  10  13
HETATM   13  C   UNL     1       6.907  29.133  56.545  1.00  0.00     0.251 C 
HETATM   14  N   UNL     1       6.866  29.215  55.173  1.00  0.00    -0.355 N 
HETATM   15  H   UNL     1       6.282  29.939  54.764  1.00  0.00     0.162 HD
HETATM   16  O   UNL     1       7.601  28.315  57.141  1.00  0.00    -0.268 OA
BRANCH  14  17
HETATM   17  C   UNL     1       7.372  28.190  54.263  1.00  0.00     0.150 C 
BRANCH  17  18
HETATM   18  C   UNL     1       6.332  27.258  53.599  1.00  0.00     0.254 C 
BRANCH  18  19
HETATM   19  N   UNL     1       6.690  25.795  53.695  1.00  0.00    -0.066 N 
HETATM   20  H   UNL     1       5.829  25.277  53.414  1.00  0.00     0.280 HD
HETATM   21  C   UNL     1       7.785  25.333  52.750  1.00  0.00     0.261 C 
HETATM   22  C   UNL     1       7.986  23.819  52.899  1.00  0.00     0.195 C 
HETATM   23  O   UNL     1       8.305  23.477  54.252  1.00  0.00    -0.388 OA
HETATM   24  C   UNL     1       7.248  23.842  55.147  1.00  0.00     0.195 C 
HETATM   25  C   UNL     1       7.001  25.355  55.116  1.00  0.00     0.261 C 
ENDBRANCH  18  19
ENDBRANCH  17  18
ENDBRANCH  14  17
ENDBRANCH  10  13
ENDBRANCH   4   7
BRANCH   1  26
HETATM   26  N   UNL     1       3.905  35.738  62.136  1.00  0.00    -0.056 N 
HETATM   27  C   UNL     1       5.001  35.257  63.132  1.00  0.00     0.257 C 
HETATM   28  C   UNL     1       6.160  36.269  63.064  1.00  0.00     0.041 C 
HETATM   29  C   UNL     1       5.716  37.701  63.351  1.00  0.00     0.004 C 
HETATM   30  C   UNL     1       4.569  38.114  62.442  1.00  0.00     0.028 C 
HETATM   31  C   UNL     1       3.410  37.125  62.481  1.00  0.00     0.236 C 
HETATM   32  H   UNL     1       4.433  35.865  61.265  1.00  0.00     0.281 HD
BRANCH  27  33
HETATM   33  C   UNL     1       4.551  35.053  64.556  1.00  0.00     0.136 A 
HETATM   34  N   UNL     1       5.194  34.241  65.469  1.00  0.00    -0.346 N 
HETATM   35  C   UNL     1       6.386  33.450  65.261  1.00  0.00     0.157 C 
HETATM   36  C   UNL     1       4.514  34.322  66.652  1.00  0.00     0.111 A 
HETATM   37  C   UNL     1       3.484  35.198  66.424  1.00  0.00     0.136 A 
HETATM   38  N   UNL     1       3.514  35.642  65.129  1.00  0.00    -0.244 NA
ENDBRANCH  27  33
ENDBRANCH   1  26
TORSDOF 7
ENDMDL
MODEL 8
REMARK VINA RESULT:      -8.0      3.946     11.512
REMARK  7 active torsions:
REMARK  status: ('A' for Active; 'I' for Inactive)
REMARK    1  A    between atoms: C_3  and  C_4 
REMARK    2  A    between atoms: N_5  and  C_7 
REMARK    3  A    between atoms: N_10  and  C_11 
REMARK    4  A    between atoms: C_14  and  C_15 
REMARK       I    between atoms: C_15  and  N_16 
REMARK    5  A    between atoms: N_16  and  C_17 
REMARK    6  A    between atoms: C_17  and  C_18 
REMARK    7  A    between atoms: C_18  and  N_19 
ROOT
HETATM    1  C   UNL     1       7.243  33.165  60.373  1.00  0.00     0.192 C 
HETATM    2  C   UNL     1       8.518  32.413  60.037  1.00  0.00     0.053 C 
HETATM    3  C   UNL     1       8.297  30.989  59.564  1.00  0.00     0.125 C 
HETATM    4  N   UNL     1       7.324  30.933  58.454  1.00  0.00    -0.381 N 
HETATM    5  C   UNL     1       6.056  31.655  58.642  1.00  0.00     0.125 C 
HETATM    6  C   UNL     1       6.237  33.053  59.224  1.00  0.00     0.053 C 
ENDROOT
BRANCH   4   7
HETATM    7  C   UNL     1       7.233  29.649  57.851  1.00  0.00     0.030 A 
HETATM    8  C   UNL     1       6.015  29.073  57.443  1.00  0.00     0.030 A 
HETATM    9  C   UNL     1       5.937  27.765  56.935  1.00  0.00     0.019 A 
HETATM   10  C   UNL     1       7.094  27.001  56.800  1.00  0.00     0.032 A 
HETATM   11  C   UNL     1       8.325  27.562  57.131  1.00  0.00     0.019 A 
HETATM   12  C   UNL     1       8.387  28.874  57.621  1.00  0.00     0.030 A 
BRANCH  10  13
HETATM   13  C   UNL     1       7.040  25.575  56.404  1.00  0.00     0.251 C 
HETATM   14  N   UNL     1       6.794  25.301  55.079  1.00  0.00    -0.355 N 
HETATM   15  H   UNL     1       6.691  26.091  54.448  1.00  0.00     0.162 HD
HETATM   16  O   UNL     1       7.209  24.695  57.243  1.00  0.00    -0.268 OA
BRANCH  14  17
HETATM   17  C   UNL     1       6.402  23.993  54.559  1.00  0.00     0.150 C 
BRANCH  17  18
HETATM   18  C   UNL     1       7.243  23.412  53.398  1.00  0.00     0.254 C 
BRANCH  18  19
HETATM   19  N   UNL     1       8.115  22.252  53.811  1.00  0.00    -0.066 N 
HETATM   20  H   UNL     1       9.097  22.575  53.666  1.00  0.00     0.280 HD
HETATM   21  C   UNL     1       8.016  21.857  55.274  1.00  0.00     0.261 C 
HETATM   22  C   UNL     1       9.010  20.726  55.568  1.00  0.00     0.195 C 
HETATM   23  O   UNL     1       8.768  19.599  54.719  1.00  0.00    -0.388 OA
HETATM   24  C   UNL     1       8.930  19.941  53.338  1.00  0.00     0.195 C 
HETATM   25  C   UNL     1       7.937  21.033  52.923  1.00  0.00     0.261 C 
ENDBRANCH  18  19
ENDBRANCH  17  18
ENDBRANCH  14  17
ENDBRANCH  10  13
ENDBRANCH   4   7
BRANCH   1  26
HETATM   26  N   UNL     1       6.603  32.886  61.743  1.00  0.00    -0.056 N 
HETATM   27  C   UNL     1       5.139  33.401  61.868  1.00  0.00     0.257 C 
HETATM   28  C   UNL     1       4.507  32.698  63.084  1.00  0.00     0.041 C 
HETATM   29  C   UNL     1       5.300  32.912  64.371  1.00  0.00     0.004 C 
HETATM   30  C   UNL     1       6.755  32.507  64.195  1.00  0.00     0.028 C 
HETATM   31  C   UNL     1       7.404  33.180  62.992  1.00  0.00     0.236 C 
HETATM   32  H   UNL     1       6.484  31.867  61.749  1.00  0.00     0.281 HD
BRANCH  27  33
HETATM   33  C   UNL     1       4.973  34.896  61.968  1.00  0.00     0.136 A 
HETATM   34  N   UNL     1       3.894  35.597  61.468  1.00  0.00    -0.346 N 
HETATM   35  C   UNL     1       2.742  35.068  60.776  1.00  0.00     0.157 C 
HETATM   36  C   UNL     1       4.082  36.919  61.763  1.00  0.00     0.111 A 
HETATM   37  C   UNL     1       5.267  36.977  62.450  1.00  0.00     0.136 A 
HETATM   38  N   UNL     1       5.810  35.725  62.569  1.00  0.00    -0.244 NA
ENDBRANCH  27  33
ENDBRANCH   1  26
TORSDOF 7
ENDMDL
MODEL 9
REMARK VINA RESULT:      -7.9      3.897     11.807
REMARK  7 active torsions:
REMARK  status: ('A' for Active; 'I' for Inactive)
REMARK    1  A    between atoms: C_3  and  C_4 
REMARK    2  A    between atoms: N_5  and  C_7 
REMARK    3  A    between atoms: N_10  and  C_11 
REMARK    4  A    between atoms: C_14  and  C_15 
REMARK       I    between atoms: C_15  and  N_16 
REMARK    5  A    between atoms: N_16  and  C_17 
REMARK    6  A    between atoms: C_17  and  C_18 
REMARK    7  A    between atoms: C_18  and  N_19 
ROOT
HETATM    1  C   UNL     1       4.909  32.984  61.989  1.00  0.00     0.192 C 
HETATM    2  C   UNL     1       3.743  32.135  61.517  1.00  0.00     0.053 C 
HETATM    3  C   UNL     1       3.605  32.046  60.010  1.00  0.00     0.125 C 
HETATM    4  N   UNL     1       4.873  31.631  59.375  1.00  0.00    -0.381 N 
HETATM    5  C   UNL     1       6.087  32.356  59.776  1.00  0.00     0.125 C 
HETATM    6  C   UNL     1       6.199  32.562  61.283  1.00  0.00     0.053 C 
ENDROOT
BRANCH   4   7
HETATM    7  C   UNL     1       4.739  31.346  57.988  1.00  0.00     0.030 A 
HETATM    8  C   UNL     1       3.607  31.706  57.232  1.00  0.00     0.030 A 
HETATM    9  C   UNL     1       3.456  31.334  55.886  1.00  0.00     0.019 A 
HETATM   10  C   UNL     1       4.455  30.600  55.250  1.00  0.00     0.032 A 
HETATM   11  C   UNL     1       5.617  30.283  55.948  1.00  0.00     0.019 A 
HETATM   12  C   UNL     1       5.761  30.678  57.285  1.00  0.00     0.030 A 
BRANCH  10  13
HETATM   13  C   UNL     1       4.273  30.067  53.880  1.00  0.00     0.251 C 
HETATM   14  N   UNL     1       5.246  29.221  53.402  1.00  0.00    -0.355 N 
HETATM   15  H   UNL     1       6.016  28.992  54.026  1.00  0.00     0.162 HD
HETATM   16  O   UNL     1       3.288  30.385  53.221  1.00  0.00    -0.268 OA
BRANCH  14  17
HETATM   17  C   UNL     1       5.407  28.846  51.999  1.00  0.00     0.150 C 
BRANCH  17  18
HETATM   18  C   UNL     1       5.075  27.386  51.614  1.00  0.00     0.254 C 
BRANCH  18  19
HETATM   19  N   UNL     1       4.039  27.275  50.522  1.00  0.00    -0.066 N 
HETATM   20  H   UNL     1       3.289  26.661  50.909  1.00  0.00     0.280 HD
HETATM   21  C   UNL     1       3.359  28.578  50.140  1.00  0.00     0.261 C 
HETATM   22  C   UNL     1       2.280  28.303  49.084  1.00  0.00     0.195 C 
HETATM   23  O   UNL     1       2.844  27.667  47.932  1.00  0.00    -0.388 OA
HETATM   24  C   UNL     1       3.426  26.401  48.266  1.00  0.00     0.195 C 
HETATM   25  C   UNL     1       4.562  26.570  49.282  1.00  0.00     0.261 C 
ENDBRANCH  18  19
ENDBRANCH  17  18
ENDBRANCH  14  17
ENDBRANCH  10  13
ENDBRANCH   4   7
BRANCH   1  26
HETATM   26  N   UNL     1       4.712  34.509  61.991  1.00  0.00    -0.056 N 
HETATM   27  C   UNL     1       5.701  35.269  62.924  1.00  0.00     0.257 C 
HETATM   28  C   UNL     1       5.677  36.752  62.509  1.00  0.00     0.041 C 
HETATM   29  C   UNL     1       4.275  37.356  62.549  1.00  0.00     0.004 C 
HETATM   30  C   UNL     1       3.299  36.536  61.721  1.00  0.00     0.028 C 
HETATM   31  C   UNL     1       3.308  35.061  62.102  1.00  0.00     0.236 C 
HETATM   32  H   UNL     1       5.024  34.792  61.055  1.00  0.00     0.281 HD
BRANCH  27  33
HETATM   33  C   UNL     1       5.454  35.121  64.403  1.00  0.00     0.136 A 
HETATM   34  N   UNL     1       6.156  34.268  65.231  1.00  0.00    -0.346 N 
HETATM   35  C   UNL     1       7.233  33.375  64.868  1.00  0.00     0.157 C 
HETATM   36  C   UNL     1       5.671  34.422  66.499  1.00  0.00     0.111 A 
HETATM   37  C   UNL     1       4.696  35.381  66.404  1.00  0.00     0.136 A 
HETATM   38  N   UNL     1       4.568  35.805  65.108  1.00  0.00    -0.244 NA
ENDBRANCH  27  33
ENDBRANCH   1  26
TORSDOF 7
ENDMDL
MODEL 10
REMARK VINA RESULT:      -7.8      3.461     11.654
REMARK  7 active torsions:
REMARK  status: ('A' for Active; 'I' for Inactive)
REMARK    1  A    between atoms: C_3  and  C_4 
REMARK    2  A    between atoms: N_5  and  C_7 
REMARK    3  A    between atoms: N_10  and  C_11 
REMARK    4  A    between atoms: C_14  and  C_15 
REMARK       I    between atoms: C_15  and  N_16 
REMARK    5  A    between atoms: N_16  and  C_17 
REMARK    6  A    between atoms: C_17  and  C_18 
REMARK    7  A    between atoms: C_18  and  N_19 
ROOT
HETATM    1  C   UNL     1       4.801  33.267  62.093  1.00  0.00     0.192 C 
HETATM    2  C   UNL     1       3.618  32.459  61.589  1.00  0.00     0.053 C 
HETATM    3  C   UNL     1       3.545  32.335  60.080  1.00  0.00     0.125 C 
HETATM    4  N   UNL     1       4.819  31.846  59.515  1.00  0.00    -0.381 N 
HETATM    5  C   UNL     1       6.047  32.526  59.952  1.00  0.00     0.125 C 
HETATM    6  C   UNL     1       6.100  32.768  61.457  1.00  0.00     0.053 C 
ENDROOT
BRANCH   4   7
HETATM    7  C   UNL     1       4.734  31.529  58.131  1.00  0.00     0.030 A 
HETATM    8  C   UNL     1       3.680  31.962  57.303  1.00  0.00     0.030 A 
HETATM    9  C   UNL     1       3.568  31.561  55.962  1.00  0.00     0.019 A 
HETATM   10  C   UNL     1       4.531  30.724  55.402  1.00  0.00     0.032 A 
HETATM   11  C   UNL     1       5.622  30.330  56.172  1.00  0.00     0.019 A 
HETATM   12  C   UNL     1       5.729  30.753  57.504  1.00  0.00     0.030 A 
BRANCH  10  13
HETATM   13  C   UNL     1       4.376  30.165  54.039  1.00  0.00     0.251 C 
HETATM   14  N   UNL     1       5.288  29.214  53.644  1.00  0.00    -0.355 N 
HETATM   15  H   UNL     1       5.995  28.934  54.319  1.00  0.00     0.162 HD
HETATM   16  O   UNL     1       3.465  30.553  53.314  1.00  0.00    -0.268 OA
BRANCH  14  17
HETATM   17  C   UNL     1       5.490  28.779  52.264  1.00  0.00     0.150 C 
BRANCH  17  18
HETATM   18  C   UNL     1       5.243  27.285  51.950  1.00  0.00     0.254 C 
BRANCH  18  19
HETATM   19  N   UNL     1       6.083  26.350  52.784  1.00  0.00    -0.066 N 
HETATM   20  H   UNL     1       6.727  26.964  53.329  1.00  0.00     0.280 HD
HETATM   21  C   UNL     1       5.317  25.531  53.808  1.00  0.00     0.261 C 
HETATM   22  C   UNL     1       6.302  24.692  54.634  1.00  0.00     0.195 C 
HETATM   23  O   UNL     1       7.085  23.843  53.787  1.00  0.00    -0.388 OA
HETATM   24  C   UNL     1       7.869  24.607  52.863  1.00  0.00     0.195 C 
HETATM   25  C   UNL     1       6.972  25.447  51.945  1.00  0.00     0.261 C 
ENDBRANCH  18  19
ENDBRANCH  17  18
ENDBRANCH  14  17
ENDBRANCH  10  13
ENDBRANCH   4   7
BRANCH   1  26
HETATM   26  N   UNL     1       4.675  34.799  62.046  1.00  0.00    -0.056 N 
HETATM   27  C   UNL     1       5.648  35.538  63.012  1.00  0.00     0.257 C 
HETATM   28  C   UNL     1       5.714  37.009  62.561  1.00  0.00     0.041 C 
HETATM   29  C   UNL     1       4.342  37.677  62.511  1.00  0.00     0.004 C 
HETATM   30  C   UNL     1       3.373  36.880  61.652  1.00  0.00     0.028 C 
HETATM   31  C   UNL     1       3.294  35.416  62.069  1.00  0.00     0.236 C 
HETATM   32  H   UNL     1       5.049  35.042  61.122  1.00  0.00     0.281 HD
BRANCH  27  33
HETATM   33  C   UNL     1       5.316  35.441  64.480  1.00  0.00     0.136 A 
HETATM   34  N   UNL     1       5.888  34.536  65.351  1.00  0.00    -0.346 N 
HETATM   35  C   UNL     1       6.884  33.532  65.053  1.00  0.00     0.157 C 
HETATM   36  C   UNL     1       5.360  34.760  66.592  1.00  0.00     0.111 A 
HETATM   37  C   UNL     1       4.493  35.811  66.438  1.00  0.00     0.136 A 
HETATM   38  N   UNL     1       4.472  36.223  65.132  1.00  0.00    -0.244 NA
ENDBRANCH  27  33
ENDBRANCH   1  26
TORSDOF 7
ENDMDL
