MODEL 1
REMARK VINA RESULT:     -11.7      0.000      0.000
REMARK  4 active torsions:
REMARK  status: ('A' for Active; 'I' for Inactive)
REMARK    1  A    between atoms: N_7  and  N_8 
REMARK       I    between atoms: N_8  and  C_9 
REMARK    2  A    between atoms: C_9  and  C_10 
REMARK    3  A    between atoms: C_15  and  C_16 
REMARK    4  A    between atoms: C_24  and  C_25 
ROOT
HETATM    1  C   UNL     1       7.444  26.849  55.839  1.00  0.00     0.150 A 
HETATM    2  N   UNL     1       7.069  25.582  55.546  1.00  0.00    -0.165 NA
HETATM    3  N   UNL     1       6.814  25.628  54.229  1.00  0.00    -0.240 N 
HETATM    4  C   UNL     1       6.918  26.875  53.682  1.00  0.00     0.123 A 
HETATM    5  N   UNL     1       6.568  27.110  52.401  1.00  0.00    -0.366 N 
HETATM    6  C   UNL     1       6.011  26.071  51.539  1.00  0.00     0.118 C 
HETATM    7  C   UNL     1       5.408  24.922  52.373  1.00  0.00     0.066 C 
HETATM    8  C   UNL     1       6.360  24.466  53.491  1.00  0.00     0.221 C 
HETATM    9  C   UNL     1       7.384  27.683  54.685  1.00  0.00     0.089 A 
HETATM   10  H   UNL     1       6.746  28.012  51.957  1.00  0.00     0.161 HD
ENDROOT
BRANCH   1  11
HETATM   11  C   UNL     1       7.821  27.263  57.199  1.00  0.00     0.292 C 
HETATM   12  N   UNL     1       8.203  28.595  57.258  1.00  0.00    -0.241 N 
HETATM   13  H   UNL     1       8.185  29.133  56.386  1.00  0.00     0.192 HD
HETATM   14  O   UNL     1       7.803  26.483  58.148  1.00  0.00    -0.264 OA
BRANCH  12  15
HETATM   15  N   UNL     1       8.619  29.160  58.429  1.00  0.00    -0.165 NA
HETATM   16  C   UNL     1       7.890  30.117  58.904  1.00  0.00     0.157 A 
HETATM   17  C   UNL     1       8.158  30.843  60.140  1.00  0.00     0.027 A 
HETATM   18  C   UNL     1       6.608  30.732  58.331  1.00  0.00     0.277 A 
HETATM   19  C   UNL     1       9.180  30.713  61.058  1.00  0.00     0.016 A 
HETATM   20  C   UNL     1       7.137  31.781  60.283  1.00  0.00     0.048 A 
HETATM   21  C   UNL     1       9.154  31.572  62.159  1.00  0.00     0.001 A 
HETATM   22  C   UNL     1       8.122  32.522  62.311  1.00  0.00     0.002 A 
HETATM   23  C   UNL     1       7.096  32.635  61.364  1.00  0.00     0.030 A 
HETATM   24  N   UNL     1       6.234  31.711  59.226  1.00  0.00    -0.321 N 
HETATM   25  H   UNL     1       5.415  32.288  59.105  1.00  0.00     0.169 HD
HETATM   26  O   UNL     1       6.071  30.396  57.297  1.00  0.00    -0.266 OA
ENDBRANCH  12  15
ENDBRANCH   1  11
BRANCH   8  27
HETATM   27  C   UNL     1       7.548  23.694  52.965  1.00  0.00     0.409 C 
HETATM   28  F   UNL     1       8.585  23.676  53.828  1.00  0.00    -0.169 F 
HETATM   29  F   UNL     1       7.195  22.397  52.759  1.00  0.00    -0.169 F 
HETATM   30  F   UNL     1       8.006  24.156  51.781  1.00  0.00    -0.169 F 
ENDBRANCH   8  27
BRANCH   6  31
HETATM   31  C   UNL     1       4.951  26.677  50.631  1.00  0.00    -0.035 A 
HETATM   32  C   UNL     1       4.406  27.937  50.926  1.00  0.00     0.012 A 
HETATM   33  C   UNL     1       3.447  28.508  50.084  1.00  0.00     0.043 A 
HETATM   34  C   UNL     1       3.033  27.823  48.947  1.00  0.00     0.116 A 
HETATM   35  F   UNL     1       2.114  28.374  48.145  1.00  0.00    -0.206 F 
HETATM   36  C   UNL     1       3.560  26.578  48.633  1.00  0.00     0.043 A 
HETATM   37  C   UNL     1       4.518  26.007  49.469  1.00  0.00     0.012 A 
ENDBRANCH   6  31
TORSDOF 4
ENDMDL
MODEL 2
REMARK VINA RESULT:     -11.4      4.865     10.359
REMARK  4 active torsions:
REMARK  status: ('A' for Active; 'I' for Inactive)
REMARK    1  A    between atoms: N_7  and  N_8 
REMARK       I    between atoms: N_8  and  C_9 
REMARK    2  A    between atoms: C_9  and  C_10 
REMARK    3  A    between atoms: C_15  and  C_16 
REMARK    4  A    between atoms: C_24  and  C_25 
ROOT
HETATM    1  C   UNL     1       5.757  29.162  57.034  1.00  0.00     0.150 A 
HETATM    2  N   UNL     1       4.655  29.930  57.192  1.00  0.00    -0.165 NA
HETATM    3  N   UNL     1       5.079  30.924  57.989  1.00  0.00    -0.240 N 
HETATM    4  C   UNL     1       6.367  30.784  58.421  1.00  0.00     0.123 A 
HETATM    5  N   UNL     1       6.898  31.629  59.329  1.00  0.00    -0.366 N 
HETATM    6  C   UNL     1       6.123  32.705  59.943  1.00  0.00     0.118 C 
HETATM    7  C   UNL     1       4.609  32.423  59.847  1.00  0.00     0.066 C 
HETATM    8  C   UNL     1       4.198  31.986  58.431  1.00  0.00     0.221 C 
HETATM    9  C   UNL     1       6.858  29.683  57.773  1.00  0.00     0.089 A 
HETATM   10  H   UNL     1       7.888  31.595  59.572  1.00  0.00     0.161 HD
ENDROOT
BRANCH   1  11
HETATM   11  C   UNL     1       5.751  27.936  56.220  1.00  0.00     0.292 C 
HETATM   12  N   UNL     1       7.031  27.469  55.960  1.00  0.00    -0.241 N 
HETATM   13  H   UNL     1       7.818  28.002  56.344  1.00  0.00     0.192 HD
HETATM   14  O   UNL     1       4.710  27.423  55.819  1.00  0.00    -0.264 OA
BRANCH  12  15
HETATM   15  N   UNL     1       7.236  26.359  55.193  1.00  0.00    -0.165 NA
HETATM   16  C   UNL     1       7.650  25.297  55.804  1.00  0.00     0.157 A 
HETATM   17  C   UNL     1       7.921  24.013  55.169  1.00  0.00     0.027 A 
HETATM   18  C   UNL     1       7.961  25.098  57.292  1.00  0.00     0.277 A 
HETATM   19  C   UNL     1       7.818  23.621  53.850  1.00  0.00     0.016 A 
HETATM   20  C   UNL     1       8.340  23.147  56.177  1.00  0.00     0.048 A 
HETATM   21  C   UNL     1       8.156  22.298  53.554  1.00  0.00     0.001 A 
HETATM   22  C   UNL     1       8.579  21.417  54.571  1.00  0.00     0.002 A 
HETATM   23  C   UNL     1       8.676  21.839  55.903  1.00  0.00     0.030 A 
HETATM   24  N   UNL     1       8.361  23.785  57.415  1.00  0.00    -0.321 N 
HETATM   25  H   UNL     1       8.630  23.368  58.293  1.00  0.00     0.169 HD
HETATM   26  O   UNL     1       7.864  25.951  58.149  1.00  0.00    -0.266 OA
ENDBRANCH  12  15
ENDBRANCH   1  11
BRANCH   8  27
HETATM   27  C   UNL     1       4.226  33.126  57.438  1.00  0.00     0.409 C 
HETATM   28  F   UNL     1       5.351  33.142  56.692  1.00  0.00    -0.169 F 
HETATM   29  F   UNL     1       3.188  33.002  56.570  1.00  0.00    -0.169 F 
HETATM   30  F   UNL     1       4.097  34.341  58.014  1.00  0.00    -0.169 F 
ENDBRANCH   8  27
BRANCH   6  31
HETATM   31  C   UNL     1       6.539  32.865  61.397  1.00  0.00    -0.035 A 
HETATM   32  C   UNL     1       5.823  33.725  62.245  1.00  0.00     0.012 A 
HETATM   33  C   UNL     1       6.188  33.861  63.588  1.00  0.00     0.043 A 
HETATM   34  C   UNL     1       7.265  33.137  64.086  1.00  0.00     0.116 A 
HETATM   35  F   UNL     1       7.611  33.270  65.372  1.00  0.00    -0.206 F 
HETATM   36  C   UNL     1       7.986  32.277  63.268  1.00  0.00     0.043 A 
HETATM   37  C   UNL     1       7.623  32.138  61.929  1.00  0.00     0.012 A 
ENDBRANCH   6  31
TORSDOF 4
ENDMDL
MODEL 3
REMARK VINA RESULT:     -11.1      3.559      6.070
REMARK  4 active torsions:
REMARK  status: ('A' for Active; 'I' for Inactive)
REMARK    1  A    between atoms: N_7  and  N_8 
REMARK       I    between atoms: N_8  and  C_9 
REMARK    2  A    between atoms: C_9  and  C_10 
REMARK    3  A    between atoms: C_15  and  C_16 
REMARK    4  A    between atoms: C_24  and  C_25 
ROOT
HETATM    1  C   UNL     1       6.574  31.393  58.648  1.00  0.00     0.150 A 
HETATM    2  N   UNL     1       7.741  30.751  58.887  1.00  0.00    -0.165 NA
HETATM    3  N   UNL     1       7.974  30.089  57.743  1.00  0.00    -0.240 N 
HETATM    4  C   UNL     1       6.975  30.200  56.818  1.00  0.00     0.123 A 
HETATM    5  N   UNL     1       6.998  29.491  55.671  1.00  0.00    -0.366 N 
HETATM    6  C   UNL     1       8.054  28.528  55.368  1.00  0.00     0.118 C 
HETATM    7  C   UNL     1       8.765  28.061  56.655  1.00  0.00     0.066 C 
HETATM    8  C   UNL     1       9.138  29.244  57.564  1.00  0.00     0.221 C 
HETATM    9  C   UNL     1       6.077  31.088  57.347  1.00  0.00     0.089 A 
HETATM   10  H   UNL     1       6.313  29.652  54.932  1.00  0.00     0.161 HD
ENDROOT
BRANCH   1  11
HETATM   11  C   UNL     1       5.929  32.253  59.652  1.00  0.00     0.292 C 
HETATM   12  N   UNL     1       5.918  31.676  60.912  1.00  0.00    -0.241 N 
HETATM   13  H   UNL     1       6.342  30.748  61.013  1.00  0.00     0.192 HD
HETATM   14  O   UNL     1       5.450  33.347  59.364  1.00  0.00    -0.264 OA
BRANCH  12  15
HETATM   15  N   UNL     1       5.334  32.305  61.973  1.00  0.00    -0.165 NA
HETATM   16  C   UNL     1       6.108  32.618  62.962  1.00  0.00     0.157 A 
HETATM   17  C   UNL     1       5.683  33.297  64.180  1.00  0.00     0.027 A 
HETATM   18  C   UNL     1       7.613  32.372  63.127  1.00  0.00     0.277 A 
HETATM   19  C   UNL     1       4.439  33.750  64.572  1.00  0.00     0.016 A 
HETATM   20  C   UNL     1       6.818  33.443  64.975  1.00  0.00     0.048 A 
HETATM   21  C   UNL     1       4.357  34.372  65.819  1.00  0.00     0.001 A 
HETATM   22  C   UNL     1       5.503  34.524  66.628  1.00  0.00     0.002 A 
HETATM   23  C   UNL     1       6.754  34.056  66.208  1.00  0.00     0.030 A 
HETATM   24  N   UNL     1       7.942  32.902  64.356  1.00  0.00    -0.321 N 
HETATM   25  H   UNL     1       8.877  32.885  64.733  1.00  0.00     0.169 HD
HETATM   26  O   UNL     1       8.325  31.817  62.318  1.00  0.00    -0.266 OA
ENDBRANCH  12  15
ENDBRANCH   1  11
BRANCH   8  27
HETATM   27  C   UNL     1      10.287  30.059  57.017  1.00  0.00     0.409 C 
HETATM   28  F   UNL     1      10.315  31.318  57.504  1.00  0.00    -0.169 F 
HETATM   29  F   UNL     1      11.466  29.482  57.371  1.00  0.00    -0.169 F 
HETATM   30  F   UNL     1      10.293  30.139  55.668  1.00  0.00    -0.169 F 
ENDBRANCH   8  27
BRANCH   6  31
HETATM   31  C   UNL     1       7.461  27.337  54.631  1.00  0.00    -0.035 A 
HETATM   32  C   UNL     1       7.406  26.079  55.252  1.00  0.00     0.012 A 
HETATM   33  C   UNL     1       6.843  24.986  54.587  1.00  0.00     0.043 A 
HETATM   34  C   UNL     1       6.333  25.147  53.304  1.00  0.00     0.116 A 
HETATM   35  F   UNL     1       5.795  24.098  52.671  1.00  0.00    -0.206 F 
HETATM   36  C   UNL     1       6.372  26.383  52.671  1.00  0.00     0.043 A 
HETATM   37  C   UNL     1       6.931  27.476  53.333  1.00  0.00     0.012 A 
ENDBRANCH   6  31
TORSDOF 4
ENDMDL
MODEL 4
REMARK VINA RESULT:     -11.0      3.102      5.465
REMARK  4 active torsions:
REMARK  status: ('A' for Active; 'I' for Inactive)
REMARK    1  A    between atoms: N_7  and  N_8 
REMARK       I    between atoms: N_8  and  C_9 
REMARK    2  A    between atoms: C_9  and  C_10 
REMARK    3  A    between atoms: C_15  and  C_16 
REMARK    4  A    between atoms: C_24  and  C_25 
ROOT
HETATM    1  C   UNL     1       6.753  29.785  57.444  1.00  0.00     0.150 A 
HETATM    2  N   UNL     1       6.359  29.993  56.166  1.00  0.00    -0.165 NA
HETATM    3  N   UNL     1       6.176  28.751  55.689  1.00  0.00    -0.240 N 
HETATM    4  C   UNL     1       6.518  27.760  56.564  1.00  0.00     0.123 A 
HETATM    5  N   UNL     1       6.514  26.464  56.192  1.00  0.00    -0.366 N 
HETATM    6  C   UNL     1       6.199  26.042  54.829  1.00  0.00     0.118 C 
HETATM    7  C   UNL     1       6.404  27.200  53.829  1.00  0.00     0.066 C 
HETATM    8  C   UNL     1       5.758  28.504  54.325  1.00  0.00     0.221 C 
HETATM    9  C   UNL     1       6.840  28.393  57.735  1.00  0.00     0.089 A 
HETATM   10  H   UNL     1       6.662  25.715  56.869  1.00  0.00     0.161 HD
ENDROOT
BRANCH   1  11
HETATM   11  C   UNL     1       7.072  30.892  58.359  1.00  0.00     0.292 C 
HETATM   12  N   UNL     1       5.991  31.253  59.149  1.00  0.00    -0.241 N 
HETATM   13  H   UNL     1       5.116  30.733  59.021  1.00  0.00     0.192 HD
HETATM   14  O   UNL     1       8.179  31.425  58.378  1.00  0.00    -0.264 OA
BRANCH  12  15
HETATM   15  N   UNL     1       6.078  32.282  60.040  1.00  0.00    -0.165 NA
HETATM   16  C   UNL     1       4.963  32.764  60.484  1.00  0.00     0.157 A 
HETATM   17  C   UNL     1       4.841  33.855  61.443  1.00  0.00     0.027 A 
HETATM   18  C   UNL     1       3.526  32.348  60.142  1.00  0.00     0.277 A 
HETATM   19  C   UNL     1       5.807  34.606  62.081  1.00  0.00     0.016 A 
HETATM   20  C   UNL     1       3.477  34.056  61.650  1.00  0.00     0.048 A 
HETATM   21  C   UNL     1       5.361  35.596  62.960  1.00  0.00     0.001 A 
HETATM   22  C   UNL     1       3.983  35.803  63.175  1.00  0.00     0.002 A 
HETATM   23  C   UNL     1       3.021  35.028  62.515  1.00  0.00     0.030 A 
HETATM   24  N   UNL     1       2.715  33.174  60.890  1.00  0.00    -0.321 N 
HETATM   25  H   UNL     1       1.707  33.127  60.868  1.00  0.00     0.169 HD
HETATM   26  O   UNL     1       3.216  31.471  59.366  1.00  0.00    -0.266 OA
ENDBRANCH  12  15
ENDBRANCH   1  11
BRANCH   8  27
HETATM   27  C   UNL     1       4.248  28.471  54.246  1.00  0.00     0.409 C 
HETATM   28  F   UNL     1       3.668  28.233  55.441  1.00  0.00    -0.169 F 
HETATM   29  F   UNL     1       3.786  29.679  53.827  1.00  0.00    -0.169 F 
HETATM   30  F   UNL     1       3.776  27.558  53.369  1.00  0.00    -0.169 F 
ENDBRANCH   8  27
BRANCH   6  31
HETATM   31  C   UNL     1       7.073  24.856  54.449  1.00  0.00    -0.035 A 
HETATM   32  C   UNL     1       7.886  24.241  55.414  1.00  0.00     0.012 A 
HETATM   33  C   UNL     1       8.675  23.137  55.075  1.00  0.00     0.043 A 
HETATM   34  C   UNL     1       8.651  22.646  53.775  1.00  0.00     0.116 A 
HETATM   35  F   UNL     1       9.408  21.590  53.456  1.00  0.00    -0.206 F 
HETATM   36  C   UNL     1       7.852  23.235  52.805  1.00  0.00     0.043 A 
HETATM   37  C   UNL     1       7.062  24.334  53.140  1.00  0.00     0.012 A 
ENDBRANCH   6  31
TORSDOF 4
ENDMDL
MODEL 5
REMARK VINA RESULT:     -11.0      4.629     10.193
REMARK  4 active torsions:
REMARK  status: ('A' for Active; 'I' for Inactive)
REMARK    1  A    between atoms: N_7  and  N_8 
REMARK       I    between atoms: N_8  and  C_9 
REMARK    2  A    between atoms: C_9  and  C_10 
REMARK    3  A    between atoms: C_15  and  C_16 
REMARK    4  A    between atoms: C_24  and  C_25 
ROOT
HETATM    1  C   UNL     1       4.516  27.970  52.126  1.00  0.00     0.150 A 
HETATM    2  N   UNL     1       4.780  28.158  53.440  1.00  0.00    -0.165 NA
HETATM    3  N   UNL     1       5.783  27.300  53.683  1.00  0.00    -0.240 N 
HETATM    4  C   UNL     1       6.114  26.510  52.619  1.00  0.00     0.123 A 
HETATM    5  N   UNL     1       7.012  25.511  52.738  1.00  0.00    -0.366 N 
HETATM    6  C   UNL     1       7.644  25.176  54.013  1.00  0.00     0.118 C 
HETATM    7  C   UNL     1       6.809  25.698  55.200  1.00  0.00     0.066 C 
HETATM    8  C   UNL     1       6.377  27.160  54.997  1.00  0.00     0.221 C 
HETATM    9  C   UNL     1       5.353  26.958  51.573  1.00  0.00     0.089 A 
HETATM   10  H   UNL     1       7.342  24.991  51.925  1.00  0.00     0.161 HD
ENDROOT
BRANCH   1  11
HETATM   11  C   UNL     1       3.463  28.717  51.421  1.00  0.00     0.292 C 
HETATM   12  N   UNL     1       3.147  28.154  50.194  1.00  0.00    -0.241 N 
HETATM   13  H   UNL     1       3.657  27.310  49.914  1.00  0.00     0.192 HD
HETATM   14  O   UNL     1       2.956  29.733  51.891  1.00  0.00    -0.264 OA
BRANCH  12  15
HETATM   15  N   UNL     1       2.215  28.721  49.374  1.00  0.00    -0.165 NA
HETATM   16  C   UNL     1       1.822  28.015  48.364  1.00  0.00     0.157 A 
HETATM   17  C   UNL     1       0.832  28.435  47.379  1.00  0.00     0.027 A 
HETATM   18  C   UNL     1       2.264  26.610  47.936  1.00  0.00     0.277 A 
HETATM   19  C   UNL     1       0.111  29.606  47.270  1.00  0.00     0.016 A 
HETATM   20  C   UNL     1       0.700  27.386  46.471  1.00  0.00     0.048 A 
HETATM   21  C   UNL     1      -0.775  29.705  46.195  1.00  0.00     0.001 A 
HETATM   22  C   UNL     1      -0.914  28.646  45.273  1.00  0.00     0.002 A 
HETATM   23  C   UNL     1      -0.170  27.467  45.405  1.00  0.00     0.030 A 
HETATM   24  N   UNL     1       1.537  26.323  46.801  1.00  0.00    -0.321 N 
HETATM   25  H   UNL     1       1.622  25.454  46.295  1.00  0.00     0.169 HD
HETATM   26  O   UNL     1       3.090  25.931  48.507  1.00  0.00    -0.266 OA
ENDBRANCH  12  15
ENDBRANCH   1  11
BRANCH   8  27
HETATM   27  C   UNL     1       7.524  28.132  55.151  1.00  0.00     0.409 C 
HETATM   28  F   UNL     1       7.121  29.359  55.544  1.00  0.00    -0.169 F 
HETATM   29  F   UNL     1       8.380  27.682  56.106  1.00  0.00    -0.169 F 
HETATM   30  F   UNL     1       8.255  28.281  54.024  1.00  0.00    -0.169 F 
ENDBRANCH   8  27
BRANCH   6  31
HETATM   31  C   UNL     1       7.820  23.668  54.113  1.00  0.00    -0.035 A 
HETATM   32  C   UNL     1       7.985  22.898  52.951  1.00  0.00     0.012 A 
HETATM   33  C   UNL     1       8.167  21.515  53.038  1.00  0.00     0.043 A 
HETATM   34  C   UNL     1       8.187  20.900  54.284  1.00  0.00     0.116 A 
HETATM   35  F   UNL     1       8.362  19.575  54.363  1.00  0.00    -0.206 F 
HETATM   36  C   UNL     1       8.030  21.641  55.448  1.00  0.00     0.043 A 
HETATM   37  C   UNL     1       7.850  23.021  55.364  1.00  0.00     0.012 A 
ENDBRANCH   6  31
TORSDOF 4
ENDMDL
MODEL 6
REMARK VINA RESULT:     -10.8      1.566      2.201
REMARK  4 active torsions:
REMARK  status: ('A' for Active; 'I' for Inactive)
REMARK    1  A    between atoms: N_7  and  N_8 
REMARK       I    between atoms: N_8  and  C_9 
REMARK    2  A    between atoms: C_9  and  C_10 
REMARK    3  A    between atoms: C_15  and  C_16 
REMARK    4  A    between atoms: C_24  and  C_25 
ROOT
HETATM    1  C   UNL     1       5.661  28.081  55.163  1.00  0.00     0.150 A 
HETATM    2  N   UNL     1       5.888  26.767  54.935  1.00  0.00    -0.165 NA
HETATM    3  N   UNL     1       5.861  26.673  53.595  1.00  0.00    -0.240 N 
HETATM    4  C   UNL     1       5.539  27.838  52.959  1.00  0.00     0.123 A 
HETATM    5  N   UNL     1       5.345  27.879  51.625  1.00  0.00    -0.366 N 
HETATM    6  C   UNL     1       5.411  26.683  50.789  1.00  0.00     0.118 C 
HETATM    7  C   UNL     1       5.196  25.406  51.628  1.00  0.00     0.066 C 
HETATM    8  C   UNL     1       6.049  25.412  52.907  1.00  0.00     0.221 C 
HETATM    9  C   UNL     1       5.461  28.789  53.942  1.00  0.00     0.089 A 
HETATM   10  H   UNL     1       5.212  28.762  51.133  1.00  0.00     0.161 HD
ENDROOT
BRANCH   1  11
HETATM   11  C   UNL     1       5.601  28.645  56.521  1.00  0.00     0.292 C 
HETATM   12  N   UNL     1       6.149  29.917  56.588  1.00  0.00    -0.241 N 
HETATM   13  H   UNL     1       6.523  30.319  55.723  1.00  0.00     0.192 HD
HETATM   14  O   UNL     1       5.130  28.020  57.467  1.00  0.00    -0.264 OA
BRANCH  12  15
HETATM   15  N   UNL     1       6.217  30.596  57.770  1.00  0.00    -0.165 NA
HETATM   16  C   UNL     1       7.378  30.667  58.335  1.00  0.00     0.157 A 
HETATM   17  C   UNL     1       7.662  31.349  59.592  1.00  0.00     0.027 A 
HETATM   18  C   UNL     1       8.716  30.079  57.870  1.00  0.00     0.277 A 
HETATM   19  C   UNL     1       6.831  32.045  60.446  1.00  0.00     0.016 A 
HETATM   20  C   UNL     1       9.024  31.187  59.838  1.00  0.00     0.048 A 
HETATM   21  C   UNL     1       7.416  32.594  61.590  1.00  0.00     0.001 A 
HETATM   22  C   UNL     1       8.795  32.435  61.843  1.00  0.00     0.002 A 
HETATM   23  C   UNL     1       9.617  31.723  60.961  1.00  0.00     0.030 A 
HETATM   24  N   UNL     1       9.635  30.446  58.830  1.00  0.00    -0.321 N 
HETATM   25  H   UNL     1      10.611  30.196  58.785  1.00  0.00     0.169 HD
HETATM   26  O   UNL     1       8.883  29.428  56.861  1.00  0.00    -0.266 OA
ENDBRANCH  12  15
ENDBRANCH   1  11
BRANCH   8  27
HETATM   27  C   UNL     1       7.519  25.192  52.628  1.00  0.00     0.409 C 
HETATM   28  F   UNL     1       8.257  26.308  52.802  1.00  0.00    -0.169 F 
HETATM   29  F   UNL     1       8.013  24.264  53.490  1.00  0.00    -0.169 F 
HETATM   30  F   UNL     1       7.764  24.724  51.385  1.00  0.00    -0.169 F 
ENDBRANCH   8  27
BRANCH   6  31
HETATM   31  C   UNL     1       4.366  26.773  49.687  1.00  0.00    -0.035 A 
HETATM   32  C   UNL     1       4.054  25.642  48.915  1.00  0.00     0.012 A 
HETATM   33  C   UNL     1       3.080  25.714  47.916  1.00  0.00     0.043 A 
HETATM   34  C   UNL     1       2.414  26.913  47.688  1.00  0.00     0.116 A 
HETATM   35  F   UNL     1       1.482  26.977  46.729  1.00  0.00    -0.206 F 
HETATM   36  C   UNL     1       2.701  28.043  48.441  1.00  0.00     0.043 A 
HETATM   37  C   UNL     1       3.672  27.974  49.440  1.00  0.00     0.012 A 
ENDBRANCH   6  31
TORSDOF 4
ENDMDL
MODEL 7
REMARK VINA RESULT:     -10.8      2.238      4.972
REMARK  4 active torsions:
REMARK  status: ('A' for Active; 'I' for Inactive)
REMARK    1  A    between atoms: N_7  and  N_8 
REMARK       I    between atoms: N_8  and  C_9 
REMARK    2  A    between atoms: C_9  and  C_10 
REMARK    3  A    between atoms: C_15  and  C_16 
REMARK    4  A    between atoms: C_24  and  C_25 
ROOT
HETATM    1  C   UNL     1       5.762  28.497  55.141  1.00  0.00     0.150 A 
HETATM    2  N   UNL     1       6.285  28.468  53.893  1.00  0.00    -0.165 NA
HETATM    3  N   UNL     1       6.287  27.161  53.585  1.00  0.00    -0.240 N 
HETATM    4  C   UNL     1       5.878  26.347  54.603  1.00  0.00     0.123 A 
HETATM    5  N   UNL     1       5.946  25.004  54.497  1.00  0.00    -0.366 N 
HETATM    6  C   UNL     1       6.504  24.340  53.321  1.00  0.00     0.118 C 
HETATM    7  C   UNL     1       7.433  25.289  52.536  1.00  0.00     0.066 C 
HETATM    8  C   UNL     1       6.788  26.668  52.319  1.00  0.00     0.221 C 
HETATM    9  C   UNL     1       5.472  27.183  55.608  1.00  0.00     0.089 A 
HETATM   10  H   UNL     1       5.542  24.392  55.206  1.00  0.00     0.161 HD
ENDROOT
BRANCH   1  11
HETATM   11  C   UNL     1       5.574  29.752  55.885  1.00  0.00     0.292 C 
HETATM   12  N   UNL     1       5.726  29.582  57.253  1.00  0.00    -0.241 N 
HETATM   13  H   UNL     1       5.945  28.640  57.592  1.00  0.00     0.192 HD
HETATM   14  O   UNL     1       5.295  30.809  55.324  1.00  0.00    -0.264 OA
BRANCH  12  15
HETATM   15  N   UNL     1       5.558  30.624  58.118  1.00  0.00    -0.165 NA
HETATM   16  C   UNL     1       6.510  30.835  58.968  1.00  0.00     0.157 A 
HETATM   17  C   UNL     1       6.526  31.897  59.967  1.00  0.00     0.027 A 
HETATM   18  C   UNL     1       7.823  30.065  59.158  1.00  0.00     0.277 A 
HETATM   19  C   UNL     1       5.601  32.881  60.250  1.00  0.00     0.016 A 
HETATM   20  C   UNL     1       7.725  31.771  60.667  1.00  0.00     0.048 A 
HETATM   21  C   UNL     1       5.915  33.764  61.285  1.00  0.00     0.001 A 
HETATM   22  C   UNL     1       7.127  33.643  61.996  1.00  0.00     0.002 A 
HETATM   23  C   UNL     1       8.050  32.635  61.690  1.00  0.00     0.030 A 
HETATM   24  N   UNL     1       8.478  30.701  60.191  1.00  0.00    -0.321 N 
HETATM   25  H   UNL     1       9.379  30.409  60.537  1.00  0.00     0.169 HD
HETATM   26  O   UNL     1       8.169  29.100  58.513  1.00  0.00    -0.266 OA
ENDBRANCH  12  15
ENDBRANCH   1  11
BRANCH   8  27
HETATM   27  C   UNL     1       5.671  26.635  51.300  1.00  0.00     0.409 C 
HETATM   28  F   UNL     1       5.693  25.522  50.537  1.00  0.00    -0.169 F 
HETATM   29  F   UNL     1       4.471  26.643  51.938  1.00  0.00    -0.169 F 
HETATM   30  F   UNL     1       5.669  27.702  50.472  1.00  0.00    -0.169 F 
ENDBRANCH   8  27
BRANCH   6  31
HETATM   31  C   UNL     1       7.266  23.095  53.754  1.00  0.00    -0.035 A 
HETATM   32  C   UNL     1       7.392  22.783  55.117  1.00  0.00     0.012 A 
HETATM   33  C   UNL     1       8.073  21.631  55.519  1.00  0.00     0.043 A 
HETATM   34  C   UNL     1       8.626  20.788  54.563  1.00  0.00     0.116 A 
HETATM   35  F   UNL     1       9.277  19.686  54.952  1.00  0.00    -0.206 F 
HETATM   36  C   UNL     1       8.511  21.073  53.208  1.00  0.00     0.043 A 
HETATM   37  C   UNL     1       7.831  22.221  52.804  1.00  0.00     0.012 A 
ENDBRANCH   6  31
TORSDOF 4
ENDMDL
MODEL 8
REMARK VINA RESULT:     -10.7      5.089     10.301
REMARK  4 active torsions:
REMARK  status: ('A' for Active; 'I' for Inactive)
REMARK    1  A    between atoms: N_7  and  N_8 
REMARK       I    between atoms: N_8  and  C_9 
REMARK    2  A    between atoms: C_9  and  C_10 
REMARK    3  A    between atoms: C_15  and  C_16 
REMARK    4  A    between atoms: C_24  and  C_25 
ROOT
HETATM    1  C   UNL     1       7.926  29.996  57.762  1.00  0.00     0.150 A 
HETATM    2  N   UNL     1       8.900  30.684  58.401  1.00  0.00    -0.165 NA
HETATM    3  N   UNL     1       8.243  31.307  59.393  1.00  0.00    -0.240 N 
HETATM    4  C   UNL     1       6.889  31.125  59.368  1.00  0.00     0.123 A 
HETATM    5  N   UNL     1       6.077  31.787  60.217  1.00  0.00    -0.366 N 
HETATM    6  C   UNL     1       6.579  32.770  61.173  1.00  0.00     0.118 C 
HETATM    7  C   UNL     1       7.957  33.312  60.739  1.00  0.00     0.066 C 
HETATM    8  C   UNL     1       8.915  32.180  60.333  1.00  0.00     0.221 C 
HETATM    9  C   UNL     1       6.653  30.231  58.358  1.00  0.00     0.089 A 
HETATM   10  H   UNL     1       5.081  31.574  60.275  1.00  0.00     0.161 HD
ENDROOT
BRANCH   1  11
HETATM   11  C   UNL     1       8.200  29.157  56.585  1.00  0.00     0.292 C 
HETATM   12  N   UNL     1       7.314  28.094  56.476  1.00  0.00    -0.241 N 
HETATM   13  H   UNL     1       6.590  28.005  57.196  1.00  0.00     0.192 HD
HETATM   14  O   UNL     1       9.129  29.391  55.817  1.00  0.00    -0.264 OA
BRANCH  12  15
HETATM   15  N   UNL     1       7.424  27.183  55.467  1.00  0.00    -0.165 NA
HETATM   16  C   UNL     1       7.575  25.946  55.813  1.00  0.00     0.157 A 
HETATM   17  C   UNL     1       7.703  24.823  54.891  1.00  0.00     0.027 A 
HETATM   18  C   UNL     1       7.663  25.340  57.220  1.00  0.00     0.277 A 
HETATM   19  C   UNL     1       7.699  24.786  53.512  1.00  0.00     0.016 A 
HETATM   20  C   UNL     1       7.844  23.678  55.672  1.00  0.00     0.048 A 
HETATM   21  C   UNL     1       7.843  23.533  52.912  1.00  0.00     0.001 A 
HETATM   22  C   UNL     1       7.984  22.369  53.697  1.00  0.00     0.002 A 
HETATM   23  C   UNL     1       7.986  22.433  55.096  1.00  0.00     0.030 A 
HETATM   24  N   UNL     1       7.819  23.984  57.029  1.00  0.00    -0.321 N 
HETATM   25  H   UNL     1       7.904  23.325  57.789  1.00  0.00     0.169 HD
HETATM   26  O   UNL     1       7.606  25.965  58.257  1.00  0.00    -0.266 OA
ENDBRANCH  12  15
ENDBRANCH   1  11
BRANCH   8  27
HETATM   27  C   UNL     1       9.407  31.381  61.518  1.00  0.00     0.409 C 
HETATM   28  F   UNL     1       9.267  30.050  61.346  1.00  0.00    -0.169 F 
HETATM   29  F   UNL     1      10.734  31.609  61.703  1.00  0.00    -0.169 F 
HETATM   30  F   UNL     1       8.799  31.713  62.678  1.00  0.00    -0.169 F 
ENDBRANCH   8  27
BRANCH   6  31
HETATM   31  C   UNL     1       5.580  33.910  61.303  1.00  0.00    -0.035 A 
HETATM   32  C   UNL     1       4.446  33.952  60.476  1.00  0.00     0.012 A 
HETATM   33  C   UNL     1       3.514  34.986  60.605  1.00  0.00     0.043 A 
HETATM   34  C   UNL     1       3.711  35.977  61.559  1.00  0.00     0.116 A 
HETATM   35  F   UNL     1       2.816  36.965  61.679  1.00  0.00    -0.206 F 
HETATM   36  C   UNL     1       4.823  35.955  62.391  1.00  0.00     0.043 A 
HETATM   37  C   UNL     1       5.753  34.923  62.267  1.00  0.00     0.012 A 
ENDBRANCH   6  31
TORSDOF 4
ENDMDL
MODEL 9
REMARK VINA RESULT:     -10.2      3.602      6.015
REMARK  4 active torsions:
REMARK  status: ('A' for Active; 'I' for Inactive)
REMARK    1  A    between atoms: N_7  and  N_8 
REMARK       I    between atoms: N_8  and  C_9 
REMARK    2  A    between atoms: C_9  and  C_10 
REMARK    3  A    between atoms: C_15  and  C_16 
REMARK    4  A    between atoms: C_24  and  C_25 
ROOT
HETATM    1  C   UNL     1       6.087  28.280  55.659  1.00  0.00     0.150 A 
HETATM    2  N   UNL     1       6.571  28.291  54.395  1.00  0.00    -0.165 NA
HETATM    3  N   UNL     1       6.504  27.003  54.023  1.00  0.00    -0.240 N 
HETATM    4  C   UNL     1       6.088  26.156  55.012  1.00  0.00     0.123 A 
HETATM    5  N   UNL     1       6.091  24.819  54.837  1.00  0.00    -0.366 N 
HETATM    6  C   UNL     1       6.583  24.191  53.613  1.00  0.00     0.118 C 
HETATM    7  C   UNL     1       7.531  25.138  52.846  1.00  0.00     0.066 C 
HETATM    8  C   UNL     1       6.944  26.553  52.719  1.00  0.00     0.221 C 
HETATM    9  C   UNL     1       5.751  26.957  56.070  1.00  0.00     0.089 A 
HETATM   10  H   UNL     1       5.681  24.191  55.528  1.00  0.00     0.161 HD
ENDROOT
BRANCH   1  11
HETATM   11  C   UNL     1       5.979  29.503  56.470  1.00  0.00     0.292 C 
HETATM   12  N   UNL     1       5.485  30.576  55.744  1.00  0.00    -0.241 N 
HETATM   13  H   UNL     1       5.254  30.416  54.758  1.00  0.00     0.192 HD
HETATM   14  O   UNL     1       6.316  29.535  57.651  1.00  0.00    -0.264 OA
BRANCH  12  15
HETATM   15  N   UNL     1       5.341  31.808  56.312  1.00  0.00    -0.165 NA
HETATM   16  C   UNL     1       4.221  32.420  56.101  1.00  0.00     0.157 A 
HETATM   17  C   UNL     1       3.870  33.735  56.623  1.00  0.00     0.027 A 
HETATM   18  C   UNL     1       3.010  31.961  55.280  1.00  0.00     0.277 A 
HETATM   19  C   UNL     1       4.584  34.609  57.417  1.00  0.00     0.016 A 
HETATM   20  C   UNL     1       2.585  34.018  56.164  1.00  0.00     0.048 A 
HETATM   21  C   UNL     1       3.959  35.813  57.753  1.00  0.00     0.001 A 
HETATM   22  C   UNL     1       2.658  36.104  57.294  1.00  0.00     0.002 A 
HETATM   23  C   UNL     1       1.954  35.201  56.487  1.00  0.00     0.030 A 
HETATM   24  N   UNL     1       2.087  32.980  55.382  1.00  0.00    -0.321 N 
HETATM   25  H   UNL     1       1.181  32.953  54.937  1.00  0.00     0.169 HD
HETATM   26  O   UNL     1       2.927  30.912  54.679  1.00  0.00    -0.266 OA
ENDBRANCH  12  15
ENDBRANCH   1  11
BRANCH   8  27
HETATM   27  C   UNL     1       5.797  26.621  51.736  1.00  0.00     0.409 C 
HETATM   28  F   UNL     1       5.794  27.762  51.014  1.00  0.00    -0.169 F 
HETATM   29  F   UNL     1       5.898  25.601  50.844  1.00  0.00    -0.169 F 
HETATM   30  F   UNL     1       4.584  26.499  52.318  1.00  0.00    -0.169 F 
ENDBRANCH   8  27
BRANCH   6  31
HETATM   31  C   UNL     1       7.299  22.894  53.959  1.00  0.00    -0.035 A 
HETATM   32  C   UNL     1       7.794  22.067  52.937  1.00  0.00     0.012 A 
HETATM   33  C   UNL     1       8.471  20.885  53.249  1.00  0.00     0.043 A 
HETATM   34  C   UNL     1       8.657  20.528  54.580  1.00  0.00     0.116 A 
HETATM   35  F   UNL     1       9.305  19.394  54.874  1.00  0.00    -0.206 F 
HETATM   36  C   UNL     1       8.180  21.331  55.608  1.00  0.00     0.043 A 
HETATM   37  C   UNL     1       7.506  22.512  55.299  1.00  0.00     0.012 A 
ENDBRANCH   6  31
TORSDOF 4
ENDMDL
MODEL 10
REMARK VINA RESULT:     -10.1      4.703      9.822
REMARK  4 active torsions:
REMARK  status: ('A' for Active; 'I' for Inactive)
REMARK    1  A    between atoms: N_7  and  N_8 
REMARK       I    between atoms: N_8  and  C_9 
REMARK    2  A    between atoms: C_9  and  C_10 
REMARK    3  A    between atoms: C_15  and  C_16 
REMARK    4  A    between atoms: C_24  and  C_25 
ROOT
HETATM    1  C   UNL     1       4.590  27.551  52.010  1.00  0.00     0.150 A 
HETATM    2  N   UNL     1       4.782  27.791  53.327  1.00  0.00    -0.165 NA
HETATM    3  N   UNL     1       5.814  26.993  53.644  1.00  0.00    -0.240 N 
HETATM    4  C   UNL     1       6.234  26.190  52.621  1.00  0.00     0.123 A 
HETATM    5  N   UNL     1       7.173  25.242  52.814  1.00  0.00    -0.366 N 
HETATM    6  C   UNL     1       7.760  24.978  54.126  1.00  0.00     0.118 C 
HETATM    7  C   UNL     1       6.844  25.492  55.257  1.00  0.00     0.066 C 
HETATM    8  C   UNL     1       6.350  26.923  54.987  1.00  0.00     0.221 C 
HETATM    9  C   UNL     1       5.501  26.568  51.528  1.00  0.00     0.089 A 
HETATM   10  H   UNL     1       7.567  24.716  52.034  1.00  0.00     0.161 HD
ENDROOT
BRANCH   1  11
HETATM   11  C   UNL     1       3.536  28.223  51.233  1.00  0.00     0.292 C 
HETATM   12  N   UNL     1       3.497  27.794  49.915  1.00  0.00    -0.241 N 
HETATM   13  H   UNL     1       4.177  27.083  49.627  1.00  0.00     0.192 HD
HETATM   14  O   UNL     1       2.804  29.076  51.727  1.00  0.00    -0.264 OA
BRANCH  12  15
HETATM   15  N   UNL     1       2.608  28.323  49.025  1.00  0.00    -0.165 NA
HETATM   16  C   UNL     1       3.073  29.182  48.177  1.00  0.00     0.157 A 
HETATM   17  C   UNL     1       2.292  29.853  47.145  1.00  0.00     0.027 A 
HETATM   18  C   UNL     1       4.504  29.714  48.028  1.00  0.00     0.277 A 
HETATM   19  C   UNL     1       0.953  29.759  46.825  1.00  0.00     0.016 A 
HETATM   20  C   UNL     1       3.170  30.687  46.456  1.00  0.00     0.048 A 
HETATM   21  C   UNL     1       0.499  30.545  45.764  1.00  0.00     0.001 A 
HETATM   22  C   UNL     1       1.384  31.389  45.061  1.00  0.00     0.002 A 
HETATM   23  C   UNL     1       2.739  31.468  45.405  1.00  0.00     0.030 A 
HETATM   24  N   UNL     1       4.460  30.601  46.974  1.00  0.00    -0.321 N 
HETATM   25  H   UNL     1       5.267  31.110  46.645  1.00  0.00     0.169 HD
HETATM   26  O   UNL     1       5.447  29.395  48.719  1.00  0.00    -0.266 OA
ENDBRANCH  12  15
ENDBRANCH   1  11
BRANCH   8  27
HETATM   27  C   UNL     1       7.440  27.957  55.162  1.00  0.00     0.409 C 
HETATM   28  F   UNL     1       8.105  28.214  54.017  1.00  0.00    -0.169 F 
HETATM   29  F   UNL     1       6.892  29.134  55.564  1.00  0.00    -0.169 F 
HETATM   30  F   UNL     1       8.351  27.621  56.101  1.00  0.00    -0.169 F 
ENDBRANCH   8  27
BRANCH   6  31
HETATM   31  C   UNL     1       8.005  23.485  54.283  1.00  0.00    -0.035 A 
HETATM   32  C   UNL     1       7.998  22.647  53.156  1.00  0.00     0.012 A 
HETATM   33  C   UNL     1       8.242  21.277  53.291  1.00  0.00     0.043 A 
HETATM   34  C   UNL     1       8.497  20.743  54.549  1.00  0.00     0.116 A 
HETATM   35  F   UNL     1       8.731  19.431  54.674  1.00  0.00    -0.206 F 
HETATM   36  C   UNL     1       8.514  21.552  55.678  1.00  0.00     0.043 A 
HETATM   37  C   UNL     1       8.272  22.920  55.546  1.00  0.00     0.012 A 
ENDBRANCH   6  31
TORSDOF 4
ENDMDL
