MODEL 1
REMARK VINA RESULT:      -8.5      0.000      0.000
REMARK  6 active torsions:
REMARK  status: ('A' for Active; 'I' for Inactive)
REMARK    1  A    between atoms: C_2  and  C_3 
REMARK    2  A    between atoms: C_7  and  C_8 
REMARK       I    between atoms: C_8  and  N_9 
REMARK    3  A    between atoms: N_9  and  C_10 
REMARK    4  A    between atoms: C_10  and  C_11 
REMARK    5  A    between atoms: C_10  and  C_19 
REMARK    6  A    between atoms: C_14  and  O_15 
ROOT
HETATM    1  C   UNL     1       6.471  25.106  54.789  1.00  0.00     0.151 C 
ENDROOT
BRANCH   1   2
HETATM    2  N   UNL     1       7.147  26.215  55.437  1.00  0.00    -0.343 N 
HETATM    3  C   UNL     1       6.557  26.955  56.427  1.00  0.00     0.270 C 
HETATM    4  O   UNL     1       5.406  26.767  56.811  1.00  0.00    -0.266 OA
HETATM    5  H   UNL     1       7.995  26.553  55.011  1.00  0.00     0.163 HD
BRANCH   3   6
HETATM    6  C   UNL     1       7.401  27.963  57.010  1.00  0.00     0.119 A 
HETATM    7  N   UNL     1       7.240  28.379  58.304  1.00  0.00    -0.273 N 
HETATM    8  N   UNL     1       8.154  29.275  58.711  1.00  0.00    -0.179 NA
HETATM    9  H   UNL     1       6.530  28.065  58.959  1.00  0.00     0.189 HD
HETATM   10  C   UNL     1       8.942  29.439  57.644  1.00  0.00     0.056 A 
HETATM   11  C   UNL     1       8.499  28.663  56.547  1.00  0.00     0.065 A 
BRANCH  10  12
HETATM   12  C   UNL     1      10.137  30.329  57.712  1.00  0.00     0.056 C 
HETATM   13  C   UNL     1      11.371  29.676  57.106  1.00  0.00     0.011 C 
ENDBRANCH  10  12
ENDBRANCH   3   6
ENDBRANCH   1   2
BRANCH   1  14
HETATM   14  C   UNL     1       6.003  25.552  53.406  1.00  0.00    -0.031 A 
HETATM   15  C   UNL     1       6.464  26.739  52.819  1.00  0.00     0.012 A 
HETATM   16  C   UNL     1       6.043  27.106  51.538  1.00  0.00     0.037 A 
HETATM   17  C   UNL     1       5.155  26.303  50.820  1.00  0.00     0.068 A 
HETATM   18  C   UNL     1       4.666  25.136  51.408  1.00  0.00     0.037 A 
HETATM   19  C   UNL     1       5.083  24.767  52.692  1.00  0.00     0.012 A 
BRANCH  17  20
HETATM   20  O   UNL     1       4.840  26.766  49.572  1.00  0.00    -0.356 OA
HETATM   21  C   UNL     1       3.897  26.006  48.828  1.00  0.00     0.210 C 
ENDBRANCH  17  20
ENDBRANCH   1  14
BRANCH   1  22
HETATM   22  C   UNL     1       7.333  23.837  54.779  1.00  0.00    -0.031 A 
HETATM   23  C   UNL     1       7.938  23.357  53.603  1.00  0.00     0.009 A 
HETATM   24  C   UNL     1       8.746  22.215  53.621  1.00  0.00     0.001 A 
HETATM   25  C   UNL     1       8.981  21.546  54.817  1.00  0.00     0.000 A 
HETATM   26  C   UNL     1       8.421  22.022  55.999  1.00  0.00     0.001 A 
HETATM   27  C   UNL     1       7.613  23.162  55.982  1.00  0.00     0.009 A 
ENDBRANCH   1  22
TORSDOF 6
ENDMDL
MODEL 2
REMARK VINA RESULT:      -8.2      2.838      6.940
REMARK  6 active torsions:
REMARK  status: ('A' for Active; 'I' for Inactive)
REMARK    1  A    between atoms: C_2  and  C_3 
REMARK    2  A    between atoms: C_7  and  C_8 
REMARK       I    between atoms: C_8  and  N_9 
REMARK    3  A    between atoms: N_9  and  C_10 
REMARK    4  A    between atoms: C_10  and  C_11 
REMARK    5  A    between atoms: C_10  and  C_19 
REMARK    6  A    between atoms: C_14  and  O_15 
ROOT
HETATM    1  C   UNL     1       6.546  25.895  54.568  1.00  0.00     0.151 C 
ENDROOT
BRANCH   1   2
HETATM    2  N   UNL     1       6.281  26.297  53.199  1.00  0.00    -0.343 N 
HETATM    3  C   UNL     1       5.184  25.860  52.505  1.00  0.00     0.270 C 
HETATM    4  O   UNL     1       4.369  25.068  52.969  1.00  0.00    -0.266 OA
HETATM    5  H   UNL     1       7.025  26.759  52.700  1.00  0.00     0.163 HD
BRANCH   3   6
HETATM    6  C   UNL     1       5.039  26.422  51.190  1.00  0.00     0.119 A 
HETATM    7  N   UNL     1       4.342  25.779  50.203  1.00  0.00    -0.273 N 
HETATM    8  N   UNL     1       4.245  26.473  49.057  1.00  0.00    -0.179 NA
HETATM    9  H   UNL     1       3.895  24.870  50.269  1.00  0.00     0.189 HD
HETATM   10  C   UNL     1       4.896  27.612  49.314  1.00  0.00     0.056 A 
HETATM   11  C   UNL     1       5.433  27.620  50.623  1.00  0.00     0.065 A 
BRANCH  10  12
HETATM   12  C   UNL     1       4.963  28.696  48.292  1.00  0.00     0.056 C 
HETATM   13  C   UNL     1       3.725  28.724  47.406  1.00  0.00     0.011 C 
ENDBRANCH  10  12
ENDBRANCH   3   6
ENDBRANCH   1   2
BRANCH   1  14
HETATM   14  C   UNL     1       7.179  24.505  54.561  1.00  0.00    -0.031 A 
HETATM   15  C   UNL     1       7.059  23.635  55.654  1.00  0.00     0.012 A 
HETATM   16  C   UNL     1       7.620  22.356  55.606  1.00  0.00     0.037 A 
HETATM   17  C   UNL     1       8.314  21.922  54.474  1.00  0.00     0.068 A 
HETATM   18  C   UNL     1       8.465  22.792  53.395  1.00  0.00     0.037 A 
HETATM   19  C   UNL     1       7.906  24.074  53.440  1.00  0.00     0.012 A 
BRANCH  17  20
HETATM   20  O   UNL     1       8.795  20.644  54.549  1.00  0.00    -0.356 OA
HETATM   21  C   UNL     1       8.625  19.970  55.790  1.00  0.00     0.210 C 
ENDBRANCH  17  20
ENDBRANCH   1  14
BRANCH   1  22
HETATM   22  C   UNL     1       7.361  26.950  55.328  1.00  0.00    -0.031 A 
HETATM   23  C   UNL     1       7.914  28.070  54.682  1.00  0.00     0.009 A 
HETATM   24  C   UNL     1       8.628  29.037  55.398  1.00  0.00     0.001 A 
HETATM   25  C   UNL     1       8.783  28.912  56.775  1.00  0.00     0.000 A 
HETATM   26  C   UNL     1       8.215  27.830  57.441  1.00  0.00     0.001 A 
HETATM   27  C   UNL     1       7.503  26.863  56.726  1.00  0.00     0.009 A 
ENDBRANCH   1  22
TORSDOF 6
ENDMDL
MODEL 3
REMARK VINA RESULT:      -8.2      2.953      5.704
REMARK  6 active torsions:
REMARK  status: ('A' for Active; 'I' for Inactive)
REMARK    1  A    between atoms: C_2  and  C_3 
REMARK    2  A    between atoms: C_7  and  C_8 
REMARK       I    between atoms: C_8  and  N_9 
REMARK    3  A    between atoms: N_9  and  C_10 
REMARK    4  A    between atoms: C_10  and  C_11 
REMARK    5  A    between atoms: C_10  and  C_19 
REMARK    6  A    between atoms: C_14  and  O_15 
ROOT
HETATM    1  C   UNL     1       7.808  27.629  55.442  1.00  0.00     0.151 C 
ENDROOT
BRANCH   1   2
HETATM    2  N   UNL     1       8.236  28.503  56.519  1.00  0.00    -0.343 N 
HETATM    3  C   UNL     1       9.221  29.441  56.354  1.00  0.00     0.270 C 
HETATM    4  O   UNL     1       9.841  29.586  55.304  1.00  0.00    -0.266 OA
HETATM    5  H   UNL     1       7.924  28.278  57.450  1.00  0.00     0.163 HD
BRANCH   3   6
HETATM    6  C   UNL     1       9.460  30.272  57.502  1.00  0.00     0.119 A 
HETATM    7  N   UNL     1      10.497  31.165  57.544  1.00  0.00    -0.273 N 
HETATM    8  N   UNL     1      10.537  31.909  58.661  1.00  0.00    -0.179 NA
HETATM    9  H   UNL     1      11.196  31.318  56.824  1.00  0.00     0.189 HD
HETATM   10  C   UNL     1       9.482  31.489  59.366  1.00  0.00     0.056 A 
HETATM   11  C   UNL     1       8.791  30.450  58.699  1.00  0.00     0.065 A 
BRANCH  10  12
HETATM   12  C   UNL     1       9.138  32.125  60.670  1.00  0.00     0.056 C 
HETATM   13  C   UNL     1       9.140  31.121  61.815  1.00  0.00     0.011 C 
ENDBRANCH  10  12
ENDBRANCH   3   6
ENDBRANCH   1   2
BRANCH   1  14
HETATM   14  C   UNL     1       7.985  26.178  55.883  1.00  0.00    -0.031 A 
HETATM   15  C   UNL     1       8.439  25.849  57.169  1.00  0.00     0.012 A 
HETATM   16  C   UNL     1       8.559  24.511  57.556  1.00  0.00     0.037 A 
HETATM   17  C   UNL     1       8.236  23.479  56.673  1.00  0.00     0.068 A 
HETATM   18  C   UNL     1       7.813  23.797  55.382  1.00  0.00     0.037 A 
HETATM   19  C   UNL     1       7.694  25.135  54.990  1.00  0.00     0.012 A 
BRANCH  17  20
HETATM   20  O   UNL     1       8.379  22.219  57.184  1.00  0.00    -0.356 OA
HETATM   21  C   UNL     1       8.074  21.138  56.312  1.00  0.00     0.210 C 
ENDBRANCH  17  20
ENDBRANCH   1  14
BRANCH   1  22
HETATM   22  C   UNL     1       6.392  27.968  54.958  1.00  0.00    -0.031 A 
HETATM   23  C   UNL     1       5.331  28.187  55.855  1.00  0.00     0.009 A 
HETATM   24  C   UNL     1       4.054  28.526  55.395  1.00  0.00     0.001 A 
HETATM   25  C   UNL     1       3.820  28.672  54.031  1.00  0.00     0.000 A 
HETATM   26  C   UNL     1       4.863  28.494  53.126  1.00  0.00     0.001 A 
HETATM   27  C   UNL     1       6.139  28.155  53.586  1.00  0.00     0.009 A 
ENDBRANCH   1  22
TORSDOF 6
ENDMDL
MODEL 4
REMARK VINA RESULT:      -8.0      2.793      7.379
REMARK  6 active torsions:
REMARK  status: ('A' for Active; 'I' for Inactive)
REMARK    1  A    between atoms: C_2  and  C_3 
REMARK    2  A    between atoms: C_7  and  C_8 
REMARK       I    between atoms: C_8  and  N_9 
REMARK    3  A    between atoms: N_9  and  C_10 
REMARK    4  A    between atoms: C_10  and  C_11 
REMARK    5  A    between atoms: C_10  and  C_19 
REMARK    6  A    between atoms: C_14  and  O_15 
ROOT
HETATM    1  C   UNL     1       5.951  27.469  55.878  1.00  0.00     0.151 C 
ENDROOT
BRANCH   1   2
HETATM    2  N   UNL     1       6.491  26.230  55.348  1.00  0.00    -0.343 N 
HETATM    3  C   UNL     1       6.682  25.121  56.129  1.00  0.00     0.270 C 
HETATM    4  O   UNL     1       6.453  25.101  57.335  1.00  0.00    -0.266 OA
HETATM    5  H   UNL     1       6.901  26.259  54.429  1.00  0.00     0.163 HD
BRANCH   3   6
HETATM    6  C   UNL     1       7.148  23.959  55.422  1.00  0.00     0.119 A 
HETATM    7  N   UNL     1       7.582  22.840  56.080  1.00  0.00    -0.273 N 
HETATM    8  N   UNL     1       7.918  21.822  55.270  1.00  0.00    -0.179 NA
HETATM    9  H   UNL     1       7.648  22.713  57.085  1.00  0.00     0.189 HD
HETATM   10  C   UNL     1       7.686  22.297  54.042  1.00  0.00     0.056 A 
HETATM   11  C   UNL     1       7.229  23.636  54.080  1.00  0.00     0.065 A 
BRANCH  10  12
HETATM   12  C   UNL     1       7.883  21.432  52.843  1.00  0.00     0.056 C 
HETATM   13  C   UNL     1       8.691  20.183  53.166  1.00  0.00     0.011 C 
ENDBRANCH  10  12
ENDBRANCH   3   6
ENDBRANCH   1   2
BRANCH   1  14
HETATM   14  C   UNL     1       7.099  28.314  56.425  1.00  0.00    -0.031 A 
HETATM   15  C   UNL     1       7.115  28.766  57.752  1.00  0.00     0.012 A 
HETATM   16  C   UNL     1       8.196  29.510  58.235  1.00  0.00     0.037 A 
HETATM   17  C   UNL     1       9.276  29.820  57.406  1.00  0.00     0.068 A 
HETATM   18  C   UNL     1       9.255  29.401  56.076  1.00  0.00     0.037 A 
HETATM   19  C   UNL     1       8.173  28.659  55.589  1.00  0.00     0.012 A 
BRANCH  17  20
HETATM   20  O   UNL     1      10.275  30.534  58.007  1.00  0.00    -0.356 OA
HETATM   21  C   UNL     1       9.876  31.633  58.816  1.00  0.00     0.210 C 
ENDBRANCH  17  20
ENDBRANCH   1  14
BRANCH   1  22
HETATM   22  C   UNL     1       5.072  28.196  54.852  1.00  0.00    -0.031 A 
HETATM   23  C   UNL     1       4.610  27.562  53.685  1.00  0.00     0.009 A 
HETATM   24  C   UNL     1       3.784  28.232  52.777  1.00  0.00     0.001 A 
HETATM   25  C   UNL     1       3.389  29.542  53.029  1.00  0.00     0.000 A 
HETATM   26  C   UNL     1       3.807  30.180  54.194  1.00  0.00     0.001 A 
HETATM   27  C   UNL     1       4.632  29.510  55.101  1.00  0.00     0.009 A 
ENDBRANCH   1  22
TORSDOF 6
ENDMDL
MODEL 5
REMARK VINA RESULT:      -8.0      2.658      4.999
REMARK  6 active torsions:
REMARK  status: ('A' for Active; 'I' for Inactive)
REMARK    1  A    between atoms: C_2  and  C_3 
REMARK    2  A    between atoms: C_7  and  C_8 
REMARK       I    between atoms: C_8  and  N_9 
REMARK    3  A    between atoms: N_9  and  C_10 
REMARK    4  A    between atoms: C_10  and  C_11 
REMARK    5  A    between atoms: C_10  and  C_19 
REMARK    6  A    between atoms: C_14  and  O_15 
ROOT
HETATM    1  C   UNL     1       7.417  27.522  53.973  1.00  0.00     0.151 C 
ENDROOT
BRANCH   1   2
HETATM    2  N   UNL     1       7.806  28.090  55.251  1.00  0.00    -0.343 N 
HETATM    3  C   UNL     1       8.855  28.962  55.377  1.00  0.00     0.270 C 
HETATM    4  O   UNL     1       9.568  29.296  54.435  1.00  0.00    -0.266 OA
HETATM    5  H   UNL     1       7.404  27.683  56.080  1.00  0.00     0.163 HD
BRANCH   3   6
HETATM    6  C   UNL     1       9.046  29.486  56.702  1.00  0.00     0.119 A 
HETATM    7  N   UNL     1      10.136  30.249  57.026  1.00  0.00    -0.273 N 
HETATM    8  N   UNL     1      10.126  30.715  58.286  1.00  0.00    -0.179 NA
HETATM    9  H   UNL     1      10.908  30.498  56.414  1.00  0.00     0.189 HD
HETATM   10  C   UNL     1       8.984  30.243  58.795  1.00  0.00     0.056 A 
HETATM   11  C   UNL     1       8.285  29.449  57.855  1.00  0.00     0.065 A 
BRANCH  10  12
HETATM   12  C   UNL     1       8.568  30.596  60.183  1.00  0.00     0.056 C 
HETATM   13  C   UNL     1       9.459  31.669  60.792  1.00  0.00     0.011 C 
ENDBRANCH  10  12
ENDBRANCH   3   6
ENDBRANCH   1   2
BRANCH   1  14
HETATM   14  C   UNL     1       7.450  26.000  54.079  1.00  0.00    -0.031 A 
HETATM   15  C   UNL     1       7.905  25.196  53.023  1.00  0.00     0.012 A 
HETATM   16  C   UNL     1       7.954  23.806  53.161  1.00  0.00     0.037 A 
HETATM   17  C   UNL     1       7.549  23.191  54.347  1.00  0.00     0.068 A 
HETATM   18  C   UNL     1       7.065  23.980  55.391  1.00  0.00     0.037 A 
HETATM   19  C   UNL     1       7.012  25.371  55.256  1.00  0.00     0.012 A 
BRANCH  17  20
HETATM   20  O   UNL     1       7.667  21.829  54.357  1.00  0.00    -0.356 OA
HETATM   21  C   UNL     1       7.928  21.201  53.108  1.00  0.00     0.210 C 
ENDBRANCH  17  20
ENDBRANCH   1  14
BRANCH   1  22
HETATM   22  C   UNL     1       6.080  28.087  53.478  1.00  0.00    -0.031 A 
HETATM   23  C   UNL     1       5.679  27.985  52.134  1.00  0.00     0.009 A 
HETATM   24  C   UNL     1       4.442  28.480  51.709  1.00  0.00     0.001 A 
HETATM   25  C   UNL     1       3.574  29.067  52.624  1.00  0.00     0.000 A 
HETATM   26  C   UNL     1       3.934  29.149  53.966  1.00  0.00     0.001 A 
HETATM   27  C   UNL     1       5.170  28.655  54.391  1.00  0.00     0.009 A 
ENDBRANCH   1  22
TORSDOF 6
ENDMDL
MODEL 6
REMARK VINA RESULT:      -7.8      2.950      7.152
REMARK  6 active torsions:
REMARK  status: ('A' for Active; 'I' for Inactive)
REMARK    1  A    between atoms: C_2  and  C_3 
REMARK    2  A    between atoms: C_7  and  C_8 
REMARK       I    between atoms: C_8  and  N_9 
REMARK    3  A    between atoms: N_9  and  C_10 
REMARK    4  A    between atoms: C_10  and  C_11 
REMARK    5  A    between atoms: C_10  and  C_19 
REMARK    6  A    between atoms: C_14  and  O_15 
ROOT
HETATM    1  C   UNL     1       6.724  26.669  53.098  1.00  0.00     0.151 C 
ENDROOT
BRANCH   1   2
HETATM    2  N   UNL     1       5.692  26.662  52.076  1.00  0.00    -0.343 N 
HETATM    3  C   UNL     1       5.474  27.731  51.247  1.00  0.00     0.270 C 
HETATM    4  O   UNL     1       6.100  28.783  51.330  1.00  0.00    -0.266 OA
HETATM    5  H   UNL     1       5.009  25.922  52.112  1.00  0.00     0.163 HD
BRANCH   3   6
HETATM    6  C   UNL     1       4.467  27.519  50.243  1.00  0.00     0.119 A 
HETATM    7  N   UNL     1       3.310  28.250  50.217  1.00  0.00    -0.273 N 
HETATM    8  N   UNL     1       2.509  27.973  49.175  1.00  0.00    -0.179 NA
HETATM    9  H   UNL     1       3.028  28.966  50.879  1.00  0.00     0.189 HD
HETATM   10  C   UNL     1       3.176  27.034  48.496  1.00  0.00     0.056 A 
HETATM   11  C   UNL     1       4.392  26.696  49.135  1.00  0.00     0.065 A 
BRANCH  10  12
HETATM   12  C   UNL     1       2.636  26.496  47.214  1.00  0.00     0.056 C 
HETATM   13  C   UNL     1       1.281  27.097  46.867  1.00  0.00     0.011 C 
ENDBRANCH  10  12
ENDBRANCH   3   6
ENDBRANCH   1   2
BRANCH   1  14
HETATM   14  C   UNL     1       6.241  27.504  54.281  1.00  0.00    -0.031 A 
HETATM   15  C   UNL     1       4.910  27.460  54.721  1.00  0.00     0.012 A 
HETATM   16  C   UNL     1       4.504  28.211  55.828  1.00  0.00     0.037 A 
HETATM   17  C   UNL     1       5.413  29.021  56.513  1.00  0.00     0.068 A 
HETATM   18  C   UNL     1       6.731  29.095  56.064  1.00  0.00     0.037 A 
HETATM   19  C   UNL     1       7.140  28.347  54.955  1.00  0.00     0.012 A 
BRANCH  17  20
HETATM   20  O   UNL     1       4.891  29.685  57.589  1.00  0.00    -0.356 OA
HETATM   21  C   UNL     1       3.774  30.528  57.338  1.00  0.00     0.210 C 
ENDBRANCH  17  20
ENDBRANCH   1  14
BRANCH   1  22
HETATM   22  C   UNL     1       7.167  25.249  53.473  1.00  0.00    -0.031 A 
HETATM   23  C   UNL     1       6.997  24.733  54.770  1.00  0.00     0.009 A 
HETATM   24  C   UNL     1       7.380  23.425  55.084  1.00  0.00     0.001 A 
HETATM   25  C   UNL     1       7.921  22.602  54.102  1.00  0.00     0.000 A 
HETATM   26  C   UNL     1       8.067  23.079  52.802  1.00  0.00     0.001 A 
HETATM   27  C   UNL     1       7.686  24.386  52.488  1.00  0.00     0.009 A 
ENDBRANCH   1  22
TORSDOF 6
ENDMDL
MODEL 7
REMARK VINA RESULT:      -7.7      2.911      6.300
REMARK  6 active torsions:
REMARK  status: ('A' for Active; 'I' for Inactive)
REMARK    1  A    between atoms: C_2  and  C_3 
REMARK    2  A    between atoms: C_7  and  C_8 
REMARK       I    between atoms: C_8  and  N_9 
REMARK    3  A    between atoms: N_9  and  C_10 
REMARK    4  A    between atoms: C_10  and  C_11 
REMARK    5  A    between atoms: C_10  and  C_19 
REMARK    6  A    between atoms: C_14  and  O_15 
ROOT
HETATM    1  C   UNL     1       6.157  26.318  54.972  1.00  0.00     0.151 C 
ENDROOT
BRANCH   1   2
HETATM    2  N   UNL     1       5.517  26.909  53.810  1.00  0.00    -0.343 N 
HETATM    3  C   UNL     1       4.485  27.804  53.917  1.00  0.00     0.270 C 
HETATM    4  O   UNL     1       3.998  28.141  54.992  1.00  0.00    -0.266 OA
HETATM    5  H   UNL     1       5.722  26.502  52.911  1.00  0.00     0.163 HD
BRANCH   3   6
HETATM    6  C   UNL     1       4.026  28.347  52.668  1.00  0.00     0.119 A 
HETATM    7  N   UNL     1       3.015  29.268  52.609  1.00  0.00    -0.273 N 
HETATM    8  N   UNL     1       2.758  29.722  51.371  1.00  0.00    -0.179 NA
HETATM    9  H   UNL     1       2.481  29.635  53.390  1.00  0.00     0.189 HD
HETATM   10  C   UNL     1       3.639  29.078  50.601  1.00  0.00     0.056 A 
HETATM   11  C   UNL     1       4.438  28.188  51.358  1.00  0.00     0.065 A 
BRANCH  10  12
HETATM   12  C   UNL     1       3.717  29.358  49.138  1.00  0.00     0.056 C 
HETATM   13  C   UNL     1       5.113  29.115  48.582  1.00  0.00     0.011 C 
ENDBRANCH  10  12
ENDBRANCH   3   6
ENDBRANCH   1   2
BRANCH   1  14
HETATM   14  C   UNL     1       6.823  25.009  54.556  1.00  0.00    -0.031 A 
HETATM   15  C   UNL     1       7.322  24.815  53.260  1.00  0.00     0.012 A 
HETATM   16  C   UNL     1       7.957  23.617  52.918  1.00  0.00     0.037 A 
HETATM   17  C   UNL     1       8.103  22.592  53.855  1.00  0.00     0.068 A 
HETATM   18  C   UNL     1       7.582  22.765  55.137  1.00  0.00     0.037 A 
HETATM   19  C   UNL     1       6.943  23.961  55.483  1.00  0.00     0.012 A 
BRANCH  17  20
HETATM   20  O   UNL     1       8.759  21.484  53.397  1.00  0.00    -0.356 OA
HETATM   21  C   UNL     1       8.627  20.298  54.170  1.00  0.00     0.210 C 
ENDBRANCH  17  20
ENDBRANCH   1  14
BRANCH   1  22
HETATM   22  C   UNL     1       7.099  27.307  55.670  1.00  0.00    -0.031 A 
HETATM   23  C   UNL     1       7.913  28.197  54.948  1.00  0.00     0.009 A 
HETATM   24  C   UNL     1       8.743  29.112  55.604  1.00  0.00     0.001 A 
HETATM   25  C   UNL     1       8.759  29.167  56.994  1.00  0.00     0.000 A 
HETATM   26  C   UNL     1       7.937  28.320  57.730  1.00  0.00     0.001 A 
HETATM   27  C   UNL     1       7.108  27.405  57.075  1.00  0.00     0.009 A 
ENDBRANCH   1  22
TORSDOF 6
ENDMDL
MODEL 8
REMARK VINA RESULT:      -7.6      3.895      6.973
REMARK  6 active torsions:
REMARK  status: ('A' for Active; 'I' for Inactive)
REMARK    1  A    between atoms: C_2  and  C_3 
REMARK    2  A    between atoms: C_7  and  C_8 
REMARK       I    between atoms: C_8  and  N_9 
REMARK    3  A    between atoms: N_9  and  C_10 
REMARK    4  A    between atoms: C_10  and  C_11 
REMARK    5  A    between atoms: C_10  and  C_19 
REMARK    6  A    between atoms: C_14  and  O_15 
ROOT
HETATM    1  C   UNL     1       6.854  29.515  57.338  1.00  0.00     0.151 C 
ENDROOT
BRANCH   1   2
HETATM    2  N   UNL     1       7.073  29.893  58.723  1.00  0.00    -0.343 N 
HETATM    3  C   UNL     1       8.097  30.719  59.104  1.00  0.00     0.270 C 
HETATM    4  O   UNL     1       8.927  31.166  58.318  1.00  0.00    -0.266 OA
HETATM    5  H   UNL     1       6.566  29.382  59.428  1.00  0.00     0.163 HD
BRANCH   3   6
HETATM    6  C   UNL     1       8.114  31.050  60.503  1.00  0.00     0.119 A 
HETATM    7  N   UNL     1       8.602  30.184  61.444  1.00  0.00    -0.273 N 
HETATM    8  N   UNL     1       8.608  30.677  62.693  1.00  0.00    -0.179 NA
HETATM    9  H   UNL     1       8.963  29.249  61.280  1.00  0.00     0.189 HD
HETATM   10  C   UNL     1       8.113  31.911  62.556  1.00  0.00     0.056 A 
HETATM   11  C   UNL     1       7.765  32.184  61.212  1.00  0.00     0.065 A 
BRANCH  10  12
HETATM   12  C   UNL     1       8.012  32.824  63.731  1.00  0.00     0.056 C 
HETATM   13  C   UNL     1       6.575  33.239  64.011  1.00  0.00     0.011 C 
ENDBRANCH  10  12
ENDBRANCH   3   6
ENDBRANCH   1   2
BRANCH   1  14
HETATM   14  C   UNL     1       7.047  28.007  57.202  1.00  0.00    -0.031 A 
HETATM   15  C   UNL     1       8.318  27.417  57.262  1.00  0.00     0.012 A 
HETATM   16  C   UNL     1       8.460  26.030  57.167  1.00  0.00     0.037 A 
HETATM   17  C   UNL     1       7.344  25.206  57.007  1.00  0.00     0.068 A 
HETATM   18  C   UNL     1       6.079  25.786  56.915  1.00  0.00     0.037 A 
HETATM   19  C   UNL     1       5.933  27.174  57.007  1.00  0.00     0.012 A 
BRANCH  17  20
HETATM   20  O   UNL     1       7.621  23.868  56.948  1.00  0.00    -0.356 OA
HETATM   21  C   UNL     1       8.653  23.468  56.055  1.00  0.00     0.210 C 
ENDBRANCH  17  20
ENDBRANCH   1  14
BRANCH   1  22
HETATM   22  C   UNL     1       5.507  30.024  56.811  1.00  0.00    -0.031 A 
HETATM   23  C   UNL     1       4.465  30.405  57.676  1.00  0.00     0.009 A 
HETATM   24  C   UNL     1       3.254  30.896  57.177  1.00  0.00     0.001 A 
HETATM   25  C   UNL     1       3.071  31.036  55.805  1.00  0.00     0.000 A 
HETATM   26  C   UNL     1       4.100  30.697  54.930  1.00  0.00     0.001 A 
HETATM   27  C   UNL     1       5.309  30.206  55.429  1.00  0.00     0.009 A 
ENDBRANCH   1  22
TORSDOF 6
ENDMDL
MODEL 9
REMARK VINA RESULT:      -7.4      1.629      2.217
REMARK  6 active torsions:
REMARK  status: ('A' for Active; 'I' for Inactive)
REMARK    1  A    between atoms: C_2  and  C_3 
REMARK    2  A    between atoms: C_7  and  C_8 
REMARK       I    between atoms: C_8  and  N_9 
REMARK    3  A    between atoms: N_9  and  C_10 
REMARK    4  A    between atoms: C_10  and  C_11 
REMARK    5  A    between atoms: C_10  and  C_19 
REMARK    6  A    between atoms: C_14  and  O_15 
ROOT
HETATM    1  C   UNL     1       5.753  26.397  53.816  1.00  0.00     0.151 C 
ENDROOT
BRANCH   1   2
HETATM    2  N   UNL     1       6.356  27.381  54.696  1.00  0.00    -0.343 N 
HETATM    3  C   UNL     1       5.867  27.642  55.949  1.00  0.00     0.270 C 
HETATM    4  O   UNL     1       4.865  27.100  56.405  1.00  0.00    -0.266 OA
HETATM    5  H   UNL     1       7.034  28.009  54.294  1.00  0.00     0.163 HD
BRANCH   3   6
HETATM    6  C   UNL     1       6.637  28.588  56.711  1.00  0.00     0.119 A 
HETATM    7  N   UNL     1       6.111  29.784  57.119  1.00  0.00    -0.273 N 
HETATM    8  N   UNL     1       6.941  30.518  57.879  1.00  0.00    -0.179 NA
HETATM    9  H   UNL     1       5.180  30.138  56.922  1.00  0.00     0.189 HD
HETATM   10  C   UNL     1       8.042  29.766  57.974  1.00  0.00     0.056 A 
HETATM   11  C   UNL     1       7.914  28.563  57.241  1.00  0.00     0.065 A 
BRANCH  10  12
HETATM   12  C   UNL     1       9.198  30.214  58.802  1.00  0.00     0.056 C 
HETATM   13  C   UNL     1       8.773  30.618  60.207  1.00  0.00     0.011 C 
ENDBRANCH  10  12
ENDBRANCH   3   6
ENDBRANCH   1   2
BRANCH   1  14
HETATM   14  C   UNL     1       5.553  27.023  52.439  1.00  0.00    -0.031 A 
HETATM   15  C   UNL     1       5.135  26.263  51.336  1.00  0.00     0.012 A 
HETATM   16  C   UNL     1       4.929  26.870  50.094  1.00  0.00     0.037 A 
HETATM   17  C   UNL     1       5.138  28.241  49.925  1.00  0.00     0.068 A 
HETATM   18  C   UNL     1       5.583  28.999  51.008  1.00  0.00     0.037 A 
HETATM   19  C   UNL     1       5.793  28.394  52.252  1.00  0.00     0.012 A 
BRANCH  17  20
HETATM   20  O   UNL     1       4.880  28.710  48.667  1.00  0.00    -0.356 OA
HETATM   21  C   UNL     1       4.239  29.976  48.577  1.00  0.00     0.210 C 
ENDBRANCH  17  20
ENDBRANCH   1  14
BRANCH   1  22
HETATM   22  C   UNL     1       6.544  25.083  53.798  1.00  0.00    -0.031 A 
HETATM   23  C   UNL     1       7.350  24.714  52.707  1.00  0.00     0.009 A 
HETATM   24  C   UNL     1       8.088  23.526  52.723  1.00  0.00     0.001 A 
HETATM   25  C   UNL     1       8.050  22.696  53.839  1.00  0.00     0.000 A 
HETATM   26  C   UNL     1       7.287  23.057  54.945  1.00  0.00     0.001 A 
HETATM   27  C   UNL     1       6.548  24.244  54.929  1.00  0.00     0.009 A 
ENDBRANCH   1  22
TORSDOF 6
ENDMDL
MODEL 10
REMARK VINA RESULT:      -7.2      9.931     13.967
REMARK  6 active torsions:
REMARK  status: ('A' for Active; 'I' for Inactive)
REMARK    1  A    between atoms: C_2  and  C_3 
REMARK    2  A    between atoms: C_7  and  C_8 
REMARK       I    between atoms: C_8  and  N_9 
REMARK    3  A    between atoms: N_9  and  C_10 
REMARK    4  A    between atoms: C_10  and  C_11 
REMARK    5  A    between atoms: C_10  and  C_19 
REMARK    6  A    between atoms: C_14  and  O_15 
ROOT
HETATM    1  C   UNL     1       5.601  34.623  64.321  1.00  0.00     0.151 C 
ENDROOT
BRANCH   1   2
HETATM    2  N   UNL     1       6.037  35.968  63.994  1.00  0.00    -0.343 N 
HETATM    3  C   UNL     1       5.171  37.029  63.948  1.00  0.00     0.270 C 
HETATM    4  O   UNL     1       3.963  36.918  64.137  1.00  0.00    -0.266 OA
HETATM    5  H   UNL     1       6.964  36.076  63.615  1.00  0.00     0.163 HD
BRANCH   3   6
HETATM    6  C   UNL     1       5.789  38.301  63.688  1.00  0.00     0.119 A 
HETATM    7  N   UNL     1       6.309  39.069  64.694  1.00  0.00    -0.273 N 
HETATM    8  N   UNL     1       6.910  40.194  64.272  1.00  0.00    -0.179 NA
HETATM    9  H   UNL     1       6.296  38.860  65.688  1.00  0.00     0.189 HD
HETATM   10  C   UNL     1       6.782  40.148  62.942  1.00  0.00     0.056 A 
HETATM   11  C   UNL     1       6.067  38.999  62.528  1.00  0.00     0.065 A 
BRANCH  10  12
HETATM   12  C   UNL     1       7.384  41.209  62.084  1.00  0.00     0.056 C 
HETATM   13  C   UNL     1       7.754  42.450  62.884  1.00  0.00     0.011 C 
ENDBRANCH  10  12
ENDBRANCH   3   6
ENDBRANCH   1   2
BRANCH   1  14
HETATM   14  C   UNL     1       6.416  33.627  63.500  1.00  0.00    -0.031 A 
HETATM   15  C   UNL     1       7.570  33.018  64.013  1.00  0.00     0.012 A 
HETATM   16  C   UNL     1       8.278  32.085  63.250  1.00  0.00     0.037 A 
HETATM   17  C   UNL     1       7.853  31.744  61.964  1.00  0.00     0.068 A 
HETATM   18  C   UNL     1       6.724  32.368  61.433  1.00  0.00     0.037 A 
HETATM   19  C   UNL     1       6.015  33.304  62.193  1.00  0.00     0.012 A 
BRANCH  17  20
HETATM   20  O   UNL     1       8.623  30.805  61.334  1.00  0.00    -0.356 OA
HETATM   21  C   UNL     1       8.349  30.572  59.959  1.00  0.00     0.210 C 
ENDBRANCH  17  20
ENDBRANCH   1  14
BRANCH   1  22
HETATM   22  C   UNL     1       5.631  34.362  65.832  1.00  0.00    -0.031 A 
HETATM   23  C   UNL     1       6.821  34.438  66.577  1.00  0.00     0.009 A 
HETATM   24  C   UNL     1       6.823  34.227  67.960  1.00  0.00     0.001 A 
HETATM   25  C   UNL     1       5.632  33.956  68.626  1.00  0.00     0.000 A 
HETATM   26  C   UNL     1       4.436  33.909  67.915  1.00  0.00     0.001 A 
HETATM   27  C   UNL     1       4.434  34.119  66.533  1.00  0.00     0.009 A 
ENDBRANCH   1  22
TORSDOF 6
ENDMDL
