MODEL 1
REMARK VINA RESULT:     -10.8      0.000      0.000
REMARK  7 active torsions:
REMARK  status: ('A' for Active; 'I' for Inactive)
REMARK    1  A    between atoms: C_5  and  N_6 
REMARK    2  A    between atoms: N_6  and  C_7 
REMARK    3  A    between atoms: C_7  and  N_8 
REMARK    4  A    between atoms: N_8  and  C_9 
REMARK    5  A    between atoms: C_9  and  C_10 
REMARK    6  A    between atoms: C_10  and  C_11 
REMARK    7  A    between atoms: C_14  and  C_15 
ROOT
HETATM    1  C   UNL     1       5.450  27.675  51.827  1.00  0.00     0.102 C 
HETATM    2  C   UNL     1       5.098  28.069  50.569  1.00  0.00     0.139 C 
HETATM    3  C   UNL     1       4.389  27.146  49.650  1.00  0.00     0.270 C 
HETATM    4  O   UNL     1       4.629  25.943  49.587  1.00  0.00    -0.267 OA
HETATM    5  N   UNL     1       3.490  27.774  48.809  1.00  0.00    -0.270 N 
HETATM    6  C   UNL     1       2.567  26.927  48.075  1.00  0.00     0.164 C 
HETATM    7  C   UNL     1       3.636  29.079  48.372  1.00  0.00     0.333 C 
HETATM    8  O   UNL     1       2.903  29.556  47.503  1.00  0.00    -0.246 OA
HETATM    9  N   UNL     1       4.663  29.814  48.946  1.00  0.00    -0.270 N 
HETATM   10  C   UNL     1       4.872  31.169  48.464  1.00  0.00     0.164 C 
HETATM   11  C   UNL     1       5.350  29.448  50.094  1.00  0.00     0.270 C 
HETATM   12  O   UNL     1       6.075  30.232  50.711  1.00  0.00    -0.267 OA
ENDROOT
BRANCH   1  13
HETATM   13  N   UNL     1       5.070  26.434  52.320  1.00  0.00    -0.245 NA
HETATM   14  H   UNL     1       4.367  26.026  51.708  1.00  0.00     0.135 HD
BRANCH  13  15
HETATM   15  C   UNL     1       5.990  25.421  52.709  1.00  0.00     0.014 A 
HETATM   16  C   UNL     1       7.115  25.069  51.953  1.00  0.00     0.024 A 
HETATM   17  C   UNL     1       8.002  24.085  52.400  1.00  0.00     0.008 A 
HETATM   18  C   UNL     1       7.802  23.454  53.632  1.00  0.00    -0.062 A 
HETATM   19  C   UNL     1       8.728  22.366  54.089  1.00  0.00     0.048 C 
HETATM   20  C   UNL     1       6.694  23.817  54.403  1.00  0.00     0.008 A 
HETATM   21  C   UNL     1       5.810  24.801  53.952  1.00  0.00     0.024 A 
ENDBRANCH  13  15
ENDBRANCH   1  13
BRANCH   1  22
HETATM   22  N   UNL     1       6.240  28.464  52.667  1.00  0.00    -0.379 N 
HETATM   23  H   UNL     1       6.621  29.283  52.173  1.00  0.00     0.160 HD
BRANCH  22  24
HETATM   24  C   UNL     1       5.897  28.777  54.055  1.00  0.00     0.125 C 
BRANCH  24  25
HETATM   25  C   UNL     1       6.878  28.097  55.016  1.00  0.00     0.061 C 
BRANCH  25  26
HETATM   26  C   UNL     1       7.122  28.924  56.243  1.00  0.00    -0.022 A 
HETATM   27  C   UNL     1       8.380  29.476  56.652  1.00  0.00    -0.000 A 
HETATM   28  C   UNL     1       8.175  30.149  57.855  1.00  0.00     0.058 A 
HETATM   29  C   UNL     1       9.679  29.450  56.105  1.00  0.00     0.014 A 
HETATM   30  C   UNL     1       9.206  30.808  58.559  1.00  0.00     0.075 A 
HETATM   31  N   UNL     1       6.836  30.023  58.157  1.00  0.00    -0.358 N 
HETATM   32  C   UNL     1      10.490  30.754  57.977  1.00  0.00     0.018 A 
HETATM   33  C   UNL     1      10.724  30.090  56.775  1.00  0.00     0.002 A 
HETATM   34  H   UNL     1       6.398  30.420  58.979  1.00  0.00     0.166 HD
HETATM   35  C   UNL     1       6.189  29.281  57.202  1.00  0.00     0.013 A 
HETATM   36  C   UNL     1       4.735  28.988  57.299  1.00  0.00     0.068 C 
BRANCH  30  37
HETATM   37  C   UNL     1       9.007  31.539  59.861  1.00  0.00     0.419 C 
HETATM   38  F   UNL     1      10.115  32.225  60.269  1.00  0.00    -0.166 F 
HETATM   39  F   UNL     1       8.006  32.461  59.799  1.00  0.00    -0.166 F 
HETATM   40  F   UNL     1       8.687  30.706  60.890  1.00  0.00    -0.166 F 
ENDBRANCH  30  37
ENDBRANCH  25  26
ENDBRANCH  24  25
ENDBRANCH  22  24
ENDBRANCH   1  22
TORSDOF 7
ENDMDL
MODEL 2
REMARK VINA RESULT:     -10.7      4.495      7.184
REMARK  7 active torsions:
REMARK  status: ('A' for Active; 'I' for Inactive)
REMARK    1  A    between atoms: C_5  and  N_6 
REMARK    2  A    between atoms: N_6  and  C_7 
REMARK    3  A    between atoms: C_7  and  N_8 
REMARK    4  A    between atoms: N_8  and  C_9 
REMARK    5  A    between atoms: C_9  and  C_10 
REMARK    6  A    between atoms: C_10  and  C_11 
REMARK    7  A    between atoms: C_14  and  C_15 
ROOT
HETATM    1  C   UNL     1       4.472  27.852  51.613  1.00  0.00     0.102 C 
HETATM    2  C   UNL     1       4.556  29.091  52.178  1.00  0.00     0.139 C 
HETATM    3  C   UNL     1       5.028  30.258  51.395  1.00  0.00     0.270 C 
HETATM    4  O   UNL     1       5.928  30.190  50.563  1.00  0.00    -0.267 OA
HETATM    5  N   UNL     1       4.420  31.450  51.744  1.00  0.00    -0.270 N 
HETATM    6  C   UNL     1       4.621  32.580  50.856  1.00  0.00     0.164 C 
HETATM    7  C   UNL     1       3.941  31.719  53.014  1.00  0.00     0.333 C 
HETATM    8  O   UNL     1       3.548  32.844  53.331  1.00  0.00    -0.246 OA
HETATM    9  N   UNL     1       3.947  30.665  53.917  1.00  0.00    -0.270 N 
HETATM   10  C   UNL     1       3.500  30.937  55.273  1.00  0.00     0.164 C 
HETATM   11  C   UNL     1       4.121  29.333  53.573  1.00  0.00     0.270 C 
HETATM   12  O   UNL     1       3.876  28.410  54.353  1.00  0.00    -0.267 OA
ENDROOT
BRANCH   1  13
HETATM   13  N   UNL     1       4.731  27.664  50.262  1.00  0.00    -0.245 NA
HETATM   14  H   UNL     1       5.412  26.917  50.148  1.00  0.00     0.135 HD
BRANCH  13  15
HETATM   15  C   UNL     1       3.718  27.523  49.274  1.00  0.00     0.014 A 
HETATM   16  C   UNL     1       3.629  26.422  48.412  1.00  0.00     0.024 A 
HETATM   17  C   UNL     1       2.592  26.322  47.479  1.00  0.00     0.008 A 
HETATM   18  C   UNL     1       1.601  27.306  47.410  1.00  0.00    -0.062 A 
HETATM   19  C   UNL     1       0.516  27.220  46.377  1.00  0.00     0.048 C 
HETATM   20  C   UNL     1       1.670  28.395  48.282  1.00  0.00     0.008 A 
HETATM   21  C   UNL     1       2.708  28.491  49.214  1.00  0.00     0.024 A 
ENDBRANCH  13  15
ENDBRANCH   1  13
BRANCH   1  22
HETATM   22  N   UNL     1       4.169  26.707  52.354  1.00  0.00    -0.379 N 
HETATM   23  H   UNL     1       3.196  26.405  52.207  1.00  0.00     0.160 HD
BRANCH  22  24
HETATM   24  C   UNL     1       5.076  25.568  52.505  1.00  0.00     0.125 C 
BRANCH  24  25
HETATM   25  C   UNL     1       6.291  25.960  53.351  1.00  0.00     0.061 C 
BRANCH  25  26
HETATM   26  C   UNL     1       6.679  24.874  54.311  1.00  0.00    -0.022 A 
HETATM   27  C   UNL     1       7.319  23.637  53.971  1.00  0.00    -0.000 A 
HETATM   28  C   UNL     1       7.477  22.907  55.147  1.00  0.00     0.058 A 
HETATM   29  C   UNL     1       7.768  23.073  52.760  1.00  0.00     0.014 A 
HETATM   30  C   UNL     1       8.063  21.624  55.189  1.00  0.00     0.075 A 
HETATM   31  N   UNL     1       6.965  23.681  56.167  1.00  0.00    -0.358 N 
HETATM   32  C   UNL     1       8.495  21.097  53.954  1.00  0.00     0.018 A 
HETATM   33  C   UNL     1       8.352  21.804  52.763  1.00  0.00     0.002 A 
HETATM   34  H   UNL     1       6.950  23.402  57.140  1.00  0.00     0.166 HD
HETATM   35  C   UNL     1       6.472  24.864  55.680  1.00  0.00     0.013 A 
HETATM   36  C   UNL     1       5.852  25.875  56.576  1.00  0.00     0.068 C 
BRANCH  30  37
HETATM   37  C   UNL     1       8.242  20.816  56.448  1.00  0.00     0.419 C 
HETATM   38  F   UNL     1       8.337  21.584  57.573  1.00  0.00    -0.166 F 
HETATM   39  F   UNL     1       7.208  19.958  56.674  1.00  0.00    -0.166 F 
HETATM   40  F   UNL     1       9.367  20.049  56.427  1.00  0.00    -0.166 F 
ENDBRANCH  30  37
ENDBRANCH  25  26
ENDBRANCH  24  25
ENDBRANCH  22  24
ENDBRANCH   1  22
TORSDOF 7
ENDMDL
MODEL 3
REMARK VINA RESULT:     -10.4      4.398      7.514
REMARK  7 active torsions:
REMARK  status: ('A' for Active; 'I' for Inactive)
REMARK    1  A    between atoms: C_5  and  N_6 
REMARK    2  A    between atoms: N_6  and  C_7 
REMARK    3  A    between atoms: C_7  and  N_8 
REMARK    4  A    between atoms: N_8  and  C_9 
REMARK    5  A    between atoms: C_9  and  C_10 
REMARK    6  A    between atoms: C_10  and  C_11 
REMARK    7  A    between atoms: C_14  and  C_15 
ROOT
HETATM    1  C   UNL     1       5.119  28.850  55.197  1.00  0.00     0.102 C 
HETATM    2  C   UNL     1       4.343  29.949  54.970  1.00  0.00     0.139 C 
HETATM    3  C   UNL     1       4.083  30.936  56.046  1.00  0.00     0.270 C 
HETATM    4  O   UNL     1       3.911  30.621  57.220  1.00  0.00    -0.267 OA
HETATM    5  N   UNL     1       3.968  32.238  55.596  1.00  0.00    -0.270 N 
HETATM    6  C   UNL     1       3.984  33.288  56.598  1.00  0.00     0.164 C 
HETATM    7  C   UNL     1       3.506  32.572  54.335  1.00  0.00     0.333 C 
HETATM    8  O   UNL     1       3.269  33.742  54.022  1.00  0.00    -0.246 OA
HETATM    9  N   UNL     1       3.303  31.523  53.450  1.00  0.00    -0.270 N 
HETATM   10  C   UNL     1       2.766  31.843  52.138  1.00  0.00     0.164 C 
HETATM   11  C   UNL     1       3.784  30.235  53.629  1.00  0.00     0.270 C 
HETATM   12  O   UNL     1       3.800  29.401  52.720  1.00  0.00    -0.267 OA
ENDROOT
BRANCH   1  13
HETATM   13  N   UNL     1       5.768  28.671  56.411  1.00  0.00    -0.245 NA
HETATM   14  H   UNL     1       5.602  27.726  56.749  1.00  0.00     0.135 HD
BRANCH  13  15
HETATM   15  C   UNL     1       7.130  29.012  56.638  1.00  0.00     0.014 A 
HETATM   16  C   UNL     1       8.096  29.044  55.625  1.00  0.00     0.024 A 
HETATM   17  C   UNL     1       9.416  29.416  55.902  1.00  0.00     0.008 A 
HETATM   18  C   UNL     1       9.791  29.797  57.194  1.00  0.00    -0.062 A 
HETATM   19  C   UNL     1      11.216  30.151  57.499  1.00  0.00     0.048 C 
HETATM   20  C   UNL     1       8.826  29.791  58.205  1.00  0.00     0.008 A 
HETATM   21  C   UNL     1       7.508  29.418  57.924  1.00  0.00     0.024 A 
ENDBRANCH  13  15
ENDBRANCH   1  13
BRANCH   1  22
HETATM   22  N   UNL     1       5.270  27.830  54.254  1.00  0.00    -0.379 N 
HETATM   23  H   UNL     1       5.825  28.139  53.444  1.00  0.00     0.160 HD
BRANCH  22  24
HETATM   24  C   UNL     1       5.541  26.433  54.598  1.00  0.00     0.125 C 
BRANCH  24  25
HETATM   25  C   UNL     1       6.992  26.071  54.263  1.00  0.00     0.061 C 
BRANCH  25  26
HETATM   26  C   UNL     1       7.441  24.835  54.984  1.00  0.00    -0.022 A 
HETATM   27  C   UNL     1       7.647  23.544  54.398  1.00  0.00    -0.000 A 
HETATM   28  C   UNL     1       8.036  22.675  55.416  1.00  0.00     0.058 A 
HETATM   29  C   UNL     1       7.525  23.038  53.088  1.00  0.00     0.014 A 
HETATM   30  C   UNL     1       8.312  21.307  55.202  1.00  0.00     0.075 A 
HETATM   31  N   UNL     1       8.079  23.417  56.577  1.00  0.00    -0.358 N 
HETATM   32  C   UNL     1       8.175  20.844  53.877  1.00  0.00     0.018 A 
HETATM   33  C   UNL     1       7.790  21.689  52.839  1.00  0.00     0.002 A 
HETATM   34  H   UNL     1       8.337  23.044  57.481  1.00  0.00     0.166 HD
HETATM   35  C   UNL     1       7.715  24.718  56.337  1.00  0.00     0.013 A 
HETATM   36  C   UNL     1       7.669  25.725  57.429  1.00  0.00     0.068 C 
BRANCH  30  37
HETATM   37  C   UNL     1       8.731  20.350  56.288  1.00  0.00     0.419 C 
HETATM   38  F   UNL     1       8.385  20.769  57.540  1.00  0.00    -0.166 F 
HETATM   39  F   UNL     1       8.174  19.115  56.145  1.00  0.00    -0.166 F 
HETATM   40  F   UNL     1      10.078  20.151  56.324  1.00  0.00    -0.166 F 
ENDBRANCH  30  37
ENDBRANCH  25  26
ENDBRANCH  24  25
ENDBRANCH  22  24
ENDBRANCH   1  22
TORSDOF 7
ENDMDL
MODEL 4
REMARK VINA RESULT:     -10.4      5.167      8.519
REMARK  7 active torsions:
REMARK  status: ('A' for Active; 'I' for Inactive)
REMARK    1  A    between atoms: C_5  and  N_6 
REMARK    2  A    between atoms: N_6  and  C_7 
REMARK    3  A    between atoms: C_7  and  N_8 
REMARK    4  A    between atoms: N_8  and  C_9 
REMARK    5  A    between atoms: C_9  and  C_10 
REMARK    6  A    between atoms: C_10  and  C_11 
REMARK    7  A    between atoms: C_14  and  C_15 
ROOT
HETATM    1  C   UNL     1       6.331  28.310  56.628  1.00  0.00     0.102 C 
HETATM    2  C   UNL     1       6.577  29.499  57.248  1.00  0.00     0.139 C 
HETATM    3  C   UNL     1       5.682  30.665  57.048  1.00  0.00     0.270 C 
HETATM    4  O   UNL     1       5.156  30.933  55.971  1.00  0.00    -0.267 OA
HETATM    5  N   UNL     1       5.557  31.473  58.162  1.00  0.00    -0.270 N 
HETATM    6  C   UNL     1       4.503  32.470  58.141  1.00  0.00     0.164 C 
HETATM    7  C   UNL     1       6.552  31.622  59.113  1.00  0.00     0.333 C 
HETATM    8  O   UNL     1       6.470  32.467  60.008  1.00  0.00    -0.246 OA
HETATM    9  N   UNL     1       7.655  30.789  58.993  1.00  0.00    -0.270 N 
HETATM   10  C   UNL     1       8.738  30.963  59.947  1.00  0.00     0.164 C 
HETATM   11  C   UNL     1       7.706  29.658  58.192  1.00  0.00     0.270 C 
HETATM   12  O   UNL     1       8.597  28.811  58.297  1.00  0.00    -0.267 OA
ENDROOT
BRANCH   1  13
HETATM   13  N   UNL     1       5.183  28.123  55.869  1.00  0.00    -0.245 NA
HETATM   14  H   UNL     1       4.586  28.943  55.948  1.00  0.00     0.135 HD
BRANCH  13  15
HETATM   15  C   UNL     1       5.190  27.685  54.517  1.00  0.00     0.014 A 
HETATM   16  C   UNL     1       5.738  28.432  53.467  1.00  0.00     0.024 A 
HETATM   17  C   UNL     1       5.744  27.937  52.159  1.00  0.00     0.008 A 
HETATM   18  C   UNL     1       5.232  26.666  51.877  1.00  0.00    -0.062 A 
HETATM   19  C   UNL     1       5.198  26.155  50.467  1.00  0.00     0.048 C 
HETATM   20  C   UNL     1       4.706  25.904  52.924  1.00  0.00     0.008 A 
HETATM   21  C   UNL     1       4.702  26.403  54.230  1.00  0.00     0.024 A 
ENDBRANCH  13  15
ENDBRANCH   1  13
BRANCH   1  22
HETATM   22  N   UNL     1       7.225  27.237  56.679  1.00  0.00    -0.379 N 
HETATM   23  H   UNL     1       8.173  27.544  56.939  1.00  0.00     0.160 HD
BRANCH  22  24
HETATM   24  C   UNL     1       6.900  25.929  57.250  1.00  0.00     0.125 C 
BRANCH  24  25
HETATM   25  C   UNL     1       8.176  25.117  57.487  1.00  0.00     0.061 C 
BRANCH  25  26
HETATM   26  C   UNL     1       8.227  23.889  56.626  1.00  0.00    -0.022 A 
HETATM   27  C   UNL     1       8.138  23.858  55.196  1.00  0.00    -0.000 A 
HETATM   28  C   UNL     1       8.201  22.524  54.798  1.00  0.00     0.058 A 
HETATM   29  C   UNL     1       7.998  24.852  54.207  1.00  0.00     0.014 A 
HETATM   30  C   UNL     1       8.129  22.114  53.450  1.00  0.00     0.075 A 
HETATM   31  N   UNL     1       8.339  21.773  55.947  1.00  0.00    -0.358 N 
HETATM   32  C   UNL     1       7.986  23.141  52.494  1.00  0.00     0.018 A 
HETATM   33  C   UNL     1       7.922  24.483  52.861  1.00  0.00     0.002 A 
HETATM   34  H   UNL     1       8.415  20.764  55.961  1.00  0.00     0.166 HD
HETATM   35  C   UNL     1       8.347  22.579  57.057  1.00  0.00     0.013 A 
HETATM   36  C   UNL     1       8.474  22.013  58.425  1.00  0.00     0.068 C 
BRANCH  30  37
HETATM   37  C   UNL     1       8.192  20.678  52.998  1.00  0.00     0.419 C 
HETATM   38  F   UNL     1       9.272  20.004  53.492  1.00  0.00    -0.166 F 
HETATM   39  F   UNL     1       7.101  19.957  53.380  1.00  0.00    -0.166 F 
HETATM   40  F   UNL     1       8.267  20.554  51.643  1.00  0.00    -0.166 F 
ENDBRANCH  30  37
ENDBRANCH  25  26
ENDBRANCH  24  25
ENDBRANCH  22  24
ENDBRANCH   1  22
TORSDOF 7
ENDMDL
MODEL 5
REMARK VINA RESULT:     -10.3      4.839      8.412
REMARK  7 active torsions:
REMARK  status: ('A' for Active; 'I' for Inactive)
REMARK    1  A    between atoms: C_5  and  N_6 
REMARK    2  A    between atoms: N_6  and  C_7 
REMARK    3  A    between atoms: C_7  and  N_8 
REMARK    4  A    between atoms: N_8  and  C_9 
REMARK    5  A    between atoms: C_9  and  C_10 
REMARK    6  A    between atoms: C_10  and  C_11 
REMARK    7  A    between atoms: C_14  and  C_15 
ROOT
HETATM    1  C   UNL     1       6.314  26.647  55.591  1.00  0.00     0.102 C 
HETATM    2  C   UNL     1       6.243  27.655  56.507  1.00  0.00     0.139 C 
HETATM    3  C   UNL     1       7.422  28.028  57.326  1.00  0.00     0.270 C 
HETATM    4  O   UNL     1       8.221  27.207  57.769  1.00  0.00    -0.267 OA
HETATM    5  N   UNL     1       7.497  29.377  57.618  1.00  0.00    -0.270 N 
HETATM    6  C   UNL     1       8.744  29.864  58.176  1.00  0.00     0.164 C 
HETATM    7  C   UNL     1       6.387  30.196  57.735  1.00  0.00     0.333 C 
HETATM    8  O   UNL     1       6.479  31.354  58.148  1.00  0.00    -0.246 OA
HETATM    9  N   UNL     1       5.165  29.639  57.385  1.00  0.00    -0.270 N 
HETATM   10  C   UNL     1       3.978  30.461  57.551  1.00  0.00     0.164 C 
HETATM   11  C   UNL     1       5.010  28.457  56.677  1.00  0.00     0.270 C 
HETATM   12  O   UNL     1       3.936  28.123  56.172  1.00  0.00    -0.267 OA
ENDROOT
BRANCH   1  13
HETATM   13  N   UNL     1       7.517  26.004  55.326  1.00  0.00    -0.245 NA
HETATM   14  H   UNL     1       8.113  26.048  56.149  1.00  0.00     0.135 HD
BRANCH  13  15
HETATM   15  C   UNL     1       7.612  24.707  54.754  1.00  0.00     0.014 A 
HETATM   16  C   UNL     1       7.894  24.479  53.401  1.00  0.00     0.024 A 
HETATM   17  C   UNL     1       8.005  23.178  52.899  1.00  0.00     0.008 A 
HETATM   18  C   UNL     1       7.869  22.075  53.747  1.00  0.00    -0.062 A 
HETATM   19  C   UNL     1       7.943  20.681  53.199  1.00  0.00     0.048 C 
HETATM   20  C   UNL     1       7.611  22.294  55.103  1.00  0.00     0.008 A 
HETATM   21  C   UNL     1       7.501  23.596  55.601  1.00  0.00     0.024 A 
ENDBRANCH  13  15
ENDBRANCH   1  13
BRANCH   1  22
HETATM   22  N   UNL     1       5.192  26.174  54.905  1.00  0.00    -0.379 N 
HETATM   23  H   UNL     1       4.321  26.375  55.416  1.00  0.00     0.160 HD
BRANCH  22  24
HETATM   24  C   UNL     1       5.012  26.287  53.457  1.00  0.00     0.125 C 
BRANCH  24  25
HETATM   25  C   UNL     1       5.479  27.661  52.966  1.00  0.00     0.061 C 
BRANCH  25  26
HETATM   26  C   UNL     1       4.567  28.219  51.913  1.00  0.00    -0.022 A 
HETATM   27  C   UNL     1       4.408  27.715  50.581  1.00  0.00    -0.000 A 
HETATM   28  C   UNL     1       3.489  28.533  49.926  1.00  0.00     0.058 A 
HETATM   29  C   UNL     1       4.978  26.637  49.873  1.00  0.00     0.014 A 
HETATM   30  C   UNL     1       3.099  28.339  48.584  1.00  0.00     0.075 A 
HETATM   31  N   UNL     1       3.092  29.490  50.835  1.00  0.00    -0.358 N 
HETATM   32  C   UNL     1       3.696  27.251  47.913  1.00  0.00     0.018 A 
HETATM   33  C   UNL     1       4.616  26.415  48.542  1.00  0.00     0.002 A 
HETATM   34  H   UNL     1       2.421  30.221  50.635  1.00  0.00     0.166 HD
HETATM   35  C   UNL     1       3.738  29.322  52.034  1.00  0.00     0.013 A 
HETATM   36  C   UNL     1       3.494  30.234  53.181  1.00  0.00     0.068 C 
BRANCH  30  37
HETATM   37  C   UNL     1       2.110  29.212  47.856  1.00  0.00     0.419 C 
HETATM   38  F   UNL     1       2.447  30.535  47.868  1.00  0.00    -0.166 F 
HETATM   39  F   UNL     1       1.979  28.876  46.542  1.00  0.00    -0.166 F 
HETATM   40  F   UNL     1       0.858  29.144  48.387  1.00  0.00    -0.166 F 
ENDBRANCH  30  37
ENDBRANCH  25  26
ENDBRANCH  24  25
ENDBRANCH  22  24
ENDBRANCH   1  22
TORSDOF 7
ENDMDL
MODEL 6
REMARK VINA RESULT:     -10.1      5.347      9.124
REMARK  7 active torsions:
REMARK  status: ('A' for Active; 'I' for Inactive)
REMARK    1  A    between atoms: C_5  and  N_6 
REMARK    2  A    between atoms: N_6  and  C_7 
REMARK    3  A    between atoms: C_7  and  N_8 
REMARK    4  A    between atoms: N_8  and  C_9 
REMARK    5  A    between atoms: C_9  and  C_10 
REMARK    6  A    between atoms: C_10  and  C_11 
REMARK    7  A    between atoms: C_14  and  C_15 
ROOT
HETATM    1  C   UNL     1       6.016  29.141  57.195  1.00  0.00     0.102 C 
HETATM    2  C   UNL     1       6.509  30.153  57.964  1.00  0.00     0.139 C 
HETATM    3  C   UNL     1       5.686  31.347  58.275  1.00  0.00     0.270 C 
HETATM    4  O   UNL     1       4.915  31.862  57.469  1.00  0.00    -0.267 OA
HETATM    5  N   UNL     1       5.925  31.881  59.527  1.00  0.00    -0.270 N 
HETATM    6  C   UNL     1       4.984  32.873  60.014  1.00  0.00     0.164 C 
HETATM    7  C   UNL     1       7.146  31.794  60.175  1.00  0.00     0.333 C 
HETATM    8  O   UNL     1       7.370  32.413  61.217  1.00  0.00    -0.246 OA
HETATM    9  N   UNL     1       8.109  30.993  59.578  1.00  0.00    -0.270 N 
HETATM   10  C   UNL     1       9.417  30.929  60.209  1.00  0.00     0.164 C 
HETATM   11  C   UNL     1       7.858  30.074  58.570  1.00  0.00     0.270 C 
HETATM   12  O   UNL     1       8.676  29.213  58.239  1.00  0.00    -0.267 OA
ENDROOT
BRANCH   1  13
HETATM   13  N   UNL     1       4.696  29.149  56.761  1.00  0.00    -0.245 NA
HETATM   14  H   UNL     1       4.186  29.886  57.242  1.00  0.00     0.135 HD
BRANCH  13  15
HETATM   15  C   UNL     1       4.313  29.138  55.392  1.00  0.00     0.014 A 
HETATM   16  C   UNL     1       4.190  27.967  54.635  1.00  0.00     0.024 A 
HETATM   17  C   UNL     1       3.779  28.014  53.299  1.00  0.00     0.008 A 
HETATM   18  C   UNL     1       3.450  29.233  52.699  1.00  0.00    -0.062 A 
HETATM   19  C   UNL     1       3.054  29.287  51.253  1.00  0.00     0.048 C 
HETATM   20  C   UNL     1       3.547  30.405  53.455  1.00  0.00     0.008 A 
HETATM   21  C   UNL     1       3.958  30.353  54.791  1.00  0.00     0.024 A 
ENDBRANCH  13  15
ENDBRANCH   1  13
BRANCH   1  22
HETATM   22  N   UNL     1       6.805  28.071  56.764  1.00  0.00    -0.379 N 
HETATM   23  H   UNL     1       7.809  28.283  56.844  1.00  0.00     0.160 HD
BRANCH  22  24
HETATM   24  C   UNL     1       6.519  26.669  57.071  1.00  0.00     0.125 C 
BRANCH  24  25
HETATM   25  C   UNL     1       7.810  25.844  57.061  1.00  0.00     0.061 C 
BRANCH  25  26
HETATM   26  C   UNL     1       7.829  24.848  55.939  1.00  0.00    -0.022 A 
HETATM   27  C   UNL     1       8.026  23.434  56.070  1.00  0.00    -0.000 A 
HETATM   28  C   UNL     1       7.999  22.884  54.790  1.00  0.00     0.058 A 
HETATM   29  C   UNL     1       8.234  22.577  57.169  1.00  0.00     0.014 A 
HETATM   30  C   UNL     1       8.173  21.507  54.535  1.00  0.00     0.075 A 
HETATM   31  N   UNL     1       7.778  23.926  53.914  1.00  0.00    -0.358 N 
HETATM   32  C   UNL     1       8.382  20.687  55.664  1.00  0.00     0.018 A 
HETATM   33  C   UNL     1       8.412  21.208  56.955  1.00  0.00     0.002 A 
HETATM   34  H   UNL     1       7.706  23.821  52.910  1.00  0.00     0.166 HD
HETATM   35  C   UNL     1       7.683  25.117  54.589  1.00  0.00     0.013 A 
HETATM   36  C   UNL     1       7.457  26.399  53.873  1.00  0.00     0.068 C 
BRANCH  30  37
HETATM   37  C   UNL     1       8.150  20.892  53.160  1.00  0.00     0.419 C 
HETATM   38  F   UNL     1       7.017  20.172  52.910  1.00  0.00    -0.166 F 
HETATM   39  F   UNL     1       8.223  21.821  52.166  1.00  0.00    -0.166 F 
HETATM   40  F   UNL     1       9.187  20.035  52.948  1.00  0.00    -0.166 F 
ENDBRANCH  30  37
ENDBRANCH  25  26
ENDBRANCH  24  25
ENDBRANCH  22  24
ENDBRANCH   1  22
TORSDOF 7
ENDMDL
MODEL 7
REMARK VINA RESULT:     -10.0      4.866      8.587
REMARK  7 active torsions:
REMARK  status: ('A' for Active; 'I' for Inactive)
REMARK    1  A    between atoms: C_5  and  N_6 
REMARK    2  A    between atoms: N_6  and  C_7 
REMARK    3  A    between atoms: C_7  and  N_8 
REMARK    4  A    between atoms: N_8  and  C_9 
REMARK    5  A    between atoms: C_9  and  C_10 
REMARK    6  A    between atoms: C_10  and  C_11 
REMARK    7  A    between atoms: C_14  and  C_15 
ROOT
HETATM    1  C   UNL     1       6.753  29.362  55.957  1.00  0.00     0.102 C 
HETATM    2  C   UNL     1       7.409  29.854  57.047  1.00  0.00     0.139 C 
HETATM    3  C   UNL     1       8.868  29.653  57.216  1.00  0.00     0.270 C 
HETATM    4  O   UNL     1       9.447  28.619  56.895  1.00  0.00    -0.267 OA
HETATM    5  N   UNL     1       9.510  30.705  57.843  1.00  0.00    -0.270 N 
HETATM    6  C   UNL     1      10.960  30.713  57.806  1.00  0.00     0.164 C 
HETATM    7  C   UNL     1       8.895  31.532  58.768  1.00  0.00     0.333 C 
HETATM    8  O   UNL     1       9.535  32.358  59.422  1.00  0.00    -0.246 OA
HETATM    9  N   UNL     1       7.528  31.367  58.936  1.00  0.00    -0.270 N 
HETATM   10  C   UNL     1       6.869  32.184  59.941  1.00  0.00     0.164 C 
HETATM   11  C   UNL     1       6.706  30.660  58.072  1.00  0.00     0.270 C 
HETATM   12  O   UNL     1       5.476  30.740  58.112  1.00  0.00    -0.267 OA
ENDROOT
BRANCH   1  13
HETATM   13  N   UNL     1       7.446  28.745  54.924  1.00  0.00    -0.245 NA
HETATM   14  H   UNL     1       8.408  29.077  54.915  1.00  0.00     0.135 HD
BRANCH  13  15
HETATM   15  C   UNL     1       7.438  27.342  54.693  1.00  0.00     0.014 A 
HETATM   16  C   UNL     1       6.909  26.414  55.598  1.00  0.00     0.024 A 
HETATM   17  C   UNL     1       6.901  25.047  55.304  1.00  0.00     0.008 A 
HETATM   18  C   UNL     1       7.393  24.580  54.080  1.00  0.00    -0.062 A 
HETATM   19  C   UNL     1       7.426  23.110  53.785  1.00  0.00     0.048 C 
HETATM   20  C   UNL     1       7.900  25.503  53.162  1.00  0.00     0.008 A 
HETATM   21  C   UNL     1       7.906  26.869  53.460  1.00  0.00     0.024 A 
ENDBRANCH  13  15
ENDBRANCH   1  13
BRANCH   1  22
HETATM   22  N   UNL     1       5.362  29.407  55.833  1.00  0.00    -0.379 N 
HETATM   23  H   UNL     1       4.900  29.450  56.752  1.00  0.00     0.160 HD
BRANCH  22  24
HETATM   24  C   UNL     1       4.656  30.208  54.831  1.00  0.00     0.125 C 
BRANCH  24  25
HETATM   25  C   UNL     1       3.531  29.390  54.189  1.00  0.00     0.061 C 
BRANCH  25  26
HETATM   26  C   UNL     1       3.759  29.181  52.722  1.00  0.00    -0.022 A 
HETATM   27  C   UNL     1       4.173  27.958  52.098  1.00  0.00    -0.000 A 
HETATM   28  C   UNL     1       4.290  28.200  50.731  1.00  0.00     0.058 A 
HETATM   29  C   UNL     1       4.467  26.669  52.583  1.00  0.00     0.014 A 
HETATM   30  C   UNL     1       4.694  27.217  49.802  1.00  0.00     0.075 A 
HETATM   31  N   UNL     1       3.944  29.520  50.530  1.00  0.00    -0.358 N 
HETATM   32  C   UNL     1       4.982  25.942  50.332  1.00  0.00     0.018 A 
HETATM   33  C   UNL     1       4.871  25.670  51.694  1.00  0.00     0.002 A 
HETATM   34  H   UNL     1       3.935  29.974  49.625  1.00  0.00     0.166 HD
HETATM   35  C   UNL     1       3.631  30.127  51.719  1.00  0.00     0.013 A 
HETATM   36  C   UNL     1       3.234  31.558  51.779  1.00  0.00     0.068 C 
BRANCH  30  37
HETATM   37  C   UNL     1       4.830  27.457  48.321  1.00  0.00     0.419 C 
HETATM   38  F   UNL     1       5.754  28.414  48.012  1.00  0.00    -0.166 F 
HETATM   39  F   UNL     1       5.213  26.342  47.640  1.00  0.00    -0.166 F 
HETATM   40  F   UNL     1       3.667  27.867  47.745  1.00  0.00    -0.166 F 
ENDBRANCH  30  37
ENDBRANCH  25  26
ENDBRANCH  24  25
ENDBRANCH  22  24
ENDBRANCH   1  22
TORSDOF 7
ENDMDL
MODEL 8
REMARK VINA RESULT:      -9.9      4.585      7.967
REMARK  7 active torsions:
REMARK  status: ('A' for Active; 'I' for Inactive)
REMARK    1  A    between atoms: C_5  and  N_6 
REMARK    2  A    between atoms: N_6  and  C_7 
REMARK    3  A    between atoms: C_7  and  N_8 
REMARK    4  A    between atoms: N_8  and  C_9 
REMARK    5  A    between atoms: C_9  and  C_10 
REMARK    6  A    between atoms: C_10  and  C_11 
REMARK    7  A    between atoms: C_14  and  C_15 
ROOT
HETATM    1  C   UNL     1       5.763  28.988  55.953  1.00  0.00     0.102 C 
HETATM    2  C   UNL     1       4.829  29.478  55.088  1.00  0.00     0.139 C 
HETATM    3  C   UNL     1       3.633  30.201  55.584  1.00  0.00     0.270 C 
HETATM    4  O   UNL     1       3.033  29.886  56.608  1.00  0.00    -0.267 OA
HETATM    5  N   UNL     1       3.203  31.213  54.747  1.00  0.00    -0.270 N 
HETATM    6  C   UNL     1       2.218  32.138  55.277  1.00  0.00     0.164 C 
HETATM    7  C   UNL     1       3.382  31.197  53.374  1.00  0.00     0.333 C 
HETATM    8  O   UNL     1       2.851  32.036  52.643  1.00  0.00    -0.246 OA
HETATM    9  N   UNL     1       4.170  30.175  52.863  1.00  0.00    -0.270 N 
HETATM   10  C   UNL     1       4.328  30.103  51.420  1.00  0.00     0.164 C 
HETATM   11  C   UNL     1       5.001  29.364  53.622  1.00  0.00     0.270 C 
HETATM   12  O   UNL     1       5.863  28.642  53.117  1.00  0.00    -0.267 OA
ENDROOT
BRANCH   1  13
HETATM   13  N   UNL     1       5.675  29.236  57.317  1.00  0.00    -0.245 NA
HETATM   14  H   UNL     1       5.527  28.360  57.812  1.00  0.00     0.135 HD
BRANCH  13  15
HETATM   15  C   UNL     1       6.610  30.025  58.040  1.00  0.00     0.014 A 
HETATM   16  C   UNL     1       6.350  31.333  58.466  1.00  0.00     0.024 A 
HETATM   17  C   UNL     1       7.298  32.052  59.201  1.00  0.00     0.008 A 
HETATM   18  C   UNL     1       8.517  31.465  59.555  1.00  0.00    -0.062 A 
HETATM   19  C   UNL     1       9.551  32.253  60.303  1.00  0.00     0.048 C 
HETATM   20  C   UNL     1       8.775  30.152  59.153  1.00  0.00     0.008 A 
HETATM   21  C   UNL     1       7.824  29.437  58.419  1.00  0.00     0.024 A 
ENDBRANCH  13  15
ENDBRANCH   1  13
BRANCH   1  22
HETATM   22  N   UNL     1       6.824  28.181  55.535  1.00  0.00    -0.379 N 
HETATM   23  H   UNL     1       7.701  28.716  55.459  1.00  0.00     0.160 HD
BRANCH  22  24
HETATM   24  C   UNL     1       7.057  26.820  56.020  1.00  0.00     0.125 C 
BRANCH  24  25
HETATM   25  C   UNL     1       5.922  25.892  55.575  1.00  0.00     0.061 C 
BRANCH  25  26
HETATM   26  C   UNL     1       6.437  24.686  54.847  1.00  0.00    -0.022 A 
HETATM   27  C   UNL     1       7.198  23.615  55.421  1.00  0.00    -0.000 A 
HETATM   28  C   UNL     1       7.496  22.714  54.401  1.00  0.00     0.058 A 
HETATM   29  C   UNL     1       7.666  23.341  56.722  1.00  0.00     0.014 A 
HETATM   30  C   UNL     1       8.249  21.538  54.602  1.00  0.00     0.075 A 
HETATM   31  N   UNL     1       6.923  23.214  53.250  1.00  0.00    -0.358 N 
HETATM   32  C   UNL     1       8.700  21.305  55.918  1.00  0.00     0.018 A 
HETATM   33  C   UNL     1       8.416  22.186  56.959  1.00  0.00     0.002 A 
HETATM   34  H   UNL     1       6.975  22.762  52.346  1.00  0.00     0.166 HD
HETATM   35  C   UNL     1       6.290  24.405  53.499  1.00  0.00     0.013 A 
HETATM   36  C   UNL     1       5.600  25.159  52.420  1.00  0.00     0.068 C 
BRANCH  30  37
HETATM   37  C   UNL     1       8.585  20.552  53.513  1.00  0.00     0.419 C 
HETATM   38  F   UNL     1       9.197  19.424  53.977  1.00  0.00    -0.166 F 
HETATM   39  F   UNL     1       7.485  20.122  52.834  1.00  0.00    -0.166 F 
HETATM   40  F   UNL     1       9.425  21.070  52.575  1.00  0.00    -0.166 F 
ENDBRANCH  30  37
ENDBRANCH  25  26
ENDBRANCH  24  25
ENDBRANCH  22  24
ENDBRANCH   1  22
TORSDOF 7
ENDMDL
MODEL 9
REMARK VINA RESULT:      -9.9      1.202      2.193
REMARK  7 active torsions:
REMARK  status: ('A' for Active; 'I' for Inactive)
REMARK    1  A    between atoms: C_5  and  N_6 
REMARK    2  A    between atoms: N_6  and  C_7 
REMARK    3  A    between atoms: C_7  and  N_8 
REMARK    4  A    between atoms: N_8  and  C_9 
REMARK    5  A    between atoms: C_9  and  C_10 
REMARK    6  A    between atoms: C_10  and  C_11 
REMARK    7  A    between atoms: C_14  and  C_15 
ROOT
HETATM    1  C   UNL     1       5.096  28.066  51.554  1.00  0.00     0.102 C 
HETATM    2  C   UNL     1       4.996  28.469  50.254  1.00  0.00     0.139 C 
HETATM    3  C   UNL     1       4.587  27.521  49.190  1.00  0.00     0.270 C 
HETATM    4  O   UNL     1       4.935  26.343  49.167  1.00  0.00    -0.267 OA
HETATM    5  N   UNL     1       3.845  28.101  48.178  1.00  0.00    -0.270 N 
HETATM    6  C   UNL     1       3.180  27.207  47.248  1.00  0.00     0.164 C 
HETATM    7  C   UNL     1       3.973  29.427  47.800  1.00  0.00     0.333 C 
HETATM    8  O   UNL     1       3.412  29.870  46.796  1.00  0.00    -0.246 OA
HETATM    9  N   UNL     1       4.784  30.223  48.597  1.00  0.00    -0.270 N 
HETATM   10  C   UNL     1       4.980  31.605  48.190  1.00  0.00     0.164 C 
HETATM   11  C   UNL     1       5.230  29.878  49.863  1.00  0.00     0.270 C 
HETATM   12  O   UNL     1       5.734  30.697  50.635  1.00  0.00    -0.267 OA
ENDROOT
BRANCH   1  13
HETATM   13  N   UNL     1       4.722  26.785  51.936  1.00  0.00    -0.245 NA
HETATM   14  H   UNL     1       4.213  26.339  51.176  1.00  0.00     0.135 HD
BRANCH  13  15
HETATM   15  C   UNL     1       5.613  25.839  52.513  1.00  0.00     0.014 A 
HETATM   16  C   UNL     1       5.345  25.153  53.704  1.00  0.00     0.024 A 
HETATM   17  C   UNL     1       6.247  24.211  54.210  1.00  0.00     0.008 A 
HETATM   18  C   UNL     1       7.423  23.910  53.517  1.00  0.00    -0.062 A 
HETATM   19  C   UNL     1       8.411  22.933  54.084  1.00  0.00     0.048 C 
HETATM   20  C   UNL     1       7.687  24.573  52.315  1.00  0.00     0.008 A 
HETATM   21  C   UNL     1       6.782  25.514  51.813  1.00  0.00     0.024 A 
ENDBRANCH  13  15
ENDBRANCH   1  13
BRANCH   1  22
HETATM   22  N   UNL     1       5.613  28.889  52.557  1.00  0.00    -0.379 N 
HETATM   23  H   UNL     1       6.329  29.531  52.192  1.00  0.00     0.160 HD
BRANCH  22  24
HETATM   24  C   UNL     1       4.798  29.519  53.598  1.00  0.00     0.125 C 
BRANCH  24  25
HETATM   25  C   UNL     1       4.833  28.684  54.883  1.00  0.00     0.061 C 
BRANCH  25  26
HETATM   26  C   UNL     1       5.924  29.130  55.811  1.00  0.00    -0.022 A 
HETATM   27  C   UNL     1       5.815  30.149  56.813  1.00  0.00    -0.000 A 
HETATM   28  C   UNL     1       7.058  30.268  57.431  1.00  0.00     0.058 A 
HETATM   29  C   UNL     1       4.765  30.987  57.240  1.00  0.00     0.014 A 
HETATM   30  C   UNL     1       7.323  31.192  58.465  1.00  0.00     0.075 A 
HETATM   31  N   UNL     1       7.888  29.343  56.834  1.00  0.00    -0.358 N 
HETATM   32  C   UNL     1       6.246  32.012  58.858  1.00  0.00     0.018 A 
HETATM   33  C   UNL     1       4.991  31.914  58.260  1.00  0.00     0.002 A 
HETATM   34  H   UNL     1       8.858  29.202  57.087  1.00  0.00     0.166 HD
HETATM   35  C   UNL     1       7.224  28.656  55.851  1.00  0.00     0.013 A 
HETATM   36  C   UNL     1       7.900  27.606  55.045  1.00  0.00     0.068 C 
BRANCH  30  37
HETATM   37  C   UNL     1       8.660  31.339  59.144  1.00  0.00     0.419 C 
HETATM   38  F   UNL     1       9.073  30.201  59.775  1.00  0.00    -0.166 F 
HETATM   39  F   UNL     1       9.659  31.664  58.277  1.00  0.00    -0.166 F 
HETATM   40  F   UNL     1       8.662  32.312  60.098  1.00  0.00    -0.166 F 
ENDBRANCH  30  37
ENDBRANCH  25  26
ENDBRANCH  24  25
ENDBRANCH  22  24
ENDBRANCH   1  22
TORSDOF 7
ENDMDL
MODEL 10
REMARK VINA RESULT:      -9.9      4.990      8.697
REMARK  7 active torsions:
REMARK  status: ('A' for Active; 'I' for Inactive)
REMARK    1  A    between atoms: C_5  and  N_6 
REMARK    2  A    between atoms: N_6  and  C_7 
REMARK    3  A    between atoms: C_7  and  N_8 
REMARK    4  A    between atoms: N_8  and  C_9 
REMARK    5  A    between atoms: C_9  and  C_10 
REMARK    6  A    between atoms: C_10  and  C_11 
REMARK    7  A    between atoms: C_14  and  C_15 
ROOT
HETATM    1  C   UNL     1       6.959  29.079  55.785  1.00  0.00     0.102 C 
HETATM    2  C   UNL     1       7.530  29.632  56.893  1.00  0.00     0.139 C 
HETATM    3  C   UNL     1       8.990  29.529  57.132  1.00  0.00     0.270 C 
HETATM    4  O   UNL     1       9.648  28.529  56.859  1.00  0.00    -0.267 OA
HETATM    5  N   UNL     1       9.532  30.631  57.766  1.00  0.00    -0.270 N 
HETATM    6  C   UNL     1      10.980  30.732  57.794  1.00  0.00     0.164 C 
HETATM    7  C   UNL     1       8.824  31.433  58.645  1.00  0.00     0.333 C 
HETATM    8  O   UNL     1       9.378  32.310  59.310  1.00  0.00    -0.246 OA
HETATM    9  N   UNL     1       7.463  31.182  58.754  1.00  0.00    -0.270 N 
HETATM   10  C   UNL     1       6.707  31.973  59.710  1.00  0.00     0.164 C 
HETATM   11  C   UNL     1       6.730  30.408  57.868  1.00  0.00     0.270 C 
HETATM   12  O   UNL     1       5.497  30.409  57.850  1.00  0.00    -0.267 OA
ENDROOT
BRANCH   1  13
HETATM   13  N   UNL     1       7.737  28.490  54.797  1.00  0.00    -0.245 NA
HETATM   14  H   UNL     1       8.699  28.807  54.889  1.00  0.00     0.135 HD
BRANCH  13  15
HETATM   15  C   UNL     1       7.733  27.097  54.512  1.00  0.00     0.014 A 
HETATM   16  C   UNL     1       7.456  26.114  55.470  1.00  0.00     0.024 A 
HETATM   17  C   UNL     1       7.437  24.759  55.125  1.00  0.00     0.008 A 
HETATM   18  C   UNL     1       7.663  24.358  53.804  1.00  0.00    -0.062 A 
HETATM   19  C   UNL     1       7.688  22.902  53.445  1.00  0.00     0.048 C 
HETATM   20  C   UNL     1       7.917  25.335  52.838  1.00  0.00     0.008 A 
HETATM   21  C   UNL     1       7.935  26.689  53.187  1.00  0.00     0.024 A 
ENDBRANCH  13  15
ENDBRANCH   1  13
BRANCH   1  22
HETATM   22  N   UNL     1       5.575  29.032  55.597  1.00  0.00    -0.379 N 
HETATM   23  H   UNL     1       5.068  29.422  56.404  1.00  0.00     0.160 HD
BRANCH  22  24
HETATM   24  C   UNL     1       4.910  29.348  54.332  1.00  0.00     0.125 C 
BRANCH  24  25
HETATM   25  C   UNL     1       3.974  28.208  53.919  1.00  0.00     0.061 C 
BRANCH  25  26
HETATM   26  C   UNL     1       4.226  27.758  52.510  1.00  0.00    -0.022 A 
HETATM   27  C   UNL     1       4.274  28.600  51.351  1.00  0.00    -0.000 A 
HETATM   28  C   UNL     1       4.506  27.785  50.246  1.00  0.00     0.058 A 
HETATM   29  C   UNL     1       4.129  29.988  51.149  1.00  0.00     0.014 A 
HETATM   30  C   UNL     1       4.601  28.278  48.927  1.00  0.00     0.075 A 
HETATM   31  N   UNL     1       4.611  26.494  50.719  1.00  0.00    -0.358 N 
HETATM   32  C   UNL     1       4.446  29.671  48.770  1.00  0.00     0.018 A 
HETATM   33  C   UNL     1       4.216  30.511  49.857  1.00  0.00     0.002 A 
HETATM   34  H   UNL     1       4.785  25.686  50.135  1.00  0.00     0.166 HD
HETATM   35  C   UNL     1       4.436  26.459  52.079  1.00  0.00     0.013 A 
HETATM   36  C   UNL     1       4.490  25.181  52.836  1.00  0.00     0.068 C 
BRANCH  30  37
HETATM   37  C   UNL     1       4.848  27.414  47.717  1.00  0.00     0.419 C 
HETATM   38  F   UNL     1       3.733  27.221  46.954  1.00  0.00    -0.166 F 
HETATM   39  F   UNL     1       5.783  27.941  46.877  1.00  0.00    -0.166 F 
HETATM   40  F   UNL     1       5.295  26.169  48.041  1.00  0.00    -0.166 F 
ENDBRANCH  30  37
ENDBRANCH  25  26
ENDBRANCH  24  25
ENDBRANCH  22  24
ENDBRANCH   1  22
TORSDOF 7
ENDMDL
