MODEL 1
REMARK VINA RESULT:      -8.7      0.000      0.000
REMARK  5 active torsions:
REMARK  status: ('A' for Active; 'I' for Inactive)
REMARK    1  A    between atoms: C_8  and  N_9 
REMARK    2  A    between atoms: N_9  and  C_10 
REMARK    3  A    between atoms: C_10  and  C_11 
REMARK    4  A    between atoms: C_11  and  N_12 
REMARK       I    between atoms: N_12  and  C_13 
REMARK    5  A    between atoms: C_13  and  C_14 
ROOT
HETATM    1  C   UNL     1       8.071  20.716  52.986  1.00  0.00     0.048 C 
HETATM    2  C   UNL     1       7.973  21.959  53.824  1.00  0.00    -0.061 A 
HETATM    3  C   UNL     1       7.817  23.216  53.223  1.00  0.00     0.020 A 
HETATM    4  C   UNL     1       7.701  24.377  54.005  1.00  0.00    -0.008 A 
HETATM    5  C   UNL     1       7.733  24.263  55.407  1.00  0.00     0.043 A 
HETATM    6  N   UNL     1       7.631  25.372  56.157  1.00  0.00    -0.346 N 
HETATM    7  H   UNL     1       7.646  25.250  57.163  1.00  0.00     0.167 HD
HETATM    8  C   UNL     1       7.515  26.619  55.668  1.00  0.00     0.086 A 
HETATM    9  C   UNL     1       7.431  26.777  54.271  1.00  0.00    -0.023 A 
HETATM   10  C   UNL     1       7.264  28.128  53.629  1.00  0.00     0.052 C 
HETATM   11  C   UNL     1       7.549  25.649  53.447  1.00  0.00     0.023 A 
HETATM   12  C   UNL     1       7.871  23.007  56.010  1.00  0.00     0.031 A 
HETATM   13  C   UNL     1       7.988  21.863  55.221  1.00  0.00     0.009 A 
ENDROOT
BRANCH   8  14
HETATM   14  N   UNL     1       7.393  27.719  56.525  1.00  0.00    -0.277 NA
HETATM   15  H   UNL     1       6.973  28.515  56.042  1.00  0.00     0.129 HD
BRANCH  14  16
HETATM   16  C   UNL     1       8.544  28.101  57.342  1.00  0.00     0.113 C 
BRANCH  16  17
HETATM   17  C   UNL     1       8.858  29.602  57.279  1.00  0.00     0.137 C 
BRANCH  17  18
HETATM   18  N   UNL     1       8.672  30.345  58.523  1.00  0.00    -0.360 N 
HETATM   19  C   UNL     1       9.403  31.449  58.919  1.00  0.00     0.221 C 
HETATM   20  O   UNL     1      10.241  31.991  58.202  1.00  0.00    -0.273 OA
HETATM   21  H   UNL     1       8.018  29.952  59.191  1.00  0.00     0.162 HD
BRANCH  19  22
HETATM   22  C   UNL     1       9.065  31.941  60.326  1.00  0.00     0.070 C 
HETATM   23  C   UNL     1       7.595  32.344  60.412  1.00  0.00     0.019 C 
HETATM   24  C   UNL     1       9.382  30.869  61.368  1.00  0.00     0.019 C 
ENDBRANCH  19  22
ENDBRANCH  17  18
ENDBRANCH  16  17
ENDBRANCH  14  16
ENDBRANCH   8  14
TORSDOF 5
ENDMDL
MODEL 2
REMARK VINA RESULT:      -8.5      3.036      4.035
REMARK  5 active torsions:
REMARK  status: ('A' for Active; 'I' for Inactive)
REMARK    1  A    between atoms: C_8  and  N_9 
REMARK    2  A    between atoms: N_9  and  C_10 
REMARK    3  A    between atoms: C_10  and  C_11 
REMARK    4  A    between atoms: C_11  and  N_12 
REMARK       I    between atoms: N_12  and  C_13 
REMARK    5  A    between atoms: C_13  and  C_14 
ROOT
HETATM    1  C   UNL     1       9.251  21.852  54.036  1.00  0.00     0.048 C 
HETATM    2  C   UNL     1       8.174  22.900  54.060  1.00  0.00    -0.061 A 
HETATM    3  C   UNL     1       7.770  23.538  52.879  1.00  0.00     0.020 A 
HETATM    4  C   UNL     1       6.747  24.500  52.897  1.00  0.00    -0.008 A 
HETATM    5  C   UNL     1       6.122  24.811  54.118  1.00  0.00     0.043 A 
HETATM    6  N   UNL     1       5.149  25.737  54.139  1.00  0.00    -0.346 N 
HETATM    7  H   UNL     1       4.714  25.926  55.034  1.00  0.00     0.167 HD
HETATM    8  C   UNL     1       4.722  26.424  53.064  1.00  0.00     0.086 A 
HETATM    9  C   UNL     1       5.287  26.111  51.812  1.00  0.00    -0.023 A 
HETATM   10  C   UNL     1       4.850  26.799  50.546  1.00  0.00     0.052 C 
HETATM   11  C   UNL     1       6.316  25.163  51.744  1.00  0.00     0.023 A 
HETATM   12  C   UNL     1       6.511  24.163  55.296  1.00  0.00     0.031 A 
HETATM   13  C   UNL     1       7.531  23.211  55.264  1.00  0.00     0.009 A 
ENDROOT
BRANCH   8  14
HETATM   14  N   UNL     1       3.687  27.358  53.173  1.00  0.00    -0.277 NA
HETATM   15  H   UNL     1       3.334  27.623  52.252  1.00  0.00     0.129 HD
BRANCH  14  16
HETATM   16  C   UNL     1       3.872  28.509  54.056  1.00  0.00     0.113 C 
BRANCH  16  17
HETATM   17  C   UNL     1       5.203  29.237  53.829  1.00  0.00     0.137 C 
BRANCH  17  18
HETATM   18  N   UNL     1       6.131  29.237  54.957  1.00  0.00    -0.360 N 
HETATM   19  C   UNL     1       7.298  28.502  55.042  1.00  0.00     0.221 C 
HETATM   20  O   UNL     1       7.735  27.828  54.111  1.00  0.00    -0.273 OA
HETATM   21  H   UNL     1       5.837  29.745  55.784  1.00  0.00     0.162 HD
BRANCH  19  22
HETATM   22  C   UNL     1       8.001  28.611  56.395  1.00  0.00     0.070 C 
HETATM   23  C   UNL     1       8.233  27.224  56.990  1.00  0.00     0.019 C 
HETATM   24  C   UNL     1       9.328  29.358  56.259  1.00  0.00     0.019 C 
ENDBRANCH  19  22
ENDBRANCH  17  18
ENDBRANCH  16  17
ENDBRANCH  14  16
ENDBRANCH   8  14
TORSDOF 5
ENDMDL
MODEL 3
REMARK VINA RESULT:      -8.3      5.182      8.295
REMARK  5 active torsions:
REMARK  status: ('A' for Active; 'I' for Inactive)
REMARK    1  A    between atoms: C_8  and  N_9 
REMARK    2  A    between atoms: N_9  and  C_10 
REMARK    3  A    between atoms: C_10  and  C_11 
REMARK    4  A    between atoms: C_11  and  N_12 
REMARK       I    between atoms: N_12  and  C_13 
REMARK    5  A    between atoms: C_13  and  C_14 
ROOT
HETATM    1  C   UNL     1       8.974  20.493  56.268  1.00  0.00     0.048 C 
HETATM    2  C   UNL     1       8.301  21.519  55.401  1.00  0.00    -0.061 A 
HETATM    3  C   UNL     1       7.731  22.669  55.966  1.00  0.00     0.020 A 
HETATM    4  C   UNL     1       7.122  23.641  55.154  1.00  0.00    -0.008 A 
HETATM    5  C   UNL     1       7.099  23.451  53.760  1.00  0.00     0.043 A 
HETATM    6  N   UNL     1       6.510  24.375  52.983  1.00  0.00    -0.346 N 
HETATM    7  H   UNL     1       6.523  24.210  51.984  1.00  0.00     0.167 HD
HETATM    8  C   UNL     1       5.908  25.488  53.439  1.00  0.00     0.086 A 
HETATM    9  C   UNL     1       5.949  25.743  54.823  1.00  0.00    -0.023 A 
HETATM   10  C   UNL     1       5.336  26.979  55.425  1.00  0.00     0.052 C 
HETATM   11  C   UNL     1       6.539  24.799  55.675  1.00  0.00     0.023 A 
HETATM   12  C   UNL     1       7.682  22.312  53.193  1.00  0.00     0.031 A 
HETATM   13  C   UNL     1       8.281  21.354  54.012  1.00  0.00     0.009 A 
ENDROOT
BRANCH   8  14
HETATM   14  N   UNL     1       5.336  26.408  52.554  1.00  0.00    -0.277 NA
HETATM   15  H   UNL     1       4.317  26.399  52.624  1.00  0.00     0.129 HD
BRANCH  14  16
HETATM   16  C   UNL     1       5.803  26.432  51.168  1.00  0.00     0.113 C 
BRANCH  16  17
HETATM   17  C   UNL     1       4.910  27.270  50.244  1.00  0.00     0.137 C 
BRANCH  17  18
HETATM   18  N   UNL     1       4.049  26.518  49.334  1.00  0.00    -0.360 N 
HETATM   19  C   UNL     1       4.231  26.393  47.970  1.00  0.00     0.221 C 
HETATM   20  O   UNL     1       5.217  26.833  47.383  1.00  0.00    -0.273 OA
HETATM   21  H   UNL     1       3.194  26.143  49.728  1.00  0.00     0.162 HD
BRANCH  19  22
HETATM   22  C   UNL     1       3.101  25.648  47.261  1.00  0.00     0.070 C 
HETATM   23  C   UNL     1       2.803  24.329  47.972  1.00  0.00     0.019 C 
HETATM   24  C   UNL     1       1.840  26.509  47.193  1.00  0.00     0.019 C 
ENDBRANCH  19  22
ENDBRANCH  17  18
ENDBRANCH  16  17
ENDBRANCH  14  16
ENDBRANCH   8  14
TORSDOF 5
ENDMDL
MODEL 4
REMARK VINA RESULT:      -8.3      1.924      2.658
REMARK  5 active torsions:
REMARK  status: ('A' for Active; 'I' for Inactive)
REMARK    1  A    between atoms: C_8  and  N_9 
REMARK    2  A    between atoms: N_9  and  C_10 
REMARK    3  A    between atoms: C_10  and  C_11 
REMARK    4  A    between atoms: C_11  and  N_12 
REMARK       I    between atoms: N_12  and  C_13 
REMARK    5  A    between atoms: C_13  and  C_14 
ROOT
HETATM    1  C   UNL     1       8.878  20.198  53.735  1.00  0.00     0.048 C 
HETATM    2  C   UNL     1       8.549  21.637  54.016  1.00  0.00    -0.061 A 
HETATM    3  C   UNL     1       7.869  22.413  53.066  1.00  0.00     0.020 A 
HETATM    4  C   UNL     1       7.540  23.752  53.336  1.00  0.00    -0.008 A 
HETATM    5  C   UNL     1       7.893  24.305  54.581  1.00  0.00     0.043 A 
HETATM    6  N   UNL     1       7.586  25.587  54.838  1.00  0.00    -0.346 N 
HETATM    7  H   UNL     1       7.845  25.948  55.749  1.00  0.00     0.167 HD
HETATM    8  C   UNL     1       6.969  26.415  53.976  1.00  0.00     0.086 A 
HETATM    9  C   UNL     1       6.555  25.891  52.736  1.00  0.00    -0.023 A 
HETATM   10  C   UNL     1       5.826  26.728  51.720  1.00  0.00     0.052 C 
HETATM   11  C   UNL     1       6.867  24.562  52.417  1.00  0.00     0.023 A 
HETATM   12  C   UNL     1       8.556  23.528  55.537  1.00  0.00     0.031 A 
HETATM   13  C   UNL     1       8.879  22.200  55.254  1.00  0.00     0.009 A 
ENDROOT
BRANCH   8  14
HETATM   14  N   UNL     1       6.670  27.734  54.336  1.00  0.00    -0.277 NA
HETATM   15  H   UNL     1       7.522  28.290  54.430  1.00  0.00     0.129 HD
BRANCH  14  16
HETATM   16  C   UNL     1       5.724  27.965  55.427  1.00  0.00     0.113 C 
BRANCH  16  17
HETATM   17  C   UNL     1       6.097  29.166  56.305  1.00  0.00     0.137 C 
BRANCH  17  18
HETATM   18  N   UNL     1       7.526  29.425  56.460  1.00  0.00    -0.360 N 
HETATM   19  C   UNL     1       8.356  28.836  57.395  1.00  0.00     0.221 C 
HETATM   20  O   UNL     1       7.986  27.938  58.148  1.00  0.00    -0.273 OA
HETATM   21  H   UNL     1       7.913  30.174  55.897  1.00  0.00     0.162 HD
BRANCH  19  22
HETATM   22  C   UNL     1       9.778  29.395  57.399  1.00  0.00     0.070 C 
HETATM   23  C   UNL     1      10.236  29.699  55.974  1.00  0.00     0.019 C 
HETATM   24  C   UNL     1       9.866  30.653  58.263  1.00  0.00     0.019 C 
ENDBRANCH  19  22
ENDBRANCH  17  18
ENDBRANCH  16  17
ENDBRANCH  14  16
ENDBRANCH   8  14
TORSDOF 5
ENDMDL
MODEL 5
REMARK VINA RESULT:      -8.0      3.984      6.915
REMARK  5 active torsions:
REMARK  status: ('A' for Active; 'I' for Inactive)
REMARK    1  A    between atoms: C_8  and  N_9 
REMARK    2  A    between atoms: N_9  and  C_10 
REMARK    3  A    between atoms: C_10  and  C_11 
REMARK    4  A    between atoms: C_11  and  N_12 
REMARK       I    between atoms: N_12  and  C_13 
REMARK    5  A    between atoms: C_13  and  C_14 
ROOT
HETATM    1  C   UNL     1       8.184  20.414  55.124  1.00  0.00     0.048 C 
HETATM    2  C   UNL     1       7.972  21.816  54.627  1.00  0.00    -0.061 A 
HETATM    3  C   UNL     1       7.711  22.861  55.524  1.00  0.00     0.020 A 
HETATM    4  C   UNL     1       7.536  24.177  55.063  1.00  0.00    -0.008 A 
HETATM    5  C   UNL     1       7.636  24.437  53.684  1.00  0.00     0.043 A 
HETATM    6  N   UNL     1       7.461  25.692  53.240  1.00  0.00    -0.346 N 
HETATM    7  H   UNL     1       7.552  25.844  52.243  1.00  0.00     0.167 HD
HETATM    8  C   UNL     1       7.173  26.748  54.022  1.00  0.00     0.086 A 
HETATM    9  C   UNL     1       7.110  26.543  55.414  1.00  0.00    -0.023 A 
HETATM   10  C   UNL     1       6.830  27.668  56.374  1.00  0.00     0.052 C 
HETATM   11  C   UNL     1       7.270  25.247  55.922  1.00  0.00     0.023 A 
HETATM   12  C   UNL     1       7.913  23.398  52.788  1.00  0.00     0.031 A 
HETATM   13  C   UNL     1       8.082  22.096  53.260  1.00  0.00     0.009 A 
ENDROOT
BRANCH   8  14
HETATM   14  N   UNL     1       7.027  28.028  53.476  1.00  0.00    -0.277 NA
HETATM   15  H   UNL     1       7.649  28.695  53.935  1.00  0.00     0.129 HD
BRANCH  14  16
HETATM   16  C   UNL     1       5.677  28.558  53.284  1.00  0.00     0.113 C 
BRANCH  16  17
HETATM   17  C   UNL     1       4.668  27.493  52.836  1.00  0.00     0.137 C 
BRANCH  17  18
HETATM   18  N   UNL     1       4.373  27.453  51.406  1.00  0.00    -0.360 N 
HETATM   19  C   UNL     1       4.955  26.603  50.486  1.00  0.00     0.221 C 
HETATM   20  O   UNL     1       5.730  25.703  50.802  1.00  0.00    -0.273 OA
HETATM   21  H   UNL     1       3.763  28.181  51.050  1.00  0.00     0.162 HD
BRANCH  19  22
HETATM   22  C   UNL     1       4.538  26.876  49.041  1.00  0.00     0.070 C 
HETATM   23  C   UNL     1       3.551  25.814  48.561  1.00  0.00     0.019 C 
HETATM   24  C   UNL     1       3.924  28.269  48.906  1.00  0.00     0.019 C 
ENDBRANCH  19  22
ENDBRANCH  17  18
ENDBRANCH  16  17
ENDBRANCH  14  16
ENDBRANCH   8  14
TORSDOF 5
ENDMDL
MODEL 6
REMARK VINA RESULT:      -8.0      3.105      4.093
REMARK  5 active torsions:
REMARK  status: ('A' for Active; 'I' for Inactive)
REMARK    1  A    between atoms: C_8  and  N_9 
REMARK    2  A    between atoms: N_9  and  C_10 
REMARK    3  A    between atoms: C_10  and  C_11 
REMARK    4  A    between atoms: C_11  and  N_12 
REMARK       I    between atoms: N_12  and  C_13 
REMARK    5  A    between atoms: C_13  and  C_14 
ROOT
HETATM    1  C   UNL     1       9.463  20.349  55.558  1.00  0.00     0.048 C 
HETATM    2  C   UNL     1       8.606  21.489  55.082  1.00  0.00    -0.061 A 
HETATM    3  C   UNL     1       7.952  22.323  56.000  1.00  0.00     0.020 A 
HETATM    4  C   UNL     1       7.170  23.402  55.557  1.00  0.00    -0.008 A 
HETATM    5  C   UNL     1       7.058  23.645  54.175  1.00  0.00     0.043 A 
HETATM    6  N   UNL     1       6.304  24.672  53.750  1.00  0.00    -0.346 N 
HETATM    7  H   UNL     1       6.257  24.823  52.749  1.00  0.00     0.167 HD
HETATM    8  C   UNL     1       5.614  25.500  54.554  1.00  0.00     0.086 A 
HETATM    9  C   UNL     1       5.734  25.324  55.946  1.00  0.00    -0.023 A 
HETATM   10  C   UNL     1       5.030  26.222  56.927  1.00  0.00     0.052 C 
HETATM   11  C   UNL     1       6.498  24.256  56.436  1.00  0.00     0.023 A 
HETATM   12  C   UNL     1       7.724  22.824  53.258  1.00  0.00     0.031 A 
HETATM   13  C   UNL     1       8.496  21.754  53.712  1.00  0.00     0.009 A 
ENDROOT
BRANCH   8  14
HETATM   14  N   UNL     1       4.868  26.559  54.024  1.00  0.00    -0.277 NA
HETATM   15  H   UNL     1       3.869  26.346  54.035  1.00  0.00     0.129 HD
BRANCH  14  16
HETATM   16  C   UNL     1       5.301  27.158  52.762  1.00  0.00     0.113 C 
BRANCH  16  17
HETATM   17  C   UNL     1       6.025  28.498  52.946  1.00  0.00     0.137 C 
BRANCH  17  18
HETATM   18  N   UNL     1       7.062  28.528  53.975  1.00  0.00    -0.360 N 
HETATM   19  C   UNL     1       6.896  28.962  55.276  1.00  0.00     0.221 C 
HETATM   20  O   UNL     1       5.805  29.285  55.740  1.00  0.00    -0.273 OA
HETATM   21  H   UNL     1       8.004  28.304  53.673  1.00  0.00     0.162 HD
BRANCH  19  22
HETATM   22  C   UNL     1       8.190  28.992  56.088  1.00  0.00     0.070 C 
HETATM   23  C   UNL     1       8.340  27.709  56.902  1.00  0.00     0.019 C 
HETATM   24  C   UNL     1       9.401  29.184  55.175  1.00  0.00     0.019 C 
ENDBRANCH  19  22
ENDBRANCH  17  18
ENDBRANCH  16  17
ENDBRANCH  14  16
ENDBRANCH   8  14
TORSDOF 5
ENDMDL
MODEL 7
REMARK VINA RESULT:      -7.8      3.590     10.502
REMARK  5 active torsions:
REMARK  status: ('A' for Active; 'I' for Inactive)
REMARK    1  A    between atoms: C_8  and  N_9 
REMARK    2  A    between atoms: N_9  and  C_10 
REMARK    3  A    between atoms: C_10  and  C_11 
REMARK    4  A    between atoms: C_11  and  N_12 
REMARK       I    between atoms: N_12  and  C_13 
REMARK    5  A    between atoms: C_13  and  C_14 
ROOT
HETATM    1  C   UNL     1       5.711  34.436  67.138  1.00  0.00     0.048 C 
HETATM    2  C   UNL     1       5.805  33.831  65.766  1.00  0.00    -0.061 A 
HETATM    3  C   UNL     1       7.053  33.551  65.192  1.00  0.00     0.020 A 
HETATM    4  C   UNL     1       7.142  32.964  63.919  1.00  0.00    -0.008 A 
HETATM    5  C   UNL     1       5.959  32.649  63.227  1.00  0.00     0.043 A 
HETATM    6  N   UNL     1       6.042  32.094  62.007  1.00  0.00    -0.346 N 
HETATM    7  H   UNL     1       5.169  31.871  61.543  1.00  0.00     0.167 HD
HETATM    8  C   UNL     1       7.192  31.824  61.365  1.00  0.00     0.086 A 
HETATM    9  C   UNL     1       8.402  32.079  62.039  1.00  0.00    -0.023 A 
HETATM   10  C   UNL     1       9.740  31.777  61.419  1.00  0.00     0.052 C 
HETATM   11  C   UNL     1       8.365  32.672  63.309  1.00  0.00     0.023 A 
HETATM   12  C   UNL     1       4.711  32.912  63.805  1.00  0.00     0.031 A 
HETATM   13  C   UNL     1       4.638  33.497  65.069  1.00  0.00     0.009 A 
ENDROOT
BRANCH   8  14
HETATM   14  N   UNL     1       7.186  31.226  60.100  1.00  0.00    -0.277 NA
HETATM   15  H   UNL     1       8.102  31.303  59.654  1.00  0.00     0.129 HD
BRANCH  14  16
HETATM   16  C   UNL     1       6.088  31.535  59.184  1.00  0.00     0.113 C 
BRANCH  16  17
HETATM   17  C   UNL     1       6.305  30.977  57.771  1.00  0.00     0.137 C 
BRANCH  17  18
HETATM   18  N   UNL     1       6.269  29.522  57.646  1.00  0.00    -0.360 N 
HETATM   19  C   UNL     1       7.312  28.663  57.928  1.00  0.00     0.221 C 
HETATM   20  O   UNL     1       8.376  29.037  58.418  1.00  0.00    -0.273 OA
HETATM   21  H   UNL     1       5.437  29.126  57.222  1.00  0.00     0.162 HD
BRANCH  19  22
HETATM   22  C   UNL     1       7.021  27.202  57.585  1.00  0.00     0.070 C 
HETATM   23  C   UNL     1       5.954  27.112  56.496  1.00  0.00     0.019 C 
HETATM   24  C   UNL     1       8.294  26.483  57.140  1.00  0.00     0.019 C 
ENDBRANCH  19  22
ENDBRANCH  17  18
ENDBRANCH  16  17
ENDBRANCH  14  16
ENDBRANCH   8  14
TORSDOF 5
ENDMDL
MODEL 8
REMARK VINA RESULT:      -7.8      2.581      9.461
REMARK  5 active torsions:
REMARK  status: ('A' for Active; 'I' for Inactive)
REMARK    1  A    between atoms: C_8  and  N_9 
REMARK    2  A    between atoms: N_9  and  C_10 
REMARK    3  A    between atoms: C_10  and  C_11 
REMARK    4  A    between atoms: C_11  and  N_12 
REMARK       I    between atoms: N_12  and  C_13 
REMARK    5  A    between atoms: C_13  and  C_14 
ROOT
HETATM    1  C   UNL     1       7.224  33.519  65.287  1.00  0.00     0.048 C 
HETATM    2  C   UNL     1       7.036  33.007  63.887  1.00  0.00    -0.061 A 
HETATM    3  C   UNL     1       8.135  32.850  63.030  1.00  0.00     0.020 A 
HETATM    4  C   UNL     1       7.964  32.350  61.728  1.00  0.00    -0.008 A 
HETATM    5  C   UNL     1       6.673  31.997  61.295  1.00  0.00     0.043 A 
HETATM    6  N   UNL     1       6.507  31.526  60.048  1.00  0.00    -0.346 N 
HETATM    7  H   UNL     1       5.565  31.272  59.776  1.00  0.00     0.167 HD
HETATM    8  C   UNL     1       7.494  31.376  59.148  1.00  0.00     0.086 A 
HETATM    9  C   UNL     1       8.810  31.671  59.554  1.00  0.00    -0.023 A 
HETATM   10  C   UNL     1       9.987  31.500  58.631  1.00  0.00     0.052 C 
HETATM   11  C   UNL     1       9.031  32.180  60.841  1.00  0.00     0.023 A 
HETATM   12  C   UNL     1       5.577  32.138  62.154  1.00  0.00     0.031 A 
HETATM   13  C   UNL     1       5.761  32.638  63.444  1.00  0.00     0.009 A 
ENDROOT
BRANCH   8  14
HETATM   14  N   UNL     1       7.233  30.858  57.875  1.00  0.00    -0.277 NA
HETATM   15  H   UNL     1       6.607  31.471  57.351  1.00  0.00     0.129 HD
BRANCH  14  16
HETATM   16  C   UNL     1       6.868  29.447  57.754  1.00  0.00     0.113 C 
BRANCH  16  17
HETATM   17  C   UNL     1       8.065  28.536  57.455  1.00  0.00     0.137 C 
BRANCH  17  18
HETATM   18  N   UNL     1       7.763  27.297  56.743  1.00  0.00    -0.360 N 
HETATM   19  C   UNL     1       7.819  26.025  57.279  1.00  0.00     0.221 C 
HETATM   20  O   UNL     1       8.040  25.807  58.468  1.00  0.00    -0.273 OA
HETATM   21  H   UNL     1       7.597  27.377  55.746  1.00  0.00     0.162 HD
BRANCH  19  22
HETATM   22  C   UNL     1       7.568  24.913  56.261  1.00  0.00     0.070 C 
HETATM   23  C   UNL     1       7.455  25.494  54.853  1.00  0.00     0.019 C 
HETATM   24  C   UNL     1       8.682  23.866  56.313  1.00  0.00     0.019 C 
ENDBRANCH  19  22
ENDBRANCH  17  18
ENDBRANCH  16  17
ENDBRANCH  14  16
ENDBRANCH   8  14
TORSDOF 5
ENDMDL
MODEL 9
REMARK VINA RESULT:      -7.7      4.144      6.754
REMARK  5 active torsions:
REMARK  status: ('A' for Active; 'I' for Inactive)
REMARK    1  A    between atoms: C_8  and  N_9 
REMARK    2  A    between atoms: N_9  and  C_10 
REMARK    3  A    between atoms: C_10  and  C_11 
REMARK    4  A    between atoms: C_11  and  N_12 
REMARK       I    between atoms: N_12  and  C_13 
REMARK    5  A    between atoms: C_13  and  C_14 
ROOT
HETATM    1  C   UNL     1       4.736  27.518  48.916  1.00  0.00     0.048 C 
HETATM    2  C   UNL     1       4.796  27.199  50.383  1.00  0.00    -0.061 A 
HETATM    3  C   UNL     1       4.496  28.179  51.340  1.00  0.00     0.020 A 
HETATM    4  C   UNL     1       4.528  27.876  52.712  1.00  0.00    -0.008 A 
HETATM    5  C   UNL     1       4.857  26.569  53.116  1.00  0.00     0.043 A 
HETATM    6  N   UNL     1       4.896  26.280  54.427  1.00  0.00    -0.346 N 
HETATM    7  H   UNL     1       5.125  25.326  54.680  1.00  0.00     0.167 HD
HETATM    8  C   UNL     1       4.659  27.162  55.414  1.00  0.00     0.086 A 
HETATM    9  C   UNL     1       4.280  28.471  55.055  1.00  0.00    -0.023 A 
HETATM   10  C   UNL     1       3.959  29.519  56.085  1.00  0.00     0.052 C 
HETATM   11  C   UNL     1       4.240  28.823  53.699  1.00  0.00     0.023 A 
HETATM   12  C   UNL     1       5.140  25.585  52.162  1.00  0.00     0.031 A 
HETATM   13  C   UNL     1       5.106  25.901  50.803  1.00  0.00     0.009 A 
ENDROOT
BRANCH   8  14
HETATM   14  N   UNL     1       4.702  26.768  56.755  1.00  0.00    -0.277 NA
HETATM   15  H   UNL     1       5.177  27.469  57.328  1.00  0.00     0.129 HD
BRANCH  14  16
HETATM   16  C   UNL     1       5.124  25.404  57.072  1.00  0.00     0.113 C 
BRANCH  16  17
HETATM   17  C   UNL     1       6.644  25.264  57.231  1.00  0.00     0.137 C 
BRANCH  17  18
HETATM   18  N   UNL     1       7.278  24.228  56.420  1.00  0.00    -0.360 N 
HETATM   19  C   UNL     1       7.750  24.389  55.131  1.00  0.00     0.221 C 
HETATM   20  O   UNL     1       7.772  25.476  54.557  1.00  0.00    -0.273 OA
HETATM   21  H   UNL     1       7.278  23.290  56.804  1.00  0.00     0.162 HD
BRANCH  19  22
HETATM   22  C   UNL     1       8.252  23.096  54.490  1.00  0.00     0.070 C 
HETATM   23  C   UNL     1       7.754  21.883  55.273  1.00  0.00     0.019 C 
HETATM   24  C   UNL     1       7.805  23.003  53.031  1.00  0.00     0.019 C 
ENDBRANCH  19  22
ENDBRANCH  17  18
ENDBRANCH  16  17
ENDBRANCH  14  16
ENDBRANCH   8  14
TORSDOF 5
ENDMDL
MODEL 10
REMARK VINA RESULT:      -7.6      7.946     10.466
REMARK  5 active torsions:
REMARK  status: ('A' for Active; 'I' for Inactive)
REMARK    1  A    between atoms: C_8  and  N_9 
REMARK    2  A    between atoms: N_9  and  C_10 
REMARK    3  A    between atoms: C_10  and  C_11 
REMARK    4  A    between atoms: C_11  and  N_12 
REMARK       I    between atoms: N_12  and  C_13 
REMARK    5  A    between atoms: C_13  and  C_14 
ROOT
HETATM    1  C   UNL     1       9.691  31.781  59.054  1.00  0.00     0.048 C 
HETATM    2  C   UNL     1       8.844  32.025  60.271  1.00  0.00    -0.061 A 
HETATM    3  C   UNL     1       7.490  32.369  60.143  1.00  0.00     0.020 A 
HETATM    4  C   UNL     1       6.691  32.574  61.280  1.00  0.00    -0.008 A 
HETATM    5  C   UNL     1       7.264  32.420  62.556  1.00  0.00     0.043 A 
HETATM    6  N   UNL     1       6.504  32.623  63.644  1.00  0.00    -0.346 N 
HETATM    7  H   UNL     1       6.948  32.491  64.545  1.00  0.00     0.167 HD
HETATM    8  C   UNL     1       5.210  32.989  63.617  1.00  0.00     0.086 A 
HETATM    9  C   UNL     1       4.582  33.109  62.362  1.00  0.00    -0.023 A 
HETATM   10  C   UNL     1       3.129  33.479  62.229  1.00  0.00     0.052 C 
HETATM   11  C   UNL     1       5.340  32.921  61.198  1.00  0.00     0.023 A 
HETATM   12  C   UNL     1       8.611  32.060  62.686  1.00  0.00     0.031 A 
HETATM   13  C   UNL     1       9.393  31.861  61.548  1.00  0.00     0.009 A 
ENDROOT
BRANCH   8  14
HETATM   14  N   UNL     1       4.487  33.160  64.803  1.00  0.00    -0.277 NA
HETATM   15  H   UNL     1       3.549  33.516  64.612  1.00  0.00     0.129 HD
BRANCH  14  16
HETATM   16  C   UNL     1       5.130  33.847  65.923  1.00  0.00     0.113 C 
BRANCH  16  17
HETATM   17  C   UNL     1       4.709  35.316  66.053  1.00  0.00     0.137 C 
BRANCH  17  18
HETATM   18  N   UNL     1       5.330  36.244  65.112  1.00  0.00    -0.360 N 
HETATM   19  C   UNL     1       4.738  36.755  63.973  1.00  0.00     0.221 C 
HETATM   20  O   UNL     1       3.562  36.550  63.680  1.00  0.00    -0.273 OA
HETATM   21  H   UNL     1       6.313  36.448  65.259  1.00  0.00     0.162 HD
BRANCH  19  22
HETATM   22  C   UNL     1       5.675  37.607  63.117  1.00  0.00     0.070 C 
HETATM   23  C   UNL     1       4.996  37.992  61.804  1.00  0.00     0.019 C 
HETATM   24  C   UNL     1       6.114  38.861  63.873  1.00  0.00     0.019 C 
ENDBRANCH  19  22
ENDBRANCH  17  18
ENDBRANCH  16  17
ENDBRANCH  14  16
ENDBRANCH   8  14
TORSDOF 5
ENDMDL
