MODEL 1
REMARK VINA RESULT:      -8.4      0.000      0.000
REMARK  7 active torsions:
REMARK  status: ('A' for Active; 'I' for Inactive)
REMARK    1  A    between atoms: O_2  and  C_3 
REMARK    2  A    between atoms: C_4  and  C_5 
REMARK    3  A    between atoms: C_6  and  C_7 
REMARK       I    between atoms: C_7  and  N_8 
REMARK    4  A    between atoms: N_8  and  C_9 
REMARK    5  A    between atoms: C_9  and  C_10 
REMARK    6  A    between atoms: C_10  and  N_11 
REMARK    7  A    between atoms: C_10  and  C_18 
ROOT
HETATM    1  C   UNL     1       7.001  26.855  57.271  1.00  0.00     0.241 C 
HETATM    2  N   UNL     1       7.203  26.230  56.072  1.00  0.00    -0.355 N 
HETATM    3  O   UNL     1       7.578  26.527  58.301  1.00  0.00    -0.269 OA
HETATM    4  H   UNL     1       6.625  26.535  55.290  1.00  0.00     0.162 HD
ENDROOT
BRANCH   2   5
HETATM    5  C   UNL     1       7.988  25.010  55.914  1.00  0.00     0.163 C 
BRANCH   5   6
HETATM    6  C   UNL     1       7.949  24.372  54.489  1.00  0.00     0.262 C 
BRANCH   6   7
HETATM    7  N   UNL     1       7.840  22.843  54.544  1.00  0.00    -0.059 N 
HETATM    8  H   UNL     1       6.822  22.654  54.449  1.00  0.00     0.280 HD
HETATM    9  C   UNL     1       8.475  22.106  53.391  1.00  0.00     0.236 C 
HETATM   10  C   UNL     1       8.076  20.636  53.452  1.00  0.00     0.028 C 
HETATM   11  C   UNL     1       8.453  20.009  54.790  1.00  0.00     0.003 C 
HETATM   12  C   UNL     1       7.877  20.809  55.954  1.00  0.00     0.028 C 
HETATM   13  C   UNL     1       8.258  22.282  55.876  1.00  0.00     0.236 C 
ENDBRANCH   6   7
BRANCH   6  14
HETATM   14  C   UNL     1       6.901  25.017  53.639  1.00  0.00     0.085 A 
HETATM   15  O   UNL     1       7.190  26.254  53.138  1.00  0.00    -0.325 OA
HETATM   16  C   UNL     1       6.120  26.648  52.402  1.00  0.00     0.142 A 
HETATM   17  C   UNL     1       5.143  25.682  52.422  1.00  0.00     0.027 A 
HETATM   18  C   UNL     1       5.646  24.624  53.220  1.00  0.00     0.037 A 
ENDBRANCH   6  14
ENDBRANCH   5   6
ENDBRANCH   2   5
BRANCH   1  19
HETATM   19  C   UNL     1       6.011  27.946  57.241  1.00  0.00     0.075 C 
HETATM   20  C   UNL     1       6.320  29.235  57.450  1.00  0.00     0.020 C 
BRANCH  20  21
HETATM   21  C   UNL     1       7.659  29.737  57.792  1.00  0.00    -0.001 A 
HETATM   22  C   UNL     1       8.702  29.762  56.845  1.00  0.00     0.078 A 
HETATM   23  C   UNL     1       9.958  30.252  57.220  1.00  0.00     0.039 A 
HETATM   24  C   UNL     1      10.177  30.711  58.523  1.00  0.00     0.022 A 
HETATM   25  C   UNL     1       9.143  30.673  59.455  1.00  0.00     0.012 A 
HETATM   26  C   UNL     1       7.886  30.194  59.096  1.00  0.00     0.033 A 
HETATM   27 BR   UNL     1       9.453  31.251  61.227  1.00  0.00    -0.051 Br
BRANCH  22  28
HETATM   28  O   UNL     1       8.421  29.232  55.611  1.00  0.00    -0.355 OA
HETATM   29  C   UNL     1       9.531  29.023  54.743  1.00  0.00     0.210 C 
ENDBRANCH  22  28
ENDBRANCH  20  21
ENDBRANCH   1  19
TORSDOF 7
ENDMDL
MODEL 2
REMARK VINA RESULT:      -8.1      1.796      2.392
REMARK  7 active torsions:
REMARK  status: ('A' for Active; 'I' for Inactive)
REMARK    1  A    between atoms: O_2  and  C_3 
REMARK    2  A    between atoms: C_4  and  C_5 
REMARK    3  A    between atoms: C_6  and  C_7 
REMARK       I    between atoms: C_7  and  N_8 
REMARK    4  A    between atoms: N_8  and  C_9 
REMARK    5  A    between atoms: C_9  and  C_10 
REMARK    6  A    between atoms: C_10  and  N_11 
REMARK    7  A    between atoms: C_10  and  C_18 
ROOT
HETATM    1  C   UNL     1       6.008  27.158  56.109  1.00  0.00     0.241 C 
HETATM    2  N   UNL     1       7.032  26.591  55.405  1.00  0.00    -0.355 N 
HETATM    3  O   UNL     1       5.573  26.688  57.154  1.00  0.00    -0.269 OA
HETATM    4  H   UNL     1       7.274  27.023  54.514  1.00  0.00     0.162 HD
ENDROOT
BRANCH   2   5
HETATM    5  C   UNL     1       7.606  25.286  55.716  1.00  0.00     0.163 C 
BRANCH   5   6
HETATM    6  C   UNL     1       7.905  24.377  54.481  1.00  0.00     0.262 C 
BRANCH   6   7
HETATM    7  N   UNL     1       7.845  22.885  54.835  1.00  0.00    -0.059 N 
HETATM    8  H   UNL     1       6.834  22.699  54.994  1.00  0.00     0.280 HD
HETATM    9  C   UNL     1       8.238  21.940  53.728  1.00  0.00     0.236 C 
HETATM   10  C   UNL     1       7.895  20.513  54.137  1.00  0.00     0.028 C 
HETATM   11  C   UNL     1       8.561  20.135  55.456  1.00  0.00     0.003 C 
HETATM   12  C   UNL     1       8.226  21.143  56.550  1.00  0.00     0.028 C 
HETATM   13  C   UNL     1       8.548  22.569  56.127  1.00  0.00     0.236 C 
ENDBRANCH   6   7
BRANCH   6  14
HETATM   14  C   UNL     1       7.043  24.750  53.317  1.00  0.00     0.085 A 
HETATM   15  O   UNL     1       5.693  24.631  53.487  1.00  0.00    -0.325 OA
HETATM   16  C   UNL     1       5.107  25.020  52.326  1.00  0.00     0.142 A 
HETATM   17  C   UNL     1       6.062  25.388  51.408  1.00  0.00     0.027 A 
HETATM   18  C   UNL     1       7.315  25.217  52.047  1.00  0.00     0.037 A 
ENDBRANCH   6  14
ENDBRANCH   5   6
ENDBRANCH   2   5
BRANCH   1  19
HETATM   19  C   UNL     1       5.441  28.377  55.505  1.00  0.00     0.075 C 
HETATM   20  C   UNL     1       5.856  29.617  55.804  1.00  0.00     0.020 C 
BRANCH  20  21
HETATM   21  C   UNL     1       6.880  29.945  56.807  1.00  0.00    -0.001 A 
HETATM   22  C   UNL     1       6.545  30.543  58.037  1.00  0.00     0.078 A 
HETATM   23  C   UNL     1       7.557  30.831  58.959  1.00  0.00     0.039 A 
HETATM   24  C   UNL     1       8.891  30.532  58.660  1.00  0.00     0.022 A 
HETATM   25  C   UNL     1       9.214  29.950  57.438  1.00  0.00     0.012 A 
HETATM   26  C   UNL     1       8.218  29.650  56.513  1.00  0.00     0.033 A 
HETATM   27 BR   UNL     1      11.020  29.587  57.017  1.00  0.00    -0.051 Br
BRANCH  22  28
HETATM   28  O   UNL     1       5.224  30.864  58.221  1.00  0.00    -0.355 OA
HETATM   29  C   UNL     1       4.954  31.992  59.050  1.00  0.00     0.210 C 
ENDBRANCH  22  28
ENDBRANCH  20  21
ENDBRANCH   1  19
TORSDOF 7
ENDMDL
MODEL 3
REMARK VINA RESULT:      -8.1      1.959      2.793
REMARK  7 active torsions:
REMARK  status: ('A' for Active; 'I' for Inactive)
REMARK    1  A    between atoms: O_2  and  C_3 
REMARK    2  A    between atoms: C_4  and  C_5 
REMARK    3  A    between atoms: C_6  and  C_7 
REMARK       I    between atoms: C_7  and  N_8 
REMARK    4  A    between atoms: N_8  and  C_9 
REMARK    5  A    between atoms: C_9  and  C_10 
REMARK    6  A    between atoms: C_10  and  N_11 
REMARK    7  A    between atoms: C_10  and  C_18 
ROOT
HETATM    1  C   UNL     1       8.245  26.857  57.287  1.00  0.00     0.241 C 
HETATM    2  N   UNL     1       8.272  26.038  56.193  1.00  0.00    -0.355 N 
HETATM    3  O   UNL     1       7.707  26.544  58.342  1.00  0.00    -0.269 OA
HETATM    4  H   UNL     1       8.687  26.418  55.343  1.00  0.00     0.162 HD
ENDROOT
BRANCH   2   5
HETATM    5  C   UNL     1       7.529  24.785  56.097  1.00  0.00     0.163 C 
BRANCH   5   6
HETATM    6  C   UNL     1       7.595  24.075  54.707  1.00  0.00     0.262 C 
BRANCH   6   7
HETATM    7  N   UNL     1       7.729  22.553  54.843  1.00  0.00    -0.059 N 
HETATM    8  H   UNL     1       6.758  22.199  54.735  1.00  0.00     0.280 HD
HETATM    9  C   UNL     1       8.508  21.870  53.747  1.00  0.00     0.236 C 
HETATM   10  C   UNL     1       8.347  20.361  53.878  1.00  0.00     0.028 C 
HETATM   11  C   UNL     1       8.777  19.871  55.256  1.00  0.00     0.003 C 
HETATM   12  C   UNL     1       8.047  20.625  56.362  1.00  0.00     0.028 C 
HETATM   13  C   UNL     1       8.190  22.134  56.212  1.00  0.00     0.236 C 
ENDBRANCH   6   7
BRANCH   6  14
HETATM   14  C   UNL     1       6.460  24.500  53.831  1.00  0.00     0.085 A 
HETATM   15  O   UNL     1       5.431  25.164  54.436  1.00  0.00    -0.325 OA
HETATM   16  C   UNL     1       4.522  25.457  53.473  1.00  0.00     0.142 A 
HETATM   17  C   UNL     1       4.950  24.991  52.253  1.00  0.00     0.027 A 
HETATM   18  C   UNL     1       6.204  24.373  52.481  1.00  0.00     0.037 A 
ENDBRANCH   6  14
ENDBRANCH   5   6
ENDBRANCH   2   5
BRANCH   1  19
HETATM   19  C   UNL     1       8.894  28.166  57.096  1.00  0.00     0.075 C 
HETATM   20  C   UNL     1       8.228  29.286  56.775  1.00  0.00     0.020 C 
BRANCH  20  21
HETATM   21  C   UNL     1       6.784  29.362  56.512  1.00  0.00    -0.001 A 
HETATM   22  C   UNL     1       6.219  28.836  55.333  1.00  0.00     0.078 A 
HETATM   23  C   UNL     1       4.838  28.932  55.132  1.00  0.00     0.039 A 
HETATM   24  C   UNL     1       4.025  29.547  56.091  1.00  0.00     0.022 A 
HETATM   25  C   UNL     1       4.593  30.072  57.249  1.00  0.00     0.012 A 
HETATM   26  C   UNL     1       5.965  29.979  57.466  1.00  0.00     0.033 A 
HETATM   27 BR   UNL     1       3.501  30.941  58.522  1.00  0.00    -0.051 Br
BRANCH  22  28
HETATM   28  O   UNL     1       7.095  28.312  54.417  1.00  0.00    -0.355 OA
HETATM   29  C   UNL     1       6.629  28.225  53.073  1.00  0.00     0.210 C 
ENDBRANCH  22  28
ENDBRANCH  20  21
ENDBRANCH   1  19
TORSDOF 7
ENDMDL
MODEL 4
REMARK VINA RESULT:      -8.0      2.770      7.462
REMARK  7 active torsions:
REMARK  status: ('A' for Active; 'I' for Inactive)
REMARK    1  A    between atoms: O_2  and  C_3 
REMARK    2  A    between atoms: C_4  and  C_5 
REMARK    3  A    between atoms: C_6  and  C_7 
REMARK       I    between atoms: C_7  and  N_8 
REMARK    4  A    between atoms: N_8  and  C_9 
REMARK    5  A    between atoms: C_9  and  C_10 
REMARK    6  A    between atoms: C_10  and  N_11 
REMARK    7  A    between atoms: C_10  and  C_18 
ROOT
HETATM    1  C   UNL     1       8.362  24.893  56.969  1.00  0.00     0.241 C 
HETATM    2  N   UNL     1       7.647  26.037  57.185  1.00  0.00    -0.355 N 
HETATM    3  O   UNL     1       9.578  24.884  56.818  1.00  0.00    -0.269 OA
HETATM    4  H   UNL     1       6.632  25.945  57.232  1.00  0.00     0.162 HD
ENDROOT
BRANCH   2   5
HETATM    5  C   UNL     1       8.213  27.379  57.094  1.00  0.00     0.163 C 
BRANCH   5   6
HETATM    6  C   UNL     1       7.432  28.487  57.871  1.00  0.00     0.262 C 
BRANCH   6   7
HETATM    7  N   UNL     1       8.271  29.756  58.063  1.00  0.00    -0.059 N 
HETATM    8  H   UNL     1       7.834  30.453  57.427  1.00  0.00     0.280 HD
HETATM    9  C   UNL     1       8.190  30.386  59.431  1.00  0.00     0.236 C 
HETATM   10  C   UNL     1       8.864  31.752  59.399  1.00  0.00     0.028 C 
HETATM   11  C   UNL     1      10.307  31.652  58.915  1.00  0.00     0.003 C 
HETATM   12  C   UNL     1      10.388  30.939  57.570  1.00  0.00     0.028 C 
HETATM   13  C   UNL     1       9.692  29.585  57.600  1.00  0.00     0.236 C 
ENDBRANCH   6   7
BRANCH   6  14
HETATM   14  C   UNL     1       6.096  28.741  57.248  1.00  0.00     0.085 A 
HETATM   15  O   UNL     1       5.640  27.804  56.365  1.00  0.00    -0.325 OA
HETATM   16  C   UNL     1       4.426  28.223  55.928  1.00  0.00     0.142 A 
HETATM   17  C   UNL     1       4.092  29.419  56.516  1.00  0.00     0.027 A 
HETATM   18  C   UNL     1       5.169  29.756  57.372  1.00  0.00     0.037 A 
ENDBRANCH   6  14
ENDBRANCH   5   6
ENDBRANCH   2   5
BRANCH   1  19
HETATM   19  C   UNL     1       7.556  23.661  56.906  1.00  0.00     0.075 C 
HETATM   20  C   UNL     1       7.008  23.189  55.776  1.00  0.00     0.020 C 
BRANCH  20  21
HETATM   21  C   UNL     1       7.080  23.849  54.464  1.00  0.00    -0.001 A 
HETATM   22  C   UNL     1       8.052  23.491  53.510  1.00  0.00     0.078 A 
HETATM   23  C   UNL     1       8.075  24.148  52.274  1.00  0.00     0.039 A 
HETATM   24  C   UNL     1       7.144  25.152  51.990  1.00  0.00     0.022 A 
HETATM   25  C   UNL     1       6.192  25.505  52.943  1.00  0.00     0.012 A 
HETATM   26  C   UNL     1       6.151  24.857  54.174  1.00  0.00     0.033 A 
HETATM   27 BR   UNL     1       4.962  26.892  52.575  1.00  0.00    -0.051 Br
BRANCH  22  28
HETATM   28  O   UNL     1       8.968  22.546  53.895  1.00  0.00    -0.355 OA
HETATM   29  C   UNL     1       8.766  21.226  53.395  1.00  0.00     0.210 C 
ENDBRANCH  22  28
ENDBRANCH  20  21
ENDBRANCH   1  19
TORSDOF 7
ENDMDL
MODEL 5
REMARK VINA RESULT:      -7.9      2.426      3.437
REMARK  7 active torsions:
REMARK  status: ('A' for Active; 'I' for Inactive)
REMARK    1  A    between atoms: O_2  and  C_3 
REMARK    2  A    between atoms: C_4  and  C_5 
REMARK    3  A    between atoms: C_6  and  C_7 
REMARK       I    between atoms: C_7  and  N_8 
REMARK    4  A    between atoms: N_8  and  C_9 
REMARK    5  A    between atoms: C_9  and  C_10 
REMARK    6  A    between atoms: C_10  and  N_11 
REMARK    7  A    between atoms: C_10  and  C_18 
ROOT
HETATM    1  C   UNL     1       8.225  27.079  57.134  1.00  0.00     0.241 C 
HETATM    2  N   UNL     1       8.225  26.346  55.981  1.00  0.00    -0.355 N 
HETATM    3  O   UNL     1       7.706  26.690  58.174  1.00  0.00    -0.269 OA
HETATM    4  H   UNL     1       8.626  26.787  55.154  1.00  0.00     0.162 HD
ENDROOT
BRANCH   2   5
HETATM    5  C   UNL     1       7.473  25.108  55.806  1.00  0.00     0.163 C 
BRANCH   5   6
HETATM    6  C   UNL     1       7.782  24.320  54.492  1.00  0.00     0.262 C 
BRANCH   6   7
HETATM    7  N   UNL     1       7.757  22.802  54.711  1.00  0.00    -0.059 N 
HETATM    8  H   UNL     1       6.747  22.573  54.804  1.00  0.00     0.280 HD
HETATM    9  C   UNL     1       8.230  21.971  53.543  1.00  0.00     0.236 C 
HETATM   10  C   UNL     1       7.918  20.504  53.809  1.00  0.00     0.028 C 
HETATM   11  C   UNL     1       8.537  20.030  55.120  1.00  0.00     0.003 C 
HETATM   12  C   UNL     1       8.120  20.925  56.282  1.00  0.00     0.028 C 
HETATM   13  C   UNL     1       8.412  22.393  56.001  1.00  0.00     0.236 C 
ENDBRANCH   6   7
BRANCH   6  14
HETATM   14  C   UNL     1       6.903  24.778  53.371  1.00  0.00     0.085 A 
HETATM   15  O   UNL     1       5.573  24.485  53.473  1.00  0.00    -0.325 OA
HETATM   16  C   UNL     1       4.967  24.988  52.368  1.00  0.00     0.142 A 
HETATM   17  C   UNL     1       5.888  25.601  51.553  1.00  0.00     0.027 A 
HETATM   18  C   UNL     1       7.142  25.469  52.200  1.00  0.00     0.037 A 
ENDBRANCH   6  14
ENDBRANCH   5   6
ENDBRANCH   2   5
BRANCH   1  19
HETATM   19  C   UNL     1       8.879  28.396  57.031  1.00  0.00     0.075 C 
HETATM   20  C   UNL     1       8.211  29.544  56.839  1.00  0.00     0.020 C 
BRANCH  20  21
HETATM   21  C   UNL     1       6.757  29.652  56.649  1.00  0.00    -0.001 A 
HETATM   22  C   UNL     1       5.935  30.295  57.595  1.00  0.00     0.078 A 
HETATM   23  C   UNL     1       4.557  30.375  57.366  1.00  0.00     0.039 A 
HETATM   24  C   UNL     1       4.000  29.818  56.209  1.00  0.00     0.022 A 
HETATM   25  C   UNL     1       4.819  29.176  55.284  1.00  0.00     0.012 A 
HETATM   26  C   UNL     1       6.193  29.095  55.495  1.00  0.00     0.033 A 
HETATM   27 BR   UNL     1       4.061  28.386  53.744  1.00  0.00    -0.051 Br
BRANCH  22  28
HETATM   28  O   UNL     1       6.552  30.753  58.732  1.00  0.00    -0.355 OA
HETATM   29  C   UNL     1       6.276  32.100  59.105  1.00  0.00     0.210 C 
ENDBRANCH  22  28
ENDBRANCH  20  21
ENDBRANCH   1  19
TORSDOF 7
ENDMDL
MODEL 6
REMARK VINA RESULT:      -7.9      5.819      9.238
REMARK  7 active torsions:
REMARK  status: ('A' for Active; 'I' for Inactive)
REMARK    1  A    between atoms: O_2  and  C_3 
REMARK    2  A    between atoms: C_4  and  C_5 
REMARK    3  A    between atoms: C_6  and  C_7 
REMARK       I    between atoms: C_7  and  N_8 
REMARK    4  A    between atoms: N_8  and  C_9 
REMARK    5  A    between atoms: C_9  and  C_10 
REMARK    6  A    between atoms: C_10  and  N_11 
REMARK    7  A    between atoms: C_10  and  C_18 
ROOT
HETATM    1  C   UNL     1       7.319  32.184  63.206  1.00  0.00     0.241 C 
HETATM    2  N   UNL     1       8.217  31.980  62.196  1.00  0.00    -0.355 N 
HETATM    3  O   UNL     1       6.264  31.568  63.297  1.00  0.00    -0.269 OA
HETATM    4  H   UNL     1       9.033  32.590  62.174  1.00  0.00     0.162 HD
ENDROOT
BRANCH   2   5
HETATM    5  C   UNL     1       7.952  31.140  61.032  1.00  0.00     0.163 C 
BRANCH   5   6
HETATM    6  C   UNL     1       7.871  31.898  59.668  1.00  0.00     0.262 C 
BRANCH   6   7
HETATM    7  N   UNL     1       8.541  31.113  58.533  1.00  0.00    -0.059 N 
HETATM    8  H   UNL     1       8.193  31.569  57.665  1.00  0.00     0.280 HD
HETATM    9  C   UNL     1      10.042  31.239  58.455  1.00  0.00     0.236 C 
HETATM   10  C   UNL     1      10.533  30.620  57.152  1.00  0.00     0.028 C 
HETATM   11  C   UNL     1      10.088  29.168  57.020  1.00  0.00     0.003 C 
HETATM   12  C   UNL     1       8.577  29.038  57.184  1.00  0.00     0.028 C 
HETATM   13  C   UNL     1       8.088  29.680  58.476  1.00  0.00     0.236 C 
ENDBRANCH   6   7
BRANCH   6  14
HETATM   14  C   UNL     1       6.466  32.310  59.364  1.00  0.00     0.085 A 
HETATM   15  O   UNL     1       6.193  32.654  58.071  1.00  0.00    -0.325 OA
HETATM   16  C   UNL     1       4.878  32.987  58.014  1.00  0.00     0.142 A 
HETATM   17  C   UNL     1       4.299  32.862  59.254  1.00  0.00     0.027 A 
HETATM   18  C   UNL     1       5.323  32.422  60.129  1.00  0.00     0.037 A 
ENDBRANCH   6  14
ENDBRANCH   5   6
ENDBRANCH   2   5
BRANCH   1  19
HETATM   19  C   UNL     1       7.704  33.226  64.175  1.00  0.00     0.075 C 
HETATM   20  C   UNL     1       6.915  34.259  64.508  1.00  0.00     0.020 C 
BRANCH  20  21
HETATM   21  C   UNL     1       5.594  34.534  63.924  1.00  0.00    -0.001 A 
HETATM   22  C   UNL     1       4.406  34.104  64.548  1.00  0.00     0.078 A 
HETATM   23  C   UNL     1       3.174  34.394  63.953  1.00  0.00     0.039 A 
HETATM   24  C   UNL     1       3.121  35.101  62.747  1.00  0.00     0.022 A 
HETATM   25  C   UNL     1       4.300  35.514  62.132  1.00  0.00     0.012 A 
HETATM   26  C   UNL     1       5.534  35.239  62.715  1.00  0.00     0.033 A 
HETATM   27 BR   UNL     1       4.229  36.431  60.482  1.00  0.00    -0.051 Br
BRANCH  22  28
HETATM   28  O   UNL     1       4.552  33.359  65.691  1.00  0.00    -0.355 OA
HETATM   29  C   UNL     1       4.366  34.047  66.925  1.00  0.00     0.210 C 
ENDBRANCH  22  28
ENDBRANCH  20  21
ENDBRANCH   1  19
TORSDOF 7
ENDMDL
MODEL 7
REMARK VINA RESULT:      -7.8      2.824      5.178
REMARK  7 active torsions:
REMARK  status: ('A' for Active; 'I' for Inactive)
REMARK    1  A    between atoms: O_2  and  C_3 
REMARK    2  A    between atoms: C_4  and  C_5 
REMARK    3  A    between atoms: C_6  and  C_7 
REMARK       I    between atoms: C_7  and  N_8 
REMARK    4  A    between atoms: N_8  and  C_9 
REMARK    5  A    between atoms: C_9  and  C_10 
REMARK    6  A    between atoms: C_10  and  N_11 
REMARK    7  A    between atoms: C_10  and  C_18 
ROOT
HETATM    1  C   UNL     1       7.107  27.404  54.856  1.00  0.00     0.241 C 
HETATM    2  N   UNL     1       5.852  27.117  54.400  1.00  0.00    -0.355 N 
HETATM    3  O   UNL     1       7.887  28.134  54.255  1.00  0.00    -0.269 OA
HETATM    4  H   UNL     1       5.306  26.447  54.941  1.00  0.00     0.162 HD
ENDROOT
BRANCH   2   5
HETATM    5  C   UNL     1       5.359  27.502  53.081  1.00  0.00     0.163 C 
BRANCH   5   6
HETATM    6  C   UNL     1       5.315  26.352  52.024  1.00  0.00     0.262 C 
BRANCH   6   7
HETATM    7  N   UNL     1       5.421  26.884  50.589  1.00  0.00    -0.059 N 
HETATM    8  H   UNL     1       6.364  26.583  50.273  1.00  0.00     0.280 HD
HETATM    9  C   UNL     1       4.470  26.263  49.596  1.00  0.00     0.236 C 
HETATM   10  C   UNL     1       4.854  26.700  48.188  1.00  0.00     0.028 C 
HETATM   11  C   UNL     1       4.880  28.220  48.062  1.00  0.00     0.003 C 
HETATM   12  C   UNL     1       5.778  28.846  49.124  1.00  0.00     0.028 C 
HETATM   13  C   UNL     1       5.405  28.387  50.527  1.00  0.00     0.236 C 
ENDBRANCH   6   7
BRANCH   6  14
HETATM   14  C   UNL     1       6.316  25.288  52.344  1.00  0.00     0.085 A 
HETATM   15  O   UNL     1       5.949  24.358  53.274  1.00  0.00    -0.325 OA
HETATM   16  C   UNL     1       6.988  23.495  53.409  1.00  0.00     0.142 A 
HETATM   17  C   UNL     1       8.021  23.856  52.577  1.00  0.00     0.027 A 
HETATM   18  C   UNL     1       7.589  25.015  51.886  1.00  0.00     0.037 A 
ENDBRANCH   6  14
ENDBRANCH   5   6
ENDBRANCH   2   5
BRANCH   1  19
HETATM   19  C   UNL     1       7.470  26.747  56.125  1.00  0.00     0.075 C 
HETATM   20  C   UNL     1       7.351  27.332  57.326  1.00  0.00     0.020 C 
BRANCH  20  21
HETATM   21  C   UNL     1       6.904  28.715  57.549  1.00  0.00    -0.001 A 
HETATM   22  C   UNL     1       7.792  29.716  57.988  1.00  0.00     0.078 A 
HETATM   23  C   UNL     1       7.318  31.018  58.182  1.00  0.00     0.039 A 
HETATM   24  C   UNL     1       5.972  31.322  57.947  1.00  0.00     0.022 A 
HETATM   25  C   UNL     1       5.099  30.323  57.523  1.00  0.00     0.012 A 
HETATM   26  C   UNL     1       5.558  29.025  57.318  1.00  0.00     0.033 A 
HETATM   27 BR   UNL     1       3.273  30.725  57.248  1.00  0.00    -0.051 Br
BRANCH  22  28
HETATM   28  O   UNL     1       9.077  29.319  58.259  1.00  0.00    -0.355 OA
HETATM   29  C   UNL     1      10.115  30.207  57.854  1.00  0.00     0.210 C 
ENDBRANCH  22  28
ENDBRANCH  20  21
ENDBRANCH   1  19
TORSDOF 7
ENDMDL
MODEL 8
REMARK VINA RESULT:      -7.8      3.253      8.040
REMARK  7 active torsions:
REMARK  status: ('A' for Active; 'I' for Inactive)
REMARK    1  A    between atoms: O_2  and  C_3 
REMARK    2  A    between atoms: C_4  and  C_5 
REMARK    3  A    between atoms: C_6  and  C_7 
REMARK       I    between atoms: C_7  and  N_8 
REMARK    4  A    between atoms: N_8  and  C_9 
REMARK    5  A    between atoms: C_9  and  C_10 
REMARK    6  A    between atoms: C_10  and  N_11 
REMARK    7  A    between atoms: C_10  and  C_18 
ROOT
HETATM    1  C   UNL     1       7.421  26.283  57.455  1.00  0.00     0.241 C 
HETATM    2  N   UNL     1       7.316  27.629  57.667  1.00  0.00    -0.355 N 
HETATM    3  O   UNL     1       8.493  25.712  57.296  1.00  0.00    -0.269 OA
HETATM    4  H   UNL     1       6.375  28.016  57.722  1.00  0.00     0.162 HD
ENDROOT
BRANCH   2   5
HETATM    5  C   UNL     1       8.438  28.557  57.561  1.00  0.00     0.163 C 
BRANCH   5   6
HETATM    6  C   UNL     1       8.065  30.069  57.685  1.00  0.00     0.262 C 
BRANCH   6   7
HETATM    7  N   UNL     1       6.553  30.302  57.572  1.00  0.00    -0.059 N 
HETATM    8  H   UNL     1       6.132  29.510  58.100  1.00  0.00     0.280 HD
HETATM    9  C   UNL     1       6.035  31.539  58.263  1.00  0.00     0.236 C 
HETATM   10  C   UNL     1       4.512  31.506  58.280  1.00  0.00     0.028 C 
HETATM   11  C   UNL     1       3.939  31.370  56.873  1.00  0.00     0.003 C 
HETATM   12  C   UNL     1       4.532  30.165  56.151  1.00  0.00     0.028 C 
HETATM   13  C   UNL     1       6.055  30.190  56.158  1.00  0.00     0.236 C 
ENDBRANCH   6   7
BRANCH   6  14
HETATM   14  C   UNL     1       8.675  30.675  58.909  1.00  0.00     0.085 A 
HETATM   15  O   UNL     1       8.507  29.995  60.081  1.00  0.00    -0.325 OA
HETATM   16  C   UNL     1       9.134  30.707  61.052  1.00  0.00     0.142 A 
HETATM   17  C   UNL     1       9.703  31.840  60.521  1.00  0.00     0.027 A 
HETATM   18  C   UNL     1       9.410  31.821  59.135  1.00  0.00     0.037 A 
ENDBRANCH   6  14
ENDBRANCH   5   6
ENDBRANCH   2   5
BRANCH   1  19
HETATM   19  C   UNL     1       6.136  25.563  57.407  1.00  0.00     0.075 C 
HETATM   20  C   UNL     1       5.742  24.815  56.364  1.00  0.00     0.020 C 
BRANCH  20  21
HETATM   21  C   UNL     1       6.494  24.652  55.112  1.00  0.00    -0.001 A 
HETATM   22  C   UNL     1       6.534  25.668  54.137  1.00  0.00     0.078 A 
HETATM   23  C   UNL     1       7.267  25.464  52.963  1.00  0.00     0.039 A 
HETATM   24  C   UNL     1       7.951  24.261  52.757  1.00  0.00     0.022 A 
HETATM   25  C   UNL     1       7.898  23.258  53.722  1.00  0.00     0.012 A 
HETATM   26  C   UNL     1       7.179  23.448  54.898  1.00  0.00     0.033 A 
HETATM   27 BR   UNL     1       8.786  21.617  53.423  1.00  0.00    -0.051 Br
BRANCH  22  28
HETATM   28  O   UNL     1       5.781  26.786  54.388  1.00  0.00    -0.355 OA
HETATM   29  C   UNL     1       4.770  27.098  53.434  1.00  0.00     0.210 C 
ENDBRANCH  22  28
ENDBRANCH  20  21
ENDBRANCH   1  19
TORSDOF 7
ENDMDL
MODEL 9
REMARK VINA RESULT:      -7.7      3.455      5.836
REMARK  7 active torsions:
REMARK  status: ('A' for Active; 'I' for Inactive)
REMARK    1  A    between atoms: O_2  and  C_3 
REMARK    2  A    between atoms: C_4  and  C_5 
REMARK    3  A    between atoms: C_6  and  C_7 
REMARK       I    between atoms: C_7  and  N_8 
REMARK    4  A    between atoms: N_8  and  C_9 
REMARK    5  A    between atoms: C_9  and  C_10 
REMARK    6  A    between atoms: C_10  and  N_11 
REMARK    7  A    between atoms: C_10  and  C_18 
ROOT
HETATM    1  C   UNL     1       4.905  30.750  57.549  1.00  0.00     0.241 C 
HETATM    2  N   UNL     1       6.015  30.030  57.204  1.00  0.00    -0.355 N 
HETATM    3  O   UNL     1       3.877  30.233  57.970  1.00  0.00    -0.269 OA
HETATM    4  H   UNL     1       6.795  30.549  56.802  1.00  0.00     0.162 HD
ENDROOT
BRANCH   2   5
HETATM    5  C   UNL     1       6.048  28.573  57.135  1.00  0.00     0.163 C 
BRANCH   5   6
HETATM    6  C   UNL     1       7.350  27.909  57.688  1.00  0.00     0.262 C 
BRANCH   6   7
HETATM    7  N   UNL     1       7.775  26.693  56.856  1.00  0.00    -0.059 N 
HETATM    8  H   UNL     1       8.699  26.962  56.461  1.00  0.00     0.280 HD
HETATM    9  C   UNL     1       8.048  25.434  57.640  1.00  0.00     0.236 C 
HETATM   10  C   UNL     1       8.691  24.399  56.726  1.00  0.00     0.028 C 
HETATM   11  C   UNL     1       7.825  24.118  55.503  1.00  0.00     0.003 C 
HETATM   12  C   UNL     1       7.483  25.406  54.762  1.00  0.00     0.028 C 
HETATM   13  C   UNL     1       6.863  26.446  55.686  1.00  0.00     0.236 C 
ENDBRANCH   6   7
BRANCH   6  14
HETATM   14  C   UNL     1       8.436  28.922  57.868  1.00  0.00     0.085 A 
HETATM   15  O   UNL     1       8.380  29.692  58.994  1.00  0.00    -0.325 OA
HETATM   16  C   UNL     1       9.447  30.529  58.961  1.00  0.00     0.142 A 
HETATM   17  C   UNL     1      10.193  30.309  57.827  1.00  0.00     0.027 A 
HETATM   18  C   UNL     1       9.542  29.269  57.119  1.00  0.00     0.037 A 
ENDBRANCH   6  14
ENDBRANCH   5   6
ENDBRANCH   2   5
BRANCH   1  19
HETATM   19  C   UNL     1       5.027  32.206  57.354  1.00  0.00     0.075 C 
HETATM   20  C   UNL     1       5.212  33.077  58.357  1.00  0.00     0.020 C 
BRANCH  20  21
HETATM   21  C   UNL     1       5.262  32.723  59.783  1.00  0.00    -0.001 A 
HETATM   22  C   UNL     1       4.096  32.661  60.570  1.00  0.00     0.078 A 
HETATM   23  C   UNL     1       4.198  32.316  61.922  1.00  0.00     0.039 A 
HETATM   24  C   UNL     1       5.447  32.038  62.488  1.00  0.00     0.022 A 
HETATM   25  C   UNL     1       6.596  32.112  61.705  1.00  0.00     0.012 A 
HETATM   26  C   UNL     1       6.510  32.447  60.356  1.00  0.00     0.033 A 
HETATM   27 BR   UNL     1       8.287  31.780  62.480  1.00  0.00    -0.051 Br
BRANCH  22  28
HETATM   28  O   UNL     1       2.923  33.014  59.953  1.00  0.00    -0.355 OA
HETATM   29  C   UNL     1       2.192  34.084  60.545  1.00  0.00     0.210 C 
ENDBRANCH  22  28
ENDBRANCH  20  21
ENDBRANCH   1  19
TORSDOF 7
ENDMDL
MODEL 10
REMARK VINA RESULT:      -7.7      2.931      7.794
REMARK  7 active torsions:
REMARK  status: ('A' for Active; 'I' for Inactive)
REMARK    1  A    between atoms: O_2  and  C_3 
REMARK    2  A    between atoms: C_4  and  C_5 
REMARK    3  A    between atoms: C_6  and  C_7 
REMARK       I    between atoms: C_7  and  N_8 
REMARK    4  A    between atoms: N_8  and  C_9 
REMARK    5  A    between atoms: C_9  and  C_10 
REMARK    6  A    between atoms: C_10  and  N_11 
REMARK    7  A    between atoms: C_10  and  C_18 
ROOT
HETATM    1  C   UNL     1       7.638  26.094  57.361  1.00  0.00     0.241 C 
HETATM    2  N   UNL     1       7.466  27.425  57.622  1.00  0.00    -0.355 N 
HETATM    3  O   UNL     1       8.729  25.599  57.107  1.00  0.00    -0.269 OA
HETATM    4  H   UNL     1       6.508  27.748  57.757  1.00  0.00     0.162 HD
ENDROOT
BRANCH   2   5
HETATM    5  C   UNL     1       8.516  28.426  57.464  1.00  0.00     0.163 C 
BRANCH   5   6
HETATM    6  C   UNL     1       8.041  29.911  57.560  1.00  0.00     0.262 C 
BRANCH   6   7
HETATM    7  N   UNL     1       6.516  30.036  57.461  1.00  0.00    -0.059 N 
HETATM    8  H   UNL     1       6.155  29.229  58.009  1.00  0.00     0.280 HD
HETATM    9  C   UNL     1       5.920  31.249  58.132  1.00  0.00     0.236 C 
HETATM   10  C   UNL     1       4.403  31.112  58.167  1.00  0.00     0.028 C 
HETATM   11  C   UNL     1       3.827  30.907  56.770  1.00  0.00     0.003 C 
HETATM   12  C   UNL     1       4.494  29.730  56.066  1.00  0.00     0.028 C 
HETATM   13  C   UNL     1       6.011  29.860  56.055  1.00  0.00     0.236 C 
ENDBRANCH   6   7
BRANCH   6  14
HETATM   14  C   UNL     1       8.620  30.584  58.765  1.00  0.00     0.085 A 
HETATM   15  O   UNL     1       8.527  29.910  59.949  1.00  0.00    -0.325 OA
HETATM   16  C   UNL     1       9.110  30.686  60.898  1.00  0.00     0.142 A 
HETATM   17  C   UNL     1       9.577  31.853  60.341  1.00  0.00     0.027 A 
HETATM   18  C   UNL     1       9.264  31.788  58.961  1.00  0.00     0.037 A 
ENDBRANCH   6  14
ENDBRANCH   5   6
ENDBRANCH   2   5
BRANCH   1  19
HETATM   19  C   UNL     1       6.400  25.294  57.385  1.00  0.00     0.075 C 
HETATM   20  C   UNL     1       5.786  24.844  56.280  1.00  0.00     0.020 C 
BRANCH  20  21
HETATM   21  C   UNL     1       6.214  25.125  54.902  1.00  0.00    -0.001 A 
HETATM   22  C   UNL     1       6.982  24.203  54.165  1.00  0.00     0.078 A 
HETATM   23  C   UNL     1       7.362  24.518  52.855  1.00  0.00     0.039 A 
HETATM   24  C   UNL     1       6.985  25.739  52.285  1.00  0.00     0.022 A 
HETATM   25  C   UNL     1       6.234  26.648  53.025  1.00  0.00     0.012 A 
HETATM   26  C   UNL     1       5.843  26.347  54.326  1.00  0.00     0.033 A 
HETATM   27 BR   UNL     1       5.764  28.315  52.268  1.00  0.00    -0.051 Br
BRANCH  22  28
HETATM   28  O   UNL     1       7.365  23.062  54.822  1.00  0.00    -0.355 OA
HETATM   29  C   UNL     1       8.766  22.808  54.890  1.00  0.00     0.210 C 
ENDBRANCH  22  28
ENDBRANCH  20  21
ENDBRANCH   1  19
TORSDOF 7
ENDMDL
