MODEL 1
REMARK VINA RESULT:     -12.2      0.000      0.000
REMARK  6 active torsions:
REMARK  status: ('A' for Active; 'I' for Inactive)
REMARK    1  A    between atoms: C_6  and  N_7 
REMARK       I    between atoms: N_7  and  C_8 
REMARK    2  A    between atoms: C_8  and  C_9 
REMARK    3  A    between atoms: C_11  and  N_12 
REMARK    4  A    between atoms: N_12  and  N_13 
REMARK       I    between atoms: N_13  and  C_14 
REMARK    5  A    between atoms: C_14  and  C_15 
REMARK    6  A    between atoms: C_16  and  C_17 
ROOT
HETATM    1  C   UNL     1       6.699  27.489  56.868  1.00  0.00     0.151 A 
HETATM    2  N   UNL     1       7.567  27.901  57.848  1.00  0.00    -0.210 NA
HETATM    3  C   UNL     1       7.637  29.213  58.089  1.00  0.00     0.220 A 
HETATM    4  N   UNL     1       6.890  30.128  57.444  1.00  0.00    -0.228 NA
HETATM    5  C   UNL     1       6.041  29.676  56.496  1.00  0.00     0.146 A 
HETATM    6  C   UNL     1       5.896  28.352  56.150  1.00  0.00     0.086 A 
HETATM    7 CL   UNL     1       4.772  27.950  54.919  1.00  0.00    -0.080 Cl
ENDROOT
BRANCH   3   8
HETATM    8  N   UNL     1       8.555  29.650  59.054  1.00  0.00    -0.169 NA
HETATM    9  H   UNL     1       9.030  28.847  59.470  1.00  0.00     0.156 HD
BRANCH   8  10
HETATM   10  N   UNL     1       7.990  30.523  60.001  1.00  0.00    -0.281 N 
HETATM   11  C   UNL     1       8.417  31.830  60.010  1.00  0.00     0.255 C 
HETATM   12  O   UNL     1       9.216  32.291  59.203  1.00  0.00    -0.267 OA
HETATM   13  H   UNL     1       7.406  30.088  60.712  1.00  0.00     0.184 HD
BRANCH  11  14
HETATM   14  C   UNL     1       7.817  32.624  61.112  1.00  0.00     0.076 C 
HETATM   15  C   UNL     1       7.534  32.031  62.283  1.00  0.00     0.017 C 
BRANCH  15  16
HETATM   16  C   UNL     1       6.924  32.687  63.452  1.00  0.00    -0.036 A 
HETATM   17  C   UNL     1       5.524  32.725  63.537  1.00  0.00     0.013 A 
HETATM   18  C   UNL     1       4.885  33.319  64.631  1.00  0.00     0.024 A 
HETATM   19  C   UNL     1       5.645  33.877  65.655  1.00  0.00     0.034 A 
HETATM   20 CL   UNL     1       4.863  34.612  66.999  1.00  0.00    -0.084 Cl
HETATM   21  C   UNL     1       7.034  33.838  65.597  1.00  0.00     0.024 A 
HETATM   22  C   UNL     1       7.671  33.240  64.503  1.00  0.00     0.013 A 
ENDBRANCH  15  16
ENDBRANCH  11  14
ENDBRANCH   8  10
ENDBRANCH   3   8
BRANCH   1  23
HETATM   23  C   UNL     1       6.716  25.998  56.638  1.00  0.00     0.276 C 
HETATM   24  N   UNL     1       7.356  25.641  55.461  1.00  0.00    -0.322 N 
HETATM   25  H   UNL     1       7.732  26.421  54.930  1.00  0.00     0.169 HD
HETATM   26  O   UNL     1       6.203  25.227  57.436  1.00  0.00    -0.266 OA
BRANCH  24  27
HETATM   27  C   UNL     1       7.540  24.351  54.925  1.00  0.00     0.035 A 
HETATM   28  C   UNL     1       7.616  23.189  55.693  1.00  0.00     0.037 A 
HETATM   29  C   UNL     1       7.791  21.926  55.095  1.00  0.00    -0.054 A 
HETATM   30  C   UNL     1       7.926  21.834  53.697  1.00  0.00    -0.056 A 
HETATM   31  C   UNL     1       7.873  20.710  55.979  1.00  0.00     0.049 C 
HETATM   32  C   UNL     1       8.129  20.513  53.009  1.00  0.00     0.049 C 
HETATM   33  C   UNL     1       7.838  23.002  52.929  1.00  0.00     0.009 A 
HETATM   34  C   UNL     1       7.646  24.246  53.536  1.00  0.00     0.030 A 
ENDBRANCH  24  27
ENDBRANCH   1  23
TORSDOF 6
ENDMDL
MODEL 2
REMARK VINA RESULT:     -10.7      2.650     11.477
REMARK  6 active torsions:
REMARK  status: ('A' for Active; 'I' for Inactive)
REMARK    1  A    between atoms: C_6  and  N_7 
REMARK       I    between atoms: N_7  and  C_8 
REMARK    2  A    between atoms: C_8  and  C_9 
REMARK    3  A    between atoms: C_11  and  N_12 
REMARK    4  A    between atoms: N_12  and  N_13 
REMARK       I    between atoms: N_13  and  C_14 
REMARK    5  A    between atoms: C_14  and  C_15 
REMARK    6  A    between atoms: C_16  and  C_17 
ROOT
HETATM    1  C   UNL     1       7.345  30.895  58.348  1.00  0.00     0.151 A 
HETATM    2  N   UNL     1       6.279  30.476  57.593  1.00  0.00    -0.210 NA
HETATM    3  C   UNL     1       6.536  29.634  56.587  1.00  0.00     0.220 A 
HETATM    4  N   UNL     1       7.767  29.170  56.304  1.00  0.00    -0.228 NA
HETATM    5  C   UNL     1       8.785  29.600  57.080  1.00  0.00     0.146 A 
HETATM    6  C   UNL     1       8.643  30.477  58.131  1.00  0.00     0.086 A 
HETATM    7 CL   UNL     1      10.044  30.923  59.014  1.00  0.00    -0.080 Cl
ENDROOT
BRANCH   3   8
HETATM    8  N   UNL     1       5.462  29.237  55.780  1.00  0.00    -0.169 NA
HETATM    9  H   UNL     1       4.589  29.307  56.305  1.00  0.00     0.156 HD
BRANCH   8  10
HETATM   10  N   UNL     1       5.658  27.983  55.175  1.00  0.00    -0.281 N 
HETATM   11  C   UNL     1       5.240  26.865  55.858  1.00  0.00     0.255 C 
HETATM   12  O   UNL     1       4.654  26.903  56.934  1.00  0.00    -0.267 OA
HETATM   13  H   UNL     1       6.229  27.980  54.333  1.00  0.00     0.184 HD
BRANCH  11  14
HETATM   14  C   UNL     1       5.587  25.601  55.160  1.00  0.00     0.076 C 
HETATM   15  C   UNL     1       6.728  24.964  55.462  1.00  0.00     0.017 C 
BRANCH  15  16
HETATM   16  C   UNL     1       7.207  23.717  54.840  1.00  0.00    -0.036 A 
HETATM   17  C   UNL     1       7.421  23.705  53.453  1.00  0.00     0.013 A 
HETATM   18  C   UNL     1       7.890  22.557  52.806  1.00  0.00     0.024 A 
HETATM   19  C   UNL     1       8.156  21.409  53.546  1.00  0.00     0.034 A 
HETATM   20 CL   UNL     1       8.729  19.993  52.755  1.00  0.00    -0.084 Cl
HETATM   21  C   UNL     1       7.963  21.402  54.924  1.00  0.00     0.024 A 
HETATM   22  C   UNL     1       7.497  22.554  55.570  1.00  0.00     0.013 A 
ENDBRANCH  15  16
ENDBRANCH  11  14
ENDBRANCH   8  10
ENDBRANCH   3   8
BRANCH   1  23
HETATM   23  C   UNL     1       6.966  31.872  59.434  1.00  0.00     0.276 C 
HETATM   24  N   UNL     1       7.255  31.403  60.706  1.00  0.00    -0.322 N 
HETATM   25  H   UNL     1       7.688  30.483  60.730  1.00  0.00     0.169 HD
HETATM   26  O   UNL     1       6.459  32.952  59.167  1.00  0.00    -0.266 OA
BRANCH  24  27
HETATM   27  C   UNL     1       7.020  32.035  61.943  1.00  0.00     0.035 A 
HETATM   28  C   UNL     1       5.765  32.464  62.376  1.00  0.00     0.037 A 
HETATM   29  C   UNL     1       5.595  33.082  63.629  1.00  0.00    -0.054 A 
HETATM   30  C   UNL     1       6.716  33.302  64.451  1.00  0.00    -0.056 A 
HETATM   31  C   UNL     1       4.216  33.530  64.036  1.00  0.00     0.049 C 
HETATM   32  C   UNL     1       6.592  33.969  65.793  1.00  0.00     0.049 C 
HETATM   33  C   UNL     1       7.972  32.858  64.018  1.00  0.00     0.009 A 
HETATM   34  C   UNL     1       8.122  32.231  62.778  1.00  0.00     0.030 A 
ENDBRANCH  24  27
ENDBRANCH   1  23
TORSDOF 6
ENDMDL
MODEL 3
REMARK VINA RESULT:     -10.6      2.464      3.530
REMARK  6 active torsions:
REMARK  status: ('A' for Active; 'I' for Inactive)
REMARK    1  A    between atoms: C_6  and  N_7 
REMARK       I    between atoms: N_7  and  C_8 
REMARK    2  A    between atoms: C_8  and  C_9 
REMARK    3  A    between atoms: C_11  and  N_12 
REMARK    4  A    between atoms: N_12  and  N_13 
REMARK       I    between atoms: N_13  and  C_14 
REMARK    5  A    between atoms: C_14  and  C_15 
REMARK    6  A    between atoms: C_16  and  C_17 
ROOT
HETATM    1  C   UNL     1       8.631  29.843  57.644  1.00  0.00     0.151 A 
HETATM    2  N   UNL     1       7.440  30.222  58.210  1.00  0.00    -0.210 NA
HETATM    3  C   UNL     1       7.474  31.235  59.082  1.00  0.00     0.220 A 
HETATM    4  N   UNL     1       8.598  31.902  59.403  1.00  0.00    -0.228 NA
HETATM    5  C   UNL     1       9.745  31.502  58.812  1.00  0.00     0.146 A 
HETATM    6  C   UNL     1       9.835  30.464  57.914  1.00  0.00     0.086 A 
HETATM    7 CL   UNL     1      11.374  30.085  57.259  1.00  0.00    -0.080 Cl
ENDROOT
BRANCH   3   8
HETATM    8  N   UNL     1       6.272  31.600  59.703  1.00  0.00    -0.169 NA
HETATM    9  H   UNL     1       5.886  32.431  59.252  1.00  0.00     0.156 HD
BRANCH   8  10
HETATM   10  N   UNL     1       6.383  31.716  61.100  1.00  0.00    -0.281 N 
HETATM   11  C   UNL     1       5.360  32.335  61.779  1.00  0.00     0.255 C 
HETATM   12  O   UNL     1       4.331  32.735  61.246  1.00  0.00    -0.267 OA
HETATM   13  H   UNL     1       7.285  31.462  61.496  1.00  0.00     0.184 HD
BRANCH  11  14
HETATM   14  C   UNL     1       5.638  32.479  63.231  1.00  0.00     0.076 C 
HETATM   15  C   UNL     1       5.212  33.571  63.886  1.00  0.00     0.017 C 
BRANCH  15  16
HETATM   16  C   UNL     1       5.430  33.855  65.314  1.00  0.00    -0.036 A 
HETATM   17  C   UNL     1       4.306  34.006  66.141  1.00  0.00     0.013 A 
HETATM   18  C   UNL     1       4.448  34.262  67.510  1.00  0.00     0.024 A 
HETATM   19  C   UNL     1       5.720  34.363  68.064  1.00  0.00     0.034 A 
HETATM   20 CL   UNL     1       5.899  34.682  69.745  1.00  0.00    -0.084 Cl
HETATM   21  C   UNL     1       6.848  34.204  67.265  1.00  0.00     0.024 A 
HETATM   22  C   UNL     1       6.704  33.945  65.897  1.00  0.00     0.013 A 
ENDBRANCH  15  16
ENDBRANCH  11  14
ENDBRANCH   8  10
ENDBRANCH   3   8
BRANCH   1  23
HETATM   23  C   UNL     1       8.504  28.670  56.705  1.00  0.00     0.276 C 
HETATM   24  N   UNL     1       8.149  27.496  57.352  1.00  0.00    -0.322 N 
HETATM   25  H   UNL     1       8.012  27.591  58.355  1.00  0.00     0.169 HD
HETATM   26  O   UNL     1       8.704  28.792  55.505  1.00  0.00    -0.266 OA
BRANCH  24  27
HETATM   27  C   UNL     1       7.962  26.215  56.797  1.00  0.00     0.035 A 
HETATM   28  C   UNL     1       7.150  25.953  55.692  1.00  0.00     0.037 A 
HETATM   29  C   UNL     1       7.012  24.650  55.178  1.00  0.00    -0.054 A 
HETATM   30  C   UNL     1       7.679  23.582  55.807  1.00  0.00    -0.056 A 
HETATM   31  C   UNL     1       6.115  24.430  53.988  1.00  0.00     0.049 C 
HETATM   32  C   UNL     1       7.556  22.170  55.307  1.00  0.00     0.049 C 
HETATM   33  C   UNL     1       8.502  23.852  56.908  1.00  0.00     0.009 A 
HETATM   34  C   UNL     1       8.642  25.154  57.396  1.00  0.00     0.030 A 
ENDBRANCH  24  27
ENDBRANCH   1  23
TORSDOF 6
ENDMDL
MODEL 4
REMARK VINA RESULT:     -10.4      2.551     11.924
REMARK  6 active torsions:
REMARK  status: ('A' for Active; 'I' for Inactive)
REMARK    1  A    between atoms: C_6  and  N_7 
REMARK       I    between atoms: N_7  and  C_8 
REMARK    2  A    between atoms: C_8  and  C_9 
REMARK    3  A    between atoms: C_11  and  N_12 
REMARK    4  A    between atoms: N_12  and  N_13 
REMARK       I    between atoms: N_13  and  C_14 
REMARK    5  A    between atoms: C_14  and  C_15 
REMARK    6  A    between atoms: C_16  and  C_17 
ROOT
HETATM    1  C   UNL     1       7.496  31.527  59.866  1.00  0.00     0.151 A 
HETATM    2  N   UNL     1       6.794  31.067  58.781  1.00  0.00    -0.210 NA
HETATM    3  C   UNL     1       7.481  30.407  57.844  1.00  0.00     0.220 A 
HETATM    4  N   UNL     1       8.801  30.156  57.929  1.00  0.00    -0.228 NA
HETATM    5  C   UNL     1       9.449  30.617  59.021  1.00  0.00     0.146 A 
HETATM    6  C   UNL     1       8.851  31.323  60.040  1.00  0.00     0.086 A 
HETATM    7 CL   UNL     1       9.824  31.838  61.354  1.00  0.00    -0.080 Cl
ENDROOT
BRANCH   3   8
HETATM    8  N   UNL     1       6.784  29.974  56.708  1.00  0.00    -0.169 NA
HETATM    9  H   UNL     1       5.783  29.940  56.908  1.00  0.00     0.156 HD
BRANCH   8  10
HETATM   10  N   UNL     1       7.292  28.779  56.168  1.00  0.00    -0.281 N 
HETATM   11  C   UNL     1       6.534  27.639  56.297  1.00  0.00     0.255 C 
HETATM   12  O   UNL     1       5.417  27.617  56.801  1.00  0.00    -0.267 OA
HETATM   13  H   UNL     1       8.256  28.813  55.845  1.00  0.00     0.184 HD
BRANCH  11  14
HETATM   14  C   UNL     1       7.219  26.430  55.771  1.00  0.00     0.076 C 
HETATM   15  C   UNL     1       6.492  25.410  55.289  1.00  0.00     0.017 C 
BRANCH  15  16
HETATM   16  C   UNL     1       7.032  24.148  54.755  1.00  0.00    -0.036 A 
HETATM   17  C   UNL     1       7.346  24.085  53.388  1.00  0.00     0.013 A 
HETATM   18  C   UNL     1       7.877  22.919  52.824  1.00  0.00     0.024 A 
HETATM   19  C   UNL     1       8.105  21.806  53.627  1.00  0.00     0.034 A 
HETATM   20 CL   UNL     1       8.753  20.370  52.938  1.00  0.00    -0.084 Cl
HETATM   21  C   UNL     1       7.813  21.851  54.987  1.00  0.00     0.024 A 
HETATM   22  C   UNL     1       7.285  23.020  55.550  1.00  0.00     0.013 A 
ENDBRANCH  15  16
ENDBRANCH  11  14
ENDBRANCH   8  10
ENDBRANCH   3   8
BRANCH   1  23
HETATM   23  C   UNL     1       6.648  32.293  60.851  1.00  0.00     0.276 C 
HETATM   24  N   UNL     1       7.194  32.324  62.125  1.00  0.00    -0.322 N 
HETATM   25  H   UNL     1       8.084  31.843  62.215  1.00  0.00     0.169 HD
HETATM   26  O   UNL     1       5.595  32.814  60.510  1.00  0.00    -0.266 OA
BRANCH  24  27
HETATM   27  C   UNL     1       6.669  32.926  63.285  1.00  0.00     0.035 A 
HETATM   28  C   UNL     1       5.346  33.351  63.414  1.00  0.00     0.037 A 
HETATM   29  C   UNL     1       4.879  33.939  64.606  1.00  0.00    -0.054 A 
HETATM   30  C   UNL     1       5.770  34.132  65.678  1.00  0.00    -0.056 A 
HETATM   31  C   UNL     1       3.443  34.385  64.681  1.00  0.00     0.049 C 
HETATM   32  C   UNL     1       5.327  34.767  66.968  1.00  0.00     0.049 C 
HETATM   33  C   UNL     1       7.093  33.693  65.548  1.00  0.00     0.009 A 
HETATM   34  C   UNL     1       7.537  33.096  64.365  1.00  0.00     0.030 A 
ENDBRANCH  24  27
ENDBRANCH   1  23
TORSDOF 6
ENDMDL
MODEL 5
REMARK VINA RESULT:     -10.2      1.789      1.951
REMARK  6 active torsions:
REMARK  status: ('A' for Active; 'I' for Inactive)
REMARK    1  A    between atoms: C_6  and  N_7 
REMARK       I    between atoms: N_7  and  C_8 
REMARK    2  A    between atoms: C_8  and  C_9 
REMARK    3  A    between atoms: C_11  and  N_12 
REMARK    4  A    between atoms: N_12  and  N_13 
REMARK       I    between atoms: N_13  and  C_14 
REMARK    5  A    between atoms: C_14  and  C_15 
REMARK    6  A    between atoms: C_16  and  C_17 
ROOT
HETATM    1  C   UNL     1       5.338  27.563  54.920  1.00  0.00     0.151 A 
HETATM    2  N   UNL     1       6.025  27.757  56.091  1.00  0.00    -0.210 NA
HETATM    3  C   UNL     1       5.990  28.982  56.624  1.00  0.00     0.220 A 
HETATM    4  N   UNL     1       5.304  30.007  56.085  1.00  0.00    -0.228 NA
HETATM    5  C   UNL     1       4.634  29.767  54.937  1.00  0.00     0.146 A 
HETATM    6  C   UNL     1       4.610  28.553  54.290  1.00  0.00     0.086 A 
HETATM    7 CL   UNL     1       3.708  28.422  52.837  1.00  0.00    -0.080 Cl
ENDROOT
BRANCH   3   8
HETATM    8  N   UNL     1       6.727  29.205  57.794  1.00  0.00    -0.169 NA
HETATM    9  H   UNL     1       6.762  28.348  58.350  1.00  0.00     0.156 HD
BRANCH   8  10
HETATM   10  N   UNL     1       6.291  30.329  58.518  1.00  0.00    -0.281 N 
HETATM   11  C   UNL     1       7.242  31.208  58.981  1.00  0.00     0.255 C 
HETATM   12  O   UNL     1       8.441  31.099  58.747  1.00  0.00    -0.267 OA
HETATM   13  H   UNL     1       5.307  30.337  58.775  1.00  0.00     0.184 HD
BRANCH  11  14
HETATM   14  C   UNL     1       6.665  32.298  59.807  1.00  0.00     0.076 C 
HETATM   15  C   UNL     1       6.981  32.387  61.109  1.00  0.00     0.017 C 
BRANCH  15  16
HETATM   16  C   UNL     1       6.472  33.400  62.049  1.00  0.00    -0.036 A 
HETATM   17  C   UNL     1       5.430  34.238  61.623  1.00  0.00     0.013 A 
HETATM   18  C   UNL     1       4.893  35.209  62.476  1.00  0.00     0.024 A 
HETATM   19  C   UNL     1       5.392  35.346  63.767  1.00  0.00     0.034 A 
HETATM   20 CL   UNL     1       4.738  36.541  64.817  1.00  0.00    -0.084 Cl
HETATM   21  C   UNL     1       6.417  34.516  64.214  1.00  0.00     0.024 A 
HETATM   22  C   UNL     1       6.949  33.543  63.361  1.00  0.00     0.013 A 
ENDBRANCH  15  16
ENDBRANCH  11  14
ENDBRANCH   8  10
ENDBRANCH   3   8
BRANCH   1  23
HETATM   23  C   UNL     1       5.465  26.163  54.373  1.00  0.00     0.276 C 
HETATM   24  N   UNL     1       6.662  25.554  54.720  1.00  0.00    -0.322 N 
HETATM   25  H   UNL     1       7.273  26.123  55.299  1.00  0.00     0.169 HD
HETATM   26  O   UNL     1       4.577  25.662  53.697  1.00  0.00    -0.266 OA
BRANCH  24  27
HETATM   27  C   UNL     1       7.120  24.269  54.371  1.00  0.00     0.035 A 
HETATM   28  C   UNL     1       7.205  23.200  55.264  1.00  0.00     0.037 A 
HETATM   29  C   UNL     1       7.664  21.935  54.850  1.00  0.00    -0.054 A 
HETATM   30  C   UNL     1       8.076  21.749  53.517  1.00  0.00    -0.056 A 
HETATM   31  C   UNL     1       7.740  20.823  55.863  1.00  0.00     0.049 C 
HETATM   32  C   UNL     1       8.587  20.423  53.026  1.00  0.00     0.049 C 
HETATM   33  C   UNL     1       7.978  22.822  52.622  1.00  0.00     0.009 A 
HETATM   34  C   UNL     1       7.505  24.067  53.044  1.00  0.00     0.030 A 
ENDBRANCH  24  27
ENDBRANCH   1  23
TORSDOF 6
ENDMDL
MODEL 6
REMARK VINA RESULT:     -10.1      2.264      2.725
REMARK  6 active torsions:
REMARK  status: ('A' for Active; 'I' for Inactive)
REMARK    1  A    between atoms: C_6  and  N_7 
REMARK       I    between atoms: N_7  and  C_8 
REMARK    2  A    between atoms: C_8  and  C_9 
REMARK    3  A    between atoms: C_11  and  N_12 
REMARK    4  A    between atoms: N_12  and  N_13 
REMARK       I    between atoms: N_13  and  C_14 
REMARK    5  A    between atoms: C_14  and  C_15 
REMARK    6  A    between atoms: C_16  and  C_17 
ROOT
HETATM    1  C   UNL     1       6.438  27.506  57.011  1.00  0.00     0.151 A 
HETATM    2  N   UNL     1       5.168  28.009  57.135  1.00  0.00    -0.210 NA
HETATM    3  C   UNL     1       5.052  29.302  57.452  1.00  0.00     0.220 A 
HETATM    4  N   UNL     1       6.105  30.122  57.626  1.00  0.00    -0.228 NA
HETATM    5  C   UNL     1       7.337  29.585  57.483  1.00  0.00     0.146 A 
HETATM    6  C   UNL     1       7.578  28.266  57.175  1.00  0.00     0.086 A 
HETATM    7 CL   UNL     1       9.207  27.748  57.033  1.00  0.00    -0.080 Cl
ENDROOT
BRANCH   3   8
HETATM    8  N   UNL     1       3.760  29.817  57.628  1.00  0.00    -0.169 NA
HETATM    9  H   UNL     1       3.459  30.298  56.779  1.00  0.00     0.156 HD
BRANCH   8  10
HETATM   10  N   UNL     1       3.628  30.594  58.793  1.00  0.00    -0.281 N 
HETATM   11  C   UNL     1       3.378  31.938  58.647  1.00  0.00     0.255 C 
HETATM   12  O   UNL     1       3.205  32.485  57.564  1.00  0.00    -0.267 OA
HETATM   13  H   UNL     1       3.871  30.130  59.665  1.00  0.00     0.184 HD
BRANCH  11  14
HETATM   14  C   UNL     1       3.353  32.663  59.943  1.00  0.00     0.076 C 
HETATM   15  C   UNL     1       4.136  32.251  60.952  1.00  0.00     0.017 C 
BRANCH  15  16
HETATM   16  C   UNL     1       4.202  32.858  62.292  1.00  0.00    -0.036 A 
HETATM   17  C   UNL     1       3.160  33.713  62.687  1.00  0.00     0.013 A 
HETATM   18  C   UNL     1       3.157  34.308  63.953  1.00  0.00     0.024 A 
HETATM   19  C   UNL     1       4.197  34.048  64.840  1.00  0.00     0.034 A 
HETATM   20 CL   UNL     1       4.200  34.781  66.396  1.00  0.00    -0.084 Cl
HETATM   21  C   UNL     1       5.234  33.194  64.474  1.00  0.00     0.024 A 
HETATM   22  C   UNL     1       5.232  32.596  63.208  1.00  0.00     0.013 A 
ENDBRANCH  15  16
ENDBRANCH  11  14
ENDBRANCH   8  10
ENDBRANCH   3   8
BRANCH   1  23
HETATM   23  C   UNL     1       6.471  26.031  56.691  1.00  0.00     0.276 C 
HETATM   24  N   UNL     1       7.276  25.734  55.602  1.00  0.00    -0.322 N 
HETATM   25  H   UNL     1       7.736  26.537  55.184  1.00  0.00     0.169 HD
HETATM   26  O   UNL     1       5.836  25.224  57.354  1.00  0.00    -0.266 OA
BRANCH  24  27
HETATM   27  C   UNL     1       7.523  24.476  55.018  1.00  0.00     0.035 A 
HETATM   28  C   UNL     1       8.005  23.370  55.719  1.00  0.00     0.037 A 
HETATM   29  C   UNL     1       8.223  22.135  55.078  1.00  0.00    -0.054 A 
HETATM   30  C   UNL     1       7.981  22.019  53.697  1.00  0.00    -0.056 A 
HETATM   31  C   UNL     1       8.752  20.981  55.888  1.00  0.00     0.049 C 
HETATM   32  C   UNL     1       8.209  20.728  52.961  1.00  0.00     0.049 C 
HETATM   33  C   UNL     1       7.485  23.129  53.000  1.00  0.00     0.009 A 
HETATM   34  C   UNL     1       7.258  24.343  53.653  1.00  0.00     0.030 A 
ENDBRANCH  24  27
ENDBRANCH   1  23
TORSDOF 6
ENDMDL
MODEL 7
REMARK VINA RESULT:     -10.1      3.314      4.459
REMARK  6 active torsions:
REMARK  status: ('A' for Active; 'I' for Inactive)
REMARK    1  A    between atoms: C_6  and  N_7 
REMARK       I    between atoms: N_7  and  C_8 
REMARK    2  A    between atoms: C_8  and  C_9 
REMARK    3  A    between atoms: C_11  and  N_12 
REMARK    4  A    between atoms: N_12  and  N_13 
REMARK       I    between atoms: N_13  and  C_14 
REMARK    5  A    between atoms: C_14  and  C_15 
REMARK    6  A    between atoms: C_16  and  C_17 
ROOT
HETATM    1  C   UNL     1       7.520  27.134  55.366  1.00  0.00     0.151 A 
HETATM    2  N   UNL     1       8.094  28.354  55.619  1.00  0.00    -0.210 NA
HETATM    3  C   UNL     1       8.286  28.685  56.899  1.00  0.00     0.220 A 
HETATM    4  N   UNL     1       7.971  27.879  57.930  1.00  0.00    -0.228 NA
HETATM    5  C   UNL     1       7.419  26.682  57.633  1.00  0.00     0.146 A 
HETATM    6  C   UNL     1       7.159  26.242  56.355  1.00  0.00     0.086 A 
HETATM    7 CL   UNL     1       6.450  24.693  56.156  1.00  0.00    -0.080 Cl
ENDROOT
BRANCH   3   8
HETATM    8  N   UNL     1       8.827  29.948  57.172  1.00  0.00    -0.169 NA
HETATM    9  H   UNL     1       9.828  29.950  56.964  1.00  0.00     0.156 HD
BRANCH   8  10
HETATM   10  N   UNL     1       8.519  30.417  58.462  1.00  0.00    -0.281 N 
HETATM   11  C   UNL     1       9.267  31.454  58.967  1.00  0.00     0.255 C 
HETATM   12  O   UNL     1      10.145  32.032  58.337  1.00  0.00    -0.267 OA
HETATM   13  H   UNL     1       7.855  29.856  58.990  1.00  0.00     0.184 HD
BRANCH  11  14
HETATM   14  C   UNL     1       8.908  31.793  60.368  1.00  0.00     0.076 C 
HETATM   15  C   UNL     1       7.865  32.603  60.611  1.00  0.00     0.017 C 
BRANCH  15  16
HETATM   16  C   UNL     1       7.407  33.038  61.941  1.00  0.00    -0.036 A 
HETATM   17  C   UNL     1       8.060  32.521  63.071  1.00  0.00     0.013 A 
HETATM   18  C   UNL     1       7.681  32.907  64.362  1.00  0.00     0.024 A 
HETATM   19  C   UNL     1       6.646  33.821  64.532  1.00  0.00     0.034 A 
HETATM   20 CL   UNL     1       6.175  34.296  66.117  1.00  0.00    -0.084 Cl
HETATM   21  C   UNL     1       5.994  34.356  63.426  1.00  0.00     0.024 A 
HETATM   22  C   UNL     1       6.377  33.971  62.135  1.00  0.00     0.013 A 
ENDBRANCH  15  16
ENDBRANCH  11  14
ENDBRANCH   8  10
ENDBRANCH   3   8
BRANCH   1  23
HETATM   23  C   UNL     1       7.306  26.864  53.897  1.00  0.00     0.276 C 
HETATM   24  N   UNL     1       6.228  27.558  53.371  1.00  0.00    -0.322 N 
HETATM   25  H   UNL     1       5.745  28.156  54.037  1.00  0.00     0.169 HD
HETATM   26  O   UNL     1       8.036  26.101  53.280  1.00  0.00    -0.266 OA
BRANCH  24  27
HETATM   27  C   UNL     1       5.731  27.532  52.054  1.00  0.00     0.035 A 
HETATM   28  C   UNL     1       5.590  28.662  51.249  1.00  0.00     0.037 A 
HETATM   29  C   UNL     1       5.095  28.568  49.934  1.00  0.00    -0.054 A 
HETATM   30  C   UNL     1       4.704  27.314  49.429  1.00  0.00    -0.056 A 
HETATM   31  C   UNL     1       4.958  29.826  49.118  1.00  0.00     0.049 C 
HETATM   32  C   UNL     1       4.157  27.159  48.037  1.00  0.00     0.049 C 
HETATM   33  C   UNL     1       4.859  26.180  50.237  1.00  0.00     0.009 A 
HETATM   34  C   UNL     1       5.367  26.288  51.534  1.00  0.00     0.030 A 
ENDBRANCH  24  27
ENDBRANCH   1  23
TORSDOF 6
ENDMDL
MODEL 8
REMARK VINA RESULT:      -9.9      8.019     12.178
REMARK  6 active torsions:
REMARK  status: ('A' for Active; 'I' for Inactive)
REMARK    1  A    between atoms: C_6  and  N_7 
REMARK       I    between atoms: N_7  and  C_8 
REMARK    2  A    between atoms: C_8  and  C_9 
REMARK    3  A    between atoms: C_11  and  N_12 
REMARK    4  A    between atoms: N_12  and  N_13 
REMARK       I    between atoms: N_13  and  C_14 
REMARK    5  A    between atoms: C_14  and  C_15 
REMARK    6  A    between atoms: C_16  and  C_17 
ROOT
HETATM    1  C   UNL     1       5.502  26.735  51.990  1.00  0.00     0.151 A 
HETATM    2  N   UNL     1       5.417  26.603  50.627  1.00  0.00    -0.210 NA
HETATM    3  C   UNL     1       5.360  27.728  49.907  1.00  0.00     0.220 A 
HETATM    4  N   UNL     1       5.408  28.959  50.448  1.00  0.00    -0.228 NA
HETATM    5  C   UNL     1       5.504  29.041  51.793  1.00  0.00     0.146 A 
HETATM    6  C   UNL     1       5.553  27.954  52.636  1.00  0.00     0.086 A 
HETATM    7 CL   UNL     1       5.671  28.238  54.323  1.00  0.00    -0.080 Cl
ENDROOT
BRANCH   3   8
HETATM    8  N   UNL     1       5.224  27.605  48.518  1.00  0.00    -0.169 NA
HETATM    9  H   UNL     1       5.957  28.141  48.049  1.00  0.00     0.156 HD
BRANCH   8  10
HETATM   10  N   UNL     1       3.928  27.901  48.060  1.00  0.00    -0.281 N 
HETATM   11  C   UNL     1       3.241  26.918  47.387  1.00  0.00     0.255 C 
HETATM   12  O   UNL     1       3.670  25.782  47.217  1.00  0.00    -0.267 OA
HETATM   13  H   UNL     1       3.643  28.875  48.133  1.00  0.00     0.184 HD
BRANCH  11  14
HETATM   14  C   UNL     1       1.927  27.382  46.875  1.00  0.00     0.076 C 
HETATM   15  C   UNL     1       1.560  28.662  47.045  1.00  0.00     0.017 C 
BRANCH  15  16
HETATM   16  C   UNL     1       0.284  29.255  46.607  1.00  0.00    -0.036 A 
HETATM   17  C   UNL     1      -0.484  28.558  45.662  1.00  0.00     0.013 A 
HETATM   18  C   UNL     1      -1.712  29.061  45.218  1.00  0.00     0.024 A 
HETATM   19  C   UNL     1      -2.185  30.268  45.723  1.00  0.00     0.034 A 
HETATM   20 CL   UNL     1      -3.692  30.893  45.178  1.00  0.00    -0.084 Cl
HETATM   21  C   UNL     1      -1.446  30.970  46.671  1.00  0.00     0.024 A 
HETATM   22  C   UNL     1      -0.219  30.462  47.116  1.00  0.00     0.013 A 
ENDBRANCH  15  16
ENDBRANCH  11  14
ENDBRANCH   8  10
ENDBRANCH   3   8
BRANCH   1  23
HETATM   23  C   UNL     1       5.521  25.416  52.722  1.00  0.00     0.276 C 
HETATM   24  N   UNL     1       6.805  24.969  52.997  1.00  0.00    -0.322 N 
HETATM   25  H   UNL     1       7.545  25.591  52.683  1.00  0.00     0.169 HD
HETATM   26  O   UNL     1       4.484  24.840  53.018  1.00  0.00    -0.266 OA
BRANCH  24  27
HETATM   27  C   UNL     1       7.195  23.781  53.643  1.00  0.00     0.035 A 
HETATM   28  C   UNL     1       7.653  22.643  52.976  1.00  0.00     0.037 A 
HETATM   29  C   UNL     1       8.039  21.487  53.681  1.00  0.00    -0.054 A 
HETATM   30  C   UNL     1       7.931  21.463  55.085  1.00  0.00    -0.056 A 
HETATM   31  C   UNL     1       8.516  20.288  52.905  1.00  0.00     0.049 C 
HETATM   32  C   UNL     1       8.316  20.250  55.885  1.00  0.00     0.049 C 
HETATM   33  C   UNL     1       7.482  22.611  55.750  1.00  0.00     0.009 A 
HETATM   34  C   UNL     1       7.120  23.757  55.037  1.00  0.00     0.030 A 
ENDBRANCH  24  27
ENDBRANCH   1  23
TORSDOF 6
ENDMDL
MODEL 9
REMARK VINA RESULT:      -9.8      3.357      4.658
REMARK  6 active torsions:
REMARK  status: ('A' for Active; 'I' for Inactive)
REMARK    1  A    between atoms: C_6  and  N_7 
REMARK       I    between atoms: N_7  and  C_8 
REMARK    2  A    between atoms: C_8  and  C_9 
REMARK    3  A    between atoms: C_11  and  N_12 
REMARK    4  A    between atoms: N_12  and  N_13 
REMARK       I    between atoms: N_13  and  C_14 
REMARK    5  A    between atoms: C_14  and  C_15 
REMARK    6  A    between atoms: C_16  and  C_17 
ROOT
HETATM    1  C   UNL     1       5.629  27.539  52.668  1.00  0.00     0.151 A 
HETATM    2  N   UNL     1       5.485  28.687  53.404  1.00  0.00    -0.210 NA
HETATM    3  C   UNL     1       4.635  29.608  52.939  1.00  0.00     0.220 A 
HETATM    4  N   UNL     1       3.911  29.450  51.815  1.00  0.00    -0.228 NA
HETATM    5  C   UNL     1       4.077  28.298  51.129  1.00  0.00     0.146 A 
HETATM    6  C   UNL     1       4.934  27.288  51.502  1.00  0.00     0.086 A 
HETATM    7 CL   UNL     1       5.025  25.891  50.512  1.00  0.00    -0.080 Cl
ENDROOT
BRANCH   3   8
HETATM    8  N   UNL     1       4.515  30.806  53.657  1.00  0.00    -0.169 NA
HETATM    9  H   UNL     1       4.915  31.575  53.117  1.00  0.00     0.156 HD
BRANCH   8  10
HETATM   10  N   UNL     1       5.014  30.717  54.969  1.00  0.00    -0.281 N 
HETATM   11  C   UNL     1       4.122  30.837  56.008  1.00  0.00     0.255 C 
HETATM   12  O   UNL     1       2.911  30.956  55.857  1.00  0.00    -0.267 OA
HETATM   13  H   UNL     1       6.028  30.716  55.058  1.00  0.00     0.184 HD
BRANCH  11  14
HETATM   14  C   UNL     1       4.783  30.821  57.338  1.00  0.00     0.076 C 
HETATM   15  C   UNL     1       5.561  31.850  57.708  1.00  0.00     0.017 C 
BRANCH  15  16
HETATM   16  C   UNL     1       6.290  31.961  58.983  1.00  0.00    -0.036 A 
HETATM   17  C   UNL     1       5.627  32.533  60.080  1.00  0.00     0.013 A 
HETATM   18  C   UNL     1       6.260  32.652  61.322  1.00  0.00     0.024 A 
HETATM   19  C   UNL     1       7.564  32.193  61.478  1.00  0.00     0.034 A 
HETATM   20 CL   UNL     1       8.348  32.341  63.003  1.00  0.00    -0.084 Cl
HETATM   21  C   UNL     1       8.236  31.611  60.407  1.00  0.00     0.024 A 
HETATM   22  C   UNL     1       7.599  31.489  59.167  1.00  0.00     0.013 A 
ENDBRANCH  15  16
ENDBRANCH  11  14
ENDBRANCH   8  10
ENDBRANCH   3   8
BRANCH   1  23
HETATM   23  C   UNL     1       6.636  26.576  53.248  1.00  0.00     0.276 C 
HETATM   24  N   UNL     1       6.114  25.307  53.452  1.00  0.00    -0.322 N 
HETATM   25  H   UNL     1       5.143  25.200  53.173  1.00  0.00     0.169 HD
HETATM   26  O   UNL     1       7.780  26.927  53.496  1.00  0.00    -0.266 OA
BRANCH  24  27
HETATM   27  C   UNL     1       6.757  24.176  53.989  1.00  0.00     0.035 A 
HETATM   28  C   UNL     1       7.181  23.084  53.231  1.00  0.00     0.037 A 
HETATM   29  C   UNL     1       7.829  21.985  53.828  1.00  0.00    -0.054 A 
HETATM   30  C   UNL     1       8.025  21.970  55.222  1.00  0.00    -0.056 A 
HETATM   31  C   UNL     1       8.255  20.833  52.958  1.00  0.00     0.049 C 
HETATM   32  C   UNL     1       8.698  20.815  55.912  1.00  0.00     0.049 C 
HETATM   33  C   UNL     1       7.608  23.073  55.977  1.00  0.00     0.009 A 
HETATM   34  C   UNL     1       6.983  24.164  55.368  1.00  0.00     0.030 A 
ENDBRANCH  24  27
ENDBRANCH   1  23
TORSDOF 6
ENDMDL
MODEL 10
REMARK VINA RESULT:      -9.7      2.894      3.792
REMARK  6 active torsions:
REMARK  status: ('A' for Active; 'I' for Inactive)
REMARK    1  A    between atoms: C_6  and  N_7 
REMARK       I    between atoms: N_7  and  C_8 
REMARK    2  A    between atoms: C_8  and  C_9 
REMARK    3  A    between atoms: C_11  and  N_12 
REMARK    4  A    between atoms: N_12  and  N_13 
REMARK       I    between atoms: N_13  and  C_14 
REMARK    5  A    between atoms: C_14  and  C_15 
REMARK    6  A    between atoms: C_16  and  C_17 
ROOT
HETATM    1  C   UNL     1       8.128  29.638  57.364  1.00  0.00     0.151 A 
HETATM    2  N   UNL     1       7.007  30.203  57.917  1.00  0.00    -0.210 NA
HETATM    3  C   UNL     1       7.189  31.231  58.751  1.00  0.00     0.220 A 
HETATM    4  N   UNL     1       8.399  31.742  59.048  1.00  0.00    -0.228 NA
HETATM    5  C   UNL     1       9.474  31.161  58.471  1.00  0.00     0.146 A 
HETATM    6  C   UNL     1       9.410  30.089  57.610  1.00  0.00     0.086 A 
HETATM    7 CL   UNL     1      10.875  29.472  56.969  1.00  0.00    -0.080 Cl
ENDROOT
BRANCH   3   8
HETATM    8  N   UNL     1       6.055  31.785  59.359  1.00  0.00    -0.169 NA
HETATM    9  H   UNL     1       5.846  32.694  58.942  1.00  0.00     0.156 HD
BRANCH   8  10
HETATM   10  N   UNL     1       6.138  31.815  60.763  1.00  0.00    -0.281 N 
HETATM   11  C   UNL     1       5.509  32.844  61.425  1.00  0.00     0.255 C 
HETATM   12  O   UNL     1       4.833  33.700  60.867  1.00  0.00    -0.267 OA
HETATM   13  H   UNL     1       6.782  31.149  61.184  1.00  0.00     0.184 HD
BRANCH  11  14
HETATM   14  C   UNL     1       5.749  32.816  62.890  1.00  0.00     0.076 C 
HETATM   15  C   UNL     1       5.370  33.858  63.647  1.00  0.00     0.017 C 
BRANCH  15  16
HETATM   16  C   UNL     1       5.559  33.976  65.103  1.00  0.00    -0.036 A 
HETATM   17  C   UNL     1       4.420  33.981  65.923  1.00  0.00     0.013 A 
HETATM   18  C   UNL     1       4.534  34.074  67.314  1.00  0.00     0.024 A 
HETATM   19  C   UNL     1       5.794  34.158  67.899  1.00  0.00     0.034 A 
HETATM   20 CL   UNL     1       5.939  34.277  69.609  1.00  0.00    -0.084 Cl
HETATM   21  C   UNL     1       6.937  34.141  67.106  1.00  0.00     0.024 A 
HETATM   22  C   UNL     1       6.820  34.044  65.714  1.00  0.00     0.013 A 
ENDBRANCH  15  16
ENDBRANCH  11  14
ENDBRANCH   8  10
ENDBRANCH   3   8
BRANCH   1  23
HETATM   23  C   UNL     1       7.829  28.462  56.467  1.00  0.00     0.276 C 
HETATM   24  N   UNL     1       7.197  28.829  55.289  1.00  0.00    -0.322 N 
HETATM   25  H   UNL     1       7.036  29.827  55.188  1.00  0.00     0.169 HD
HETATM   26  O   UNL     1       8.133  27.324  56.792  1.00  0.00    -0.266 OA
BRANCH  24  27
HETATM   27  C   UNL     1       6.757  27.998  54.240  1.00  0.00     0.035 A 
HETATM   28  C   UNL     1       7.489  26.923  53.735  1.00  0.00     0.037 A 
HETATM   29  C   UNL     1       6.990  26.123  52.690  1.00  0.00    -0.054 A 
HETATM   30  C   UNL     1       5.741  26.431  52.118  1.00  0.00    -0.056 A 
HETATM   31  C   UNL     1       7.831  24.981  52.184  1.00  0.00     0.049 C 
HETATM   32  C   UNL     1       5.167  25.618  50.990  1.00  0.00     0.049 C 
HETATM   33  C   UNL     1       5.005  27.505  52.635  1.00  0.00     0.009 A 
HETATM   34  C   UNL     1       5.507  28.278  53.685  1.00  0.00     0.030 A 
ENDBRANCH  24  27
ENDBRANCH   1  23
TORSDOF 6
ENDMDL
