MODEL 1
REMARK VINA RESULT:      -7.6      0.000      0.000
REMARK  8 active torsions:
REMARK  status: ('A' for Active; 'I' for Inactive)
REMARK    1  A    between atoms: C_2  and  O_3 
REMARK    2  A    between atoms: O_3  and  C_4 
REMARK       I    between atoms: C_4  and  N_5 
REMARK    3  A    between atoms: C_8  and  N_9 
REMARK       I    between atoms: N_9  and  C_10 
REMARK    4  A    between atoms: C_10  and  C_11 
REMARK    5  A    between atoms: C_12  and  C_13 
REMARK    6  A    between atoms: N_18  and  C_19 
REMARK    7  A    between atoms: C_19  and  C_20 
REMARK    8  A    between atoms: C_20  and  O_21 
ROOT
HETATM    1  C   UNL     1       4.151  33.555  62.765  1.00  0.00     0.139 C 
HETATM    2  C   UNL     1       3.932  34.474  61.546  1.00  0.00     0.145 C 
HETATM    3  N   UNL     1       4.392  33.757  60.349  1.00  0.00    -0.335 N 
HETATM    4  C   UNL     1       5.601  33.063  60.364  1.00  0.00     0.255 C 
HETATM    5  O   UNL     1       6.036  32.448  59.396  1.00  0.00    -0.267 OA
HETATM    6  C   UNL     1       6.330  33.008  61.670  1.00  0.00     0.039 A 
HETATM    7  C   UNL     1       5.629  33.220  62.880  1.00  0.00    -0.027 A 
HETATM    8  C   UNL     1       7.686  32.671  61.678  1.00  0.00     0.017 A 
HETATM    9  C   UNL     1       8.360  32.550  62.891  1.00  0.00     0.001 A 
HETATM   10  C   UNL     1       7.675  32.739  64.091  1.00  0.00     0.001 A 
HETATM   11  C   UNL     1       6.313  33.059  64.090  1.00  0.00     0.009 A 
ENDROOT
BRANCH   1  12
HETATM   12  C   UNL     1       3.381  34.109  63.952  1.00  0.00     0.229 C 
HETATM   13  N   UNL     1       4.206  34.746  64.864  1.00  0.00    -0.356 N 
HETATM   14  H   UNL     1       5.187  34.852  64.611  1.00  0.00     0.162 HD
HETATM   15  O   UNL     1       2.174  33.987  64.108  1.00  0.00    -0.273 OA
BRANCH  13  16
HETATM   16  C   UNL     1       3.830  35.267  66.176  1.00  0.00     0.087 C 
HETATM   17  C   UNL     1       3.449  34.201  67.206  1.00  0.00     0.045 C 
HETATM   18  C   UNL     1       4.586  33.755  68.119  1.00  0.00     0.130 C 
HETATM   19  N   UNL     1       5.361  34.882  68.622  1.00  0.00    -0.328 N 
HETATM   20  C   UNL     1       5.991  34.845  69.860  1.00  0.00     0.362 C 
HETATM   21  C   UNL     1       5.888  35.791  67.617  1.00  0.00     0.130 C 
HETATM   22  O   UNL     1       6.846  35.647  70.217  1.00  0.00    -0.238 OA
HETATM   23  C   UNL     1       4.789  36.332  66.714  1.00  0.00     0.045 C 
BRANCH  20  24
HETATM   24  O   UNL     1       5.538  33.831  70.647  1.00  0.00    -0.304 OA
BRANCH  24  25
HETATM   25  C   UNL     1       6.349  33.507  71.785  1.00  0.00     0.176 C 
HETATM   26  C   UNL     1       7.170  32.260  71.516  1.00  0.00     0.034 C 
ENDBRANCH  24  25
ENDBRANCH  20  24
ENDBRANCH  13  16
ENDBRANCH   1  12
BRANCH   2  27
HETATM   27  C   UNL     1       4.590  35.855  61.591  1.00  0.00     0.006 A 
HETATM   28  S   UNL     1       3.819  37.176  60.784  1.00  0.00    -0.104 SA
HETATM   29  C   UNL     1       5.036  38.276  61.248  1.00  0.00     0.050 A 
HETATM   30  C   UNL     1       5.995  37.682  62.032  1.00  0.00     0.008 A 
HETATM   31  C   UNL     1       5.734  36.295  62.236  1.00  0.00     0.017 A 
ENDBRANCH   2  27
BRANCH   3  32
HETATM   32  C   UNL     1       3.423  33.488  59.283  1.00  0.00     0.153 C 
BRANCH  32  33
HETATM   33  C   UNL     1       3.539  34.505  58.133  1.00  0.00     0.187 C 
BRANCH  33  34
HETATM   34  O   UNL     1       3.929  33.886  56.891  1.00  0.00    -0.394 OA
HETATM   35  C   UNL     1       3.561  32.511  56.835  1.00  0.00     0.201 C 
ENDBRANCH  33  34
ENDBRANCH  32  33
ENDBRANCH   3  32
TORSDOF 8
ENDMDL
MODEL 2
REMARK VINA RESULT:      -7.3      3.370      7.827
REMARK  8 active torsions:
REMARK  status: ('A' for Active; 'I' for Inactive)
REMARK    1  A    between atoms: C_2  and  O_3 
REMARK    2  A    between atoms: O_3  and  C_4 
REMARK       I    between atoms: C_4  and  N_5 
REMARK    3  A    between atoms: C_8  and  N_9 
REMARK       I    between atoms: N_9  and  C_10 
REMARK    4  A    between atoms: C_10  and  C_11 
REMARK    5  A    between atoms: C_12  and  C_13 
REMARK    6  A    between atoms: N_18  and  C_19 
REMARK    7  A    between atoms: C_19  and  C_20 
REMARK    8  A    between atoms: C_20  and  O_21 
ROOT
HETATM    1  C   UNL     1       6.003  34.489  63.196  1.00  0.00     0.139 C 
HETATM    2  C   UNL     1       5.299  35.363  62.138  1.00  0.00     0.145 C 
HETATM    3  N   UNL     1       5.477  36.770  62.521  1.00  0.00    -0.335 N 
HETATM    4  C   UNL     1       5.293  37.169  63.845  1.00  0.00     0.255 C 
HETATM    5  O   UNL     1       5.427  38.328  64.223  1.00  0.00    -0.267 OA
HETATM    6  C   UNL     1       5.014  36.088  64.841  1.00  0.00     0.039 A 
HETATM    7  C   UNL     1       5.382  34.752  64.557  1.00  0.00    -0.027 A 
HETATM    8  C   UNL     1       4.459  36.430  66.077  1.00  0.00     0.017 A 
HETATM    9  C   UNL     1       4.256  35.443  67.040  1.00  0.00     0.001 A 
HETATM   10  C   UNL     1       4.632  34.126  66.777  1.00  0.00     0.001 A 
HETATM   11  C   UNL     1       5.205  33.780  65.549  1.00  0.00     0.009 A 
ENDROOT
BRANCH   1  12
HETATM   12  C   UNL     1       6.141  33.073  62.661  1.00  0.00     0.229 C 
HETATM   13  N   UNL     1       7.458  32.729  62.414  1.00  0.00    -0.356 N 
HETATM   14  H   UNL     1       8.175  33.398  62.690  1.00  0.00     0.162 HD
HETATM   15  O   UNL     1       5.198  32.324  62.443  1.00  0.00    -0.273 OA
BRANCH  13  16
HETATM   16  C   UNL     1       7.944  31.510  61.771  1.00  0.00     0.087 C 
HETATM   17  C   UNL     1       7.241  31.152  60.460  1.00  0.00     0.045 C 
HETATM   18  C   UNL     1       7.939  31.653  59.200  1.00  0.00     0.130 C 
HETATM   19  N   UNL     1       9.377  31.421  59.238  1.00  0.00    -0.328 N 
HETATM   20  C   UNL     1      10.117  31.203  58.083  1.00  0.00     0.362 C 
HETATM   21  C   UNL     1      10.074  31.939  60.405  1.00  0.00     0.130 C 
HETATM   22  O   UNL     1      11.340  31.253  58.033  1.00  0.00    -0.238 OA
HETATM   23  C   UNL     1       9.470  31.416  61.701  1.00  0.00     0.045 C 
BRANCH  20  24
HETATM   24  O   UNL     1       9.333  30.904  57.010  1.00  0.00    -0.304 OA
BRANCH  24  25
HETATM   25  C   UNL     1       9.553  29.620  56.409  1.00  0.00     0.176 C 
HETATM   26  C   UNL     1       8.241  29.018  55.944  1.00  0.00     0.034 C 
ENDBRANCH  24  25
ENDBRANCH  20  24
ENDBRANCH  13  16
ENDBRANCH   1  12
BRANCH   2  27
HETATM   27  C   UNL     1       3.814  35.092  61.891  1.00  0.00     0.006 A 
HETATM   28  S   UNL     1       3.248  34.950  60.263  1.00  0.00    -0.104 SA
HETATM   29  C   UNL     1       1.641  34.669  60.760  1.00  0.00     0.050 A 
HETATM   30  C   UNL     1       1.523  34.639  62.128  1.00  0.00     0.008 A 
HETATM   31  C   UNL     1       2.771  34.874  62.777  1.00  0.00     0.017 A 
ENDBRANCH   2  27
BRANCH   3  32
HETATM   32  C   UNL     1       6.180  37.661  61.595  1.00  0.00     0.153 C 
BRANCH  32  33
HETATM   33  C   UNL     1       5.229  38.258  60.541  1.00  0.00     0.187 C 
BRANCH  33  34
HETATM   34  O   UNL     1       4.191  39.064  61.134  1.00  0.00    -0.394 OA
HETATM   35  C   UNL     1       2.906  38.773  60.592  1.00  0.00     0.201 C 
ENDBRANCH  33  34
ENDBRANCH  32  33
ENDBRANCH   3  32
TORSDOF 8
ENDMDL
MODEL 3
REMARK VINA RESULT:      -6.9     11.937     14.718
REMARK  8 active torsions:
REMARK  status: ('A' for Active; 'I' for Inactive)
REMARK    1  A    between atoms: C_2  and  O_3 
REMARK    2  A    between atoms: O_3  and  C_4 
REMARK       I    between atoms: C_4  and  N_5 
REMARK    3  A    between atoms: C_8  and  N_9 
REMARK       I    between atoms: N_9  and  C_10 
REMARK    4  A    between atoms: C_10  and  C_11 
REMARK    5  A    between atoms: C_12  and  C_13 
REMARK    6  A    between atoms: N_18  and  C_19 
REMARK    7  A    between atoms: C_19  and  C_20 
REMARK    8  A    between atoms: C_20  and  O_21 
ROOT
HETATM    1  C   UNL     1       5.002  29.527  51.083  1.00  0.00     0.139 C 
HETATM    2  C   UNL     1       4.635  30.281  49.788  1.00  0.00     0.145 C 
HETATM    3  N   UNL     1       5.192  31.637  49.879  1.00  0.00    -0.335 N 
HETATM    4  C   UNL     1       5.065  32.373  51.057  1.00  0.00     0.255 C 
HETATM    5  O   UNL     1       5.508  33.509  51.192  1.00  0.00    -0.267 OA
HETATM    6  C   UNL     1       4.436  31.677  52.222  1.00  0.00     0.039 A 
HETATM    7  C   UNL     1       4.416  30.263  52.275  1.00  0.00    -0.027 A 
HETATM    8  C   UNL     1       3.941  32.439  53.284  1.00  0.00     0.017 A 
HETATM    9  C   UNL     1       3.414  31.803  54.405  1.00  0.00     0.001 A 
HETATM   10  C   UNL     1       3.407  30.409  54.476  1.00  0.00     0.001 A 
HETATM   11  C   UNL     1       3.917  29.640  53.424  1.00  0.00     0.009 A 
ENDROOT
BRANCH   1  12
HETATM   12  C   UNL     1       4.752  28.041  50.882  1.00  0.00     0.229 C 
HETATM   13  N   UNL     1       5.411  27.265  51.820  1.00  0.00    -0.356 N 
HETATM   14  H   UNL     1       5.899  27.753  52.569  1.00  0.00     0.162 HD
HETATM   15  O   UNL     1       4.070  27.573  49.981  1.00  0.00    -0.273 OA
BRANCH  13  16
HETATM   16  C   UNL     1       5.507  25.807  51.845  1.00  0.00     0.087 C 
HETATM   17  C   UNL     1       6.907  25.252  51.572  1.00  0.00     0.045 C 
HETATM   18  C   UNL     1       7.736  24.959  52.818  1.00  0.00     0.130 C 
HETATM   19  N   UNL     1       6.963  24.269  53.842  1.00  0.00    -0.328 N 
HETATM   20  C   UNL     1       7.553  23.385  54.737  1.00  0.00     0.362 C 
HETATM   21  C   UNL     1       5.718  24.908  54.239  1.00  0.00     0.130 C 
HETATM   22  O   UNL     1       7.010  22.978  55.757  1.00  0.00    -0.238 OA
HETATM   23  C   UNL     1       4.810  25.163  53.045  1.00  0.00     0.045 C 
BRANCH  20  24
HETATM   24  O   UNL     1       8.799  22.998  54.344  1.00  0.00    -0.304 OA
BRANCH  24  25
HETATM   25  C   UNL     1       9.017  21.584  54.248  1.00  0.00     0.176 C 
HETATM   26  C   UNL     1       8.274  21.010  53.057  1.00  0.00     0.034 C 
ENDBRANCH  24  25
ENDBRANCH  20  24
ENDBRANCH  13  16
ENDBRANCH   1  12
BRANCH   2  27
HETATM   27  C   UNL     1       3.149  30.369  49.435  1.00  0.00     0.006 A 
HETATM   28  S   UNL     1       2.673  30.241  47.777  1.00  0.00    -0.104 SA
HETATM   29  C   UNL     1       1.019  30.410  48.154  1.00  0.00     0.050 A 
HETATM   30  C   UNL     1       0.808  30.523  49.507  1.00  0.00     0.008 A 
HETATM   31  C   UNL     1       2.029  30.491  50.242  1.00  0.00     0.017 A 
ENDBRANCH   2  27
BRANCH   3  32
HETATM   32  C   UNL     1       6.168  32.059  48.871  1.00  0.00     0.153 C 
BRANCH  32  33
HETATM   33  C   UNL     1       5.496  32.791  47.695  1.00  0.00     0.187 C 
BRANCH  33  34
HETATM   34  O   UNL     1       6.357  33.784  47.104  1.00  0.00    -0.394 OA
HETATM   35  C   UNL     1       7.521  34.025  47.888  1.00  0.00     0.201 C 
ENDBRANCH  33  34
ENDBRANCH  32  33
ENDBRANCH   3  32
TORSDOF 8
ENDMDL
MODEL 4
REMARK VINA RESULT:      -6.9     11.232     15.376
REMARK  8 active torsions:
REMARK  status: ('A' for Active; 'I' for Inactive)
REMARK    1  A    between atoms: C_2  and  O_3 
REMARK    2  A    between atoms: O_3  and  C_4 
REMARK       I    between atoms: C_4  and  N_5 
REMARK    3  A    between atoms: C_8  and  N_9 
REMARK       I    between atoms: N_9  and  C_10 
REMARK    4  A    between atoms: C_10  and  C_11 
REMARK    5  A    between atoms: C_12  and  C_13 
REMARK    6  A    between atoms: N_18  and  C_19 
REMARK    7  A    between atoms: C_19  and  C_20 
REMARK    8  A    between atoms: C_20  and  O_21 
ROOT
HETATM    1  C   UNL     1       2.921  28.579  49.417  1.00  0.00     0.139 C 
HETATM    2  C   UNL     1       3.311  30.071  49.458  1.00  0.00     0.145 C 
HETATM    3  N   UNL     1       2.092  30.851  49.712  1.00  0.00    -0.335 N 
HETATM    4  C   UNL     1       0.913  30.560  49.027  1.00  0.00     0.255 C 
HETATM    5  O   UNL     1      -0.134  31.176  49.196  1.00  0.00    -0.267 OA
HETATM    6  C   UNL     1       0.938  29.370  48.119  1.00  0.00     0.039 A 
HETATM    7  C   UNL     1       1.907  28.356  48.308  1.00  0.00    -0.027 A 
HETATM    8  C   UNL     1      -0.050  29.240  47.140  1.00  0.00     0.017 A 
HETATM    9  C   UNL     1      -0.079  28.105  46.334  1.00  0.00     0.001 A 
HETATM   10  C   UNL     1       0.859  27.091  46.524  1.00  0.00     0.001 A 
HETATM   11  C   UNL     1       1.841  27.206  47.514  1.00  0.00     0.009 A 
ENDROOT
BRANCH   1  12
HETATM   12  C   UNL     1       4.181  27.732  49.505  1.00  0.00     0.229 C 
HETATM   13  N   UNL     1       4.266  27.037  50.698  1.00  0.00    -0.356 N 
HETATM   14  H   UNL     1       3.467  27.091  51.328  1.00  0.00     0.162 HD
HETATM   15  O   UNL     1       5.041  27.687  48.637  1.00  0.00    -0.273 OA
BRANCH  13  16
HETATM   16  C   UNL     1       5.396  26.244  51.176  1.00  0.00     0.087 C 
HETATM   17  C   UNL     1       6.514  27.053  51.838  1.00  0.00     0.045 C 
HETATM   18  C   UNL     1       6.420  27.156  53.356  1.00  0.00     0.130 C 
HETATM   19  N   UNL     1       6.106  25.875  53.976  1.00  0.00    -0.328 N 
HETATM   20  C   UNL     1       6.548  25.548  55.251  1.00  0.00     0.362 C 
HETATM   21  C   UNL     1       4.922  25.198  53.471  1.00  0.00     0.130 C 
HETATM   22  O   UNL     1       6.112  24.610  55.908  1.00  0.00    -0.238 OA
HETATM   23  C   UNL     1       4.986  24.997  51.964  1.00  0.00     0.045 C 
BRANCH  20  24
HETATM   24  O   UNL     1       7.538  26.374  55.689  1.00  0.00    -0.304 OA
BRANCH  24  25
HETATM   25  C   UNL     1       7.440  26.808  57.052  1.00  0.00     0.176 C 
HETATM   26  C   UNL     1       8.309  28.028  57.287  1.00  0.00     0.034 C 
ENDBRANCH  24  25
ENDBRANCH  20  24
ENDBRANCH  13  16
ENDBRANCH   1  12
BRANCH   2  27
HETATM   27  C   UNL     1       4.024  30.635  48.227  1.00  0.00     0.006 A 
HETATM   28  S   UNL     1       4.994  32.056  48.400  1.00  0.00    -0.104 SA
HETATM   29  C   UNL     1       5.424  32.063  46.751  1.00  0.00     0.050 A 
HETATM   30  C   UNL     1       4.884  30.996  46.074  1.00  0.00     0.008 A 
HETATM   31  C   UNL     1       4.088  30.172  46.923  1.00  0.00     0.017 A 
ENDBRANCH   2  27
BRANCH   3  32
HETATM   32  C   UNL     1       2.034  31.681  50.918  1.00  0.00     0.153 C 
BRANCH  32  33
HETATM   33  C   UNL     1       3.319  31.560  51.758  1.00  0.00     0.187 C 
BRANCH  33  34
HETATM   34  O   UNL     1       3.073  30.980  53.054  1.00  0.00    -0.394 OA
HETATM   35  C   UNL     1       3.550  29.641  53.145  1.00  0.00     0.201 C 
ENDBRANCH  33  34
ENDBRANCH  32  33
ENDBRANCH   3  32
TORSDOF 8
ENDMDL
MODEL 5
REMARK VINA RESULT:      -6.6     12.486     14.804
REMARK  8 active torsions:
REMARK  status: ('A' for Active; 'I' for Inactive)
REMARK    1  A    between atoms: C_2  and  O_3 
REMARK    2  A    between atoms: O_3  and  C_4 
REMARK       I    between atoms: C_4  and  N_5 
REMARK    3  A    between atoms: C_8  and  N_9 
REMARK       I    between atoms: N_9  and  C_10 
REMARK    4  A    between atoms: C_10  and  C_11 
REMARK    5  A    between atoms: C_12  and  C_13 
REMARK    6  A    between atoms: N_18  and  C_19 
REMARK    7  A    between atoms: C_19  and  C_20 
REMARK    8  A    between atoms: C_20  and  O_21 
ROOT
HETATM    1  C   UNL     1       4.846  30.407  50.191  1.00  0.00     0.139 C 
HETATM    2  C   UNL     1       3.600  29.951  49.404  1.00  0.00     0.145 C 
HETATM    3  N   UNL     1       3.948  29.925  47.977  1.00  0.00    -0.335 N 
HETATM    4  C   UNL     1       4.663  30.978  47.407  1.00  0.00     0.255 C 
HETATM    5  O   UNL     1       4.982  31.013  46.223  1.00  0.00    -0.267 OA
HETATM    6  C   UNL     1       5.130  32.056  48.335  1.00  0.00     0.039 A 
HETATM    7  C   UNL     1       5.257  31.791  49.719  1.00  0.00    -0.027 A 
HETATM    8  C   UNL     1       5.507  33.293  47.806  1.00  0.00     0.017 A 
HETATM    9  C   UNL     1       6.007  34.281  48.650  1.00  0.00     0.001 A 
HETATM   10  C   UNL     1       6.155  34.025  50.013  1.00  0.00     0.001 A 
HETATM   11  C   UNL     1       5.796  32.783  50.547  1.00  0.00     0.009 A 
ENDROOT
BRANCH   1  12
HETATM   12  C   UNL     1       4.637  30.115  51.668  1.00  0.00     0.229 C 
HETATM   13  N   UNL     1       5.071  28.849  52.021  1.00  0.00    -0.356 N 
HETATM   14  H   UNL     1       5.547  28.302  51.305  1.00  0.00     0.162 HD
HETATM   15  O   UNL     1       4.119  30.893  52.457  1.00  0.00    -0.273 OA
BRANCH  13  16
HETATM   16  C   UNL     1       4.899  28.188  53.313  1.00  0.00     0.087 C 
HETATM   17  C   UNL     1       4.410  26.740  53.234  1.00  0.00     0.045 C 
HETATM   18  C   UNL     1       5.514  25.688  53.259  1.00  0.00     0.130 C 
HETATM   19  N   UNL     1       6.518  25.969  54.277  1.00  0.00    -0.328 N 
HETATM   20  C   UNL     1       7.224  24.955  54.911  1.00  0.00     0.362 C 
HETATM   21  C   UNL     1       7.122  27.290  54.226  1.00  0.00     0.130 C 
HETATM   22  O   UNL     1       8.236  25.138  55.577  1.00  0.00    -0.238 OA
HETATM   23  C   UNL     1       6.074  28.393  54.272  1.00  0.00     0.045 C 
BRANCH  20  24
HETATM   24  O   UNL     1       6.655  23.731  54.731  1.00  0.00    -0.304 OA
BRANCH  24  25
HETATM   25  C   UNL     1       7.561  22.647  54.479  1.00  0.00     0.176 C 
HETATM   26  C   UNL     1       7.867  22.542  52.997  1.00  0.00     0.034 C 
ENDBRANCH  24  25
ENDBRANCH  20  24
ENDBRANCH  13  16
ENDBRANCH   1  12
BRANCH   2  27
HETATM   27  C   UNL     1       2.321  30.769  49.596  1.00  0.00     0.006 A 
HETATM   28  S   UNL     1       0.888  30.291  48.754  1.00  0.00    -0.104 SA
HETATM   29  C   UNL     1      -0.028  31.565  49.423  1.00  0.00     0.050 A 
HETATM   30  C   UNL     1       0.710  32.324  50.299  1.00  0.00     0.008 A 
HETATM   31  C   UNL     1       2.055  31.862  50.405  1.00  0.00     0.017 A 
ENDBRANCH   2  27
BRANCH   3  32
HETATM   32  C   UNL     1       3.853  28.652  47.259  1.00  0.00     0.153 C 
BRANCH  32  33
HETATM   33  C   UNL     1       4.967  27.675  47.674  1.00  0.00     0.187 C 
BRANCH  33  34
HETATM   34  O   UNL     1       4.662  26.312  47.319  1.00  0.00    -0.394 OA
HETATM   35  C   UNL     1       3.584  25.783  48.085  1.00  0.00     0.201 C 
ENDBRANCH  33  34
ENDBRANCH  32  33
ENDBRANCH   3  32
TORSDOF 8
ENDMDL
MODEL 6
REMARK VINA RESULT:      -6.5     12.668     14.547
REMARK  8 active torsions:
REMARK  status: ('A' for Active; 'I' for Inactive)
REMARK    1  A    between atoms: C_2  and  O_3 
REMARK    2  A    between atoms: O_3  and  C_4 
REMARK       I    between atoms: C_4  and  N_5 
REMARK    3  A    between atoms: C_8  and  N_9 
REMARK       I    between atoms: N_9  and  C_10 
REMARK    4  A    between atoms: C_10  and  C_11 
REMARK    5  A    between atoms: C_12  and  C_13 
REMARK    6  A    between atoms: N_18  and  C_19 
REMARK    7  A    between atoms: C_19  and  C_20 
REMARK    8  A    between atoms: C_20  and  O_21 
ROOT
HETATM    1  C   UNL     1       3.238  28.887  51.440  1.00  0.00     0.139 C 
HETATM    2  C   UNL     1       2.981  30.349  51.022  1.00  0.00     0.145 C 
HETATM    3  N   UNL     1       1.931  30.348  49.994  1.00  0.00    -0.335 N 
HETATM    4  C   UNL     1       1.967  29.425  48.950  1.00  0.00     0.255 C 
HETATM    5  O   UNL     1       1.120  29.377  48.064  1.00  0.00    -0.267 OA
HETATM    6  C   UNL     1       3.053  28.397  48.997  1.00  0.00     0.039 A 
HETATM    7  C   UNL     1       3.683  28.089  50.227  1.00  0.00    -0.027 A 
HETATM    8  C   UNL     1       3.379  27.698  47.832  1.00  0.00     0.017 A 
HETATM    9  C   UNL     1       4.341  26.691  47.877  1.00  0.00     0.001 A 
HETATM   10  C   UNL     1       4.954  26.366  49.087  1.00  0.00     0.001 A 
HETATM   11  C   UNL     1       4.619  27.050  50.261  1.00  0.00     0.009 A 
ENDROOT
BRANCH   1  12
HETATM   12  C   UNL     1       4.051  28.872  52.725  1.00  0.00     0.229 C 
HETATM   13  N   UNL     1       5.110  27.983  52.667  1.00  0.00    -0.356 N 
HETATM   14  H   UNL     1       5.282  27.519  51.777  1.00  0.00     0.162 HD
HETATM   15  O   UNL     1       3.789  29.544  53.713  1.00  0.00    -0.273 OA
BRANCH  13  16
HETATM   16  C   UNL     1       6.007  27.611  53.759  1.00  0.00     0.087 C 
HETATM   17  C   UNL     1       5.408  26.639  54.779  1.00  0.00     0.045 C 
HETATM   18  C   UNL     1       5.712  25.168  54.519  1.00  0.00     0.130 C 
HETATM   19  N   UNL     1       7.110  24.948  54.173  1.00  0.00    -0.328 N 
HETATM   20  C   UNL     1       7.767  23.764  54.483  1.00  0.00     0.362 C 
HETATM   21  C   UNL     1       7.623  25.742  53.067  1.00  0.00     0.130 C 
HETATM   22  O   UNL     1       8.844  23.432  54.003  1.00  0.00    -0.238 OA
HETATM   23  C   UNL     1       7.416  27.232  53.298  1.00  0.00     0.045 C 
BRANCH  20  24
HETATM   24  O   UNL     1       7.091  23.017  55.400  1.00  0.00    -0.304 OA
BRANCH  24  25
HETATM   25  C   UNL     1       7.891  22.151  56.218  1.00  0.00     0.176 C 
HETATM   26  C   UNL     1       7.613  20.698  55.885  1.00  0.00     0.034 C 
ENDBRANCH  24  25
ENDBRANCH  20  24
ENDBRANCH  13  16
ENDBRANCH   1  12
BRANCH   2  27
HETATM   27  C   UNL     1       4.184  31.146  50.513  1.00  0.00     0.006 A 
HETATM   28  S   UNL     1       4.546  32.672  51.242  1.00  0.00    -0.104 SA
HETATM   29  C   UNL     1       5.900  32.924  50.237  1.00  0.00     0.050 A 
HETATM   30  C   UNL     1       6.112  31.866  49.386  1.00  0.00     0.008 A 
HETATM   31  C   UNL     1       5.133  30.843  49.550  1.00  0.00     0.017 A 
ENDBRANCH   2  27
BRANCH   3  32
HETATM   32  C   UNL     1       0.687  31.073  50.268  1.00  0.00     0.153 C 
BRANCH  32  33
HETATM   33  C   UNL     1       0.865  32.594  50.110  1.00  0.00     0.187 C 
BRANCH  33  34
HETATM   34  O   UNL     1       1.528  32.943  48.879  1.00  0.00    -0.394 OA
HETATM   35  C   UNL     1       0.642  32.917  47.763  1.00  0.00     0.201 C 
ENDBRANCH  33  34
ENDBRANCH  32  33
ENDBRANCH   3  32
TORSDOF 8
ENDMDL
MODEL 7
REMARK VINA RESULT:      -6.5     12.905     16.314
REMARK  8 active torsions:
REMARK  status: ('A' for Active; 'I' for Inactive)
REMARK    1  A    between atoms: C_2  and  O_3 
REMARK    2  A    between atoms: O_3  and  C_4 
REMARK       I    between atoms: C_4  and  N_5 
REMARK    3  A    between atoms: C_8  and  N_9 
REMARK       I    between atoms: N_9  and  C_10 
REMARK    4  A    between atoms: C_10  and  C_11 
REMARK    5  A    between atoms: C_12  and  C_13 
REMARK    6  A    between atoms: N_18  and  C_19 
REMARK    7  A    between atoms: C_19  and  C_20 
REMARK    8  A    between atoms: C_20  and  O_21 
ROOT
HETATM    1  C   UNL     1       1.349  28.845  48.750  1.00  0.00     0.139 C 
HETATM    2  C   UNL     1       1.120  29.751  47.524  1.00  0.00     0.145 C 
HETATM    3  N   UNL     1       0.292  29.012  46.561  1.00  0.00    -0.335 N 
HETATM    4  C   UNL     1       0.569  27.676  46.274  1.00  0.00     0.255 C 
HETATM    5  O   UNL     1      -0.086  27.008  45.480  1.00  0.00    -0.267 OA
HETATM    6  C   UNL     1       1.666  27.031  47.062  1.00  0.00     0.039 A 
HETATM    7  C   UNL     1       2.054  27.574  48.309  1.00  0.00    -0.027 A 
HETATM    8  C   UNL     1       2.241  25.850  46.586  1.00  0.00     0.017 A 
HETATM    9  C   UNL     1       3.216  25.202  47.342  1.00  0.00     0.001 A 
HETATM   10  C   UNL     1       3.593  25.719  48.582  1.00  0.00     0.001 A 
HETATM   11  C   UNL     1       3.008  26.890  49.073  1.00  0.00     0.009 A 
ENDROOT
BRANCH   1  12
HETATM   12  C   UNL     1       1.894  29.683  49.895  1.00  0.00     0.229 C 
HETATM   13  N   UNL     1       2.840  29.003  50.642  1.00  0.00    -0.356 N 
HETATM   14  H   UNL     1       3.127  28.084  50.307  1.00  0.00     0.162 HD
HETATM   15  O   UNL     1       1.525  30.820  50.153  1.00  0.00    -0.273 OA
BRANCH  13  16
HETATM   16  C   UNL     1       3.465  29.447  51.886  1.00  0.00     0.087 C 
HETATM   17  C   UNL     1       3.218  28.534  53.090  1.00  0.00     0.045 C 
HETATM   18  C   UNL     1       4.307  27.498  53.345  1.00  0.00     0.130 C 
HETATM   19  N   UNL     1       5.644  28.069  53.239  1.00  0.00    -0.328 N 
HETATM   20  C   UNL     1       6.713  27.577  53.977  1.00  0.00     0.362 C 
HETATM   21  C   UNL     1       5.939  28.774  52.002  1.00  0.00     0.130 C 
HETATM   22  O   UNL     1       7.886  27.846  53.747  1.00  0.00    -0.238 OA
HETATM   23  C   UNL     1       4.926  29.875  51.725  1.00  0.00     0.045 C 
BRANCH  20  24
HETATM   24  O   UNL     1       6.314  26.777  55.005  1.00  0.00    -0.304 OA
BRANCH  24  25
HETATM   25  C   UNL     1       7.145  25.640  55.276  1.00  0.00     0.176 C 
HETATM   26  C   UNL     1       6.812  24.499  54.334  1.00  0.00     0.034 C 
ENDBRANCH  24  25
ENDBRANCH  20  24
ENDBRANCH  13  16
ENDBRANCH   1  12
BRANCH   2  27
HETATM   27  C   UNL     1       2.366  30.284  46.812  1.00  0.00     0.006 A 
HETATM   28  S   UNL     1       2.185  31.533  45.631  1.00  0.00    -0.104 SA
HETATM   29  C   UNL     1       3.860  31.594  45.319  1.00  0.00     0.050 A 
HETATM   30  C   UNL     1       4.563  30.720  46.113  1.00  0.00     0.008 A 
HETATM   31  C   UNL     1       3.706  29.975  46.976  1.00  0.00     0.017 A 
ENDBRANCH   2  27
BRANCH   3  32
HETATM   32  C   UNL     1      -1.009  29.571  46.187  1.00  0.00     0.153 C 
BRANCH  32  33
HETATM   33  C   UNL     1      -0.922  30.413  44.901  1.00  0.00     0.187 C 
BRANCH  33  34
HETATM   34  O   UNL     1      -1.057  29.611  43.711  1.00  0.00    -0.394 OA
HETATM   35  C   UNL     1      -2.420  29.422  43.340  1.00  0.00     0.201 C 
ENDBRANCH  33  34
ENDBRANCH  32  33
ENDBRANCH   3  32
TORSDOF 8
ENDMDL
MODEL 8
REMARK VINA RESULT:      -6.3     10.413     12.950
REMARK  8 active torsions:
REMARK  status: ('A' for Active; 'I' for Inactive)
REMARK    1  A    between atoms: C_2  and  O_3 
REMARK    2  A    between atoms: O_3  and  C_4 
REMARK       I    between atoms: C_4  and  N_5 
REMARK    3  A    between atoms: C_8  and  N_9 
REMARK       I    between atoms: N_9  and  C_10 
REMARK    4  A    between atoms: C_10  and  C_11 
REMARK    5  A    between atoms: C_12  and  C_13 
REMARK    6  A    between atoms: N_18  and  C_19 
REMARK    7  A    between atoms: C_19  and  C_20 
REMARK    8  A    between atoms: C_20  and  O_21 
ROOT
HETATM    1  C   UNL     1       3.094  29.570  52.089  1.00  0.00     0.139 C 
HETATM    2  C   UNL     1       2.823  30.785  51.179  1.00  0.00     0.145 C 
HETATM    3  N   UNL     1       1.936  30.349  50.091  1.00  0.00    -0.335 N 
HETATM    4  C   UNL     1       2.175  29.146  49.427  1.00  0.00     0.255 C 
HETATM    5  O   UNL     1       1.471  28.731  48.513  1.00  0.00    -0.267 OA
HETATM    6  C   UNL     1       3.297  28.301  49.945  1.00  0.00     0.039 A 
HETATM    7  C   UNL     1       3.754  28.471  51.273  1.00  0.00    -0.027 A 
HETATM    8  C   UNL     1       3.827  27.300  49.128  1.00  0.00     0.017 A 
HETATM    9  C   UNL     1       4.825  26.462  49.621  1.00  0.00     0.001 A 
HETATM   10  C   UNL     1       5.270  26.608  50.935  1.00  0.00     0.001 A 
HETATM   11  C   UNL     1       4.731  27.597  51.764  1.00  0.00     0.009 A 
ENDROOT
BRANCH   1  12
HETATM   12  C   UNL     1       3.709  30.050  53.393  1.00  0.00     0.229 C 
HETATM   13  N   UNL     1       4.033  29.005  54.239  1.00  0.00    -0.356 N 
HETATM   14  H   UNL     1       3.915  28.059  53.879  1.00  0.00     0.162 HD
HETATM   15  O   UNL     1       3.876  31.227  53.683  1.00  0.00    -0.273 OA
BRANCH  13  16
HETATM   16  C   UNL     1       4.507  29.103  55.618  1.00  0.00     0.087 C 
HETATM   17  C   UNL     1       4.419  27.803  56.422  1.00  0.00     0.045 C 
HETATM   18  C   UNL     1       5.695  26.968  56.433  1.00  0.00     0.130 C 
HETATM   19  N   UNL     1       6.882  27.781  56.660  1.00  0.00    -0.328 N 
HETATM   20  C   UNL     1       8.006  27.276  57.302  1.00  0.00     0.362 C 
HETATM   21  C   UNL     1       7.061  28.910  55.762  1.00  0.00     0.130 C 
HETATM   22  O   UNL     1       9.102  27.823  57.297  1.00  0.00    -0.238 OA
HETATM   23  C   UNL     1       5.848  29.828  55.759  1.00  0.00     0.045 C 
BRANCH  20  24
HETATM   24  O   UNL     1       7.752  26.111  57.961  1.00  0.00    -0.304 OA
BRANCH  24  25
HETATM   25  C   UNL     1       8.621  25.012  57.655  1.00  0.00     0.176 C 
HETATM   26  C   UNL     1       8.140  24.282  56.415  1.00  0.00     0.034 C 
ENDBRANCH  24  25
ENDBRANCH  20  24
ENDBRANCH  13  16
ENDBRANCH   1  12
BRANCH   2  27
HETATM   27  C   UNL     1       4.042  31.491  50.582  1.00  0.00     0.006 A 
HETATM   28  S   UNL     1       4.031  33.216  50.455  1.00  0.00    -0.104 SA
HETATM   29  C   UNL     1       5.591  33.256  49.767  1.00  0.00     0.050 A 
HETATM   30  C   UNL     1       6.141  32.001  49.664  1.00  0.00     0.008 A 
HETATM   31  C   UNL     1       5.255  30.990  50.140  1.00  0.00     0.017 A 
ENDBRANCH   2  27
BRANCH   3  32
HETATM   32  C   UNL     1       0.629  30.996  49.956  1.00  0.00     0.153 C 
BRANCH  32  33
HETATM   33  C   UNL     1       0.629  32.060  48.844  1.00  0.00     0.187 C 
BRANCH  33  34
HETATM   34  O   UNL     1      -0.384  31.814  47.849  1.00  0.00    -0.394 OA
HETATM   35  C   UNL     1      -1.640  32.385  48.204  1.00  0.00     0.201 C 
ENDBRANCH  33  34
ENDBRANCH  32  33
ENDBRANCH   3  32
TORSDOF 8
ENDMDL
MODEL 9
REMARK VINA RESULT:      -6.0      9.999     12.855
REMARK  8 active torsions:
REMARK  status: ('A' for Active; 'I' for Inactive)
REMARK    1  A    between atoms: C_2  and  O_3 
REMARK    2  A    between atoms: O_3  and  C_4 
REMARK       I    between atoms: C_4  and  N_5 
REMARK    3  A    between atoms: C_8  and  N_9 
REMARK       I    between atoms: N_9  and  C_10 
REMARK    4  A    between atoms: C_10  and  C_11 
REMARK    5  A    between atoms: C_12  and  C_13 
REMARK    6  A    between atoms: N_18  and  C_19 
REMARK    7  A    between atoms: C_19  and  C_20 
REMARK    8  A    between atoms: C_20  and  O_21 
ROOT
HETATM    1  C   UNL     1       4.592  31.441  51.384  1.00  0.00     0.139 C 
HETATM    2  C   UNL     1       3.440  30.995  50.462  1.00  0.00     0.145 C 
HETATM    3  N   UNL     1       3.986  30.811  49.110  1.00  0.00    -0.335 N 
HETATM    4  C   UNL     1       4.855  31.757  48.567  1.00  0.00     0.255 C 
HETATM    5  O   UNL     1       5.341  31.658  47.445  1.00  0.00    -0.267 OA
HETATM    6  C   UNL     1       5.267  32.885  49.460  1.00  0.00     0.039 A 
HETATM    7  C   UNL     1       5.174  32.745  50.865  1.00  0.00    -0.027 A 
HETATM    8  C   UNL     1       5.811  34.039  48.890  1.00  0.00     0.017 A 
HETATM    9  C   UNL     1       6.261  35.069  49.713  1.00  0.00     0.001 A 
HETATM   10  C   UNL     1       6.192  34.934  51.100  1.00  0.00     0.001 A 
HETATM   11  C   UNL     1       5.664  33.774  51.676  1.00  0.00     0.009 A 
ENDROOT
BRANCH   1  12
HETATM   12  C   UNL     1       4.152  31.306  52.833  1.00  0.00     0.229 C 
HETATM   13  N   UNL     1       4.788  30.260  53.480  1.00  0.00    -0.356 N 
HETATM   14  H   UNL     1       5.519  29.770  52.968  1.00  0.00     0.162 HD
HETATM   15  O   UNL     1       3.312  32.016  53.367  1.00  0.00    -0.273 OA
BRANCH  13  16
HETATM   16  C   UNL     1       4.508  29.757  54.824  1.00  0.00     0.087 C 
HETATM   17  C   UNL     1       4.460  28.232  54.941  1.00  0.00     0.045 C 
HETATM   18  C   UNL     1       5.770  27.579  55.369  1.00  0.00     0.130 C 
HETATM   19  N   UNL     1       6.400  28.286  56.477  1.00  0.00    -0.328 N 
HETATM   20  C   UNL     1       7.188  27.630  57.414  1.00  0.00     0.362 C 
HETATM   21  C   UNL     1       6.621  29.710  56.280  1.00  0.00     0.130 C 
HETATM   22  O   UNL     1       7.933  28.199  58.203  1.00  0.00    -0.238 OA
HETATM   23  C   UNL     1       5.333  30.436  55.920  1.00  0.00     0.045 C 
BRANCH  20  24
HETATM   24  O   UNL     1       7.028  26.278  57.376  1.00  0.00    -0.304 OA
BRANCH  24  25
HETATM   25  C   UNL     1       8.224  25.498  57.516  1.00  0.00     0.176 C 
HETATM   26  C   UNL     1       8.122  24.217  56.710  1.00  0.00     0.034 C 
ENDBRANCH  24  25
ENDBRANCH  20  24
ENDBRANCH  13  16
ENDBRANCH   1  12
BRANCH   2  27
HETATM   27  C   UNL     1       2.215  31.908  50.390  1.00  0.00     0.006 A 
HETATM   28  S   UNL     1       0.669  31.210  50.050  1.00  0.00    -0.104 SA
HETATM   29  C   UNL     1      -0.122  32.718  50.136  1.00  0.00     0.050 A 
HETATM   30  C   UNL     1       0.744  33.736  50.454  1.00  0.00     0.008 A 
HETATM   31  C   UNL     1       2.083  33.270  50.608  1.00  0.00     0.017 A 
ENDBRANCH   2  27
BRANCH   3  32
HETATM   32  C   UNL     1       3.895  29.484  48.496  1.00  0.00     0.153 C 
BRANCH  32  33
HETATM   33  C   UNL     1       3.405  28.422  49.497  1.00  0.00     0.187 C 
BRANCH  33  34
HETATM   34  O   UNL     1       3.630  27.079  49.025  1.00  0.00    -0.394 OA
HETATM   35  C   UNL     1       4.398  27.050  47.825  1.00  0.00     0.201 C 
ENDBRANCH  33  34
ENDBRANCH  32  33
ENDBRANCH   3  32
TORSDOF 8
ENDMDL
MODEL 10
REMARK VINA RESULT:      -5.9     12.666     15.026
REMARK  8 active torsions:
REMARK  status: ('A' for Active; 'I' for Inactive)
REMARK    1  A    between atoms: C_2  and  O_3 
REMARK    2  A    between atoms: O_3  and  C_4 
REMARK       I    between atoms: C_4  and  N_5 
REMARK    3  A    between atoms: C_8  and  N_9 
REMARK       I    between atoms: N_9  and  C_10 
REMARK    4  A    between atoms: C_10  and  C_11 
REMARK    5  A    between atoms: C_12  and  C_13 
REMARK    6  A    between atoms: N_18  and  C_19 
REMARK    7  A    between atoms: C_19  and  C_20 
REMARK    8  A    between atoms: C_20  and  O_21 
ROOT
HETATM    1  C   UNL     1       2.193  30.210  50.253  1.00  0.00     0.139 C 
HETATM    2  C   UNL     1       2.944  30.173  48.907  1.00  0.00     0.145 C 
HETATM    3  N   UNL     1       3.336  28.782  48.644  1.00  0.00    -0.335 N 
HETATM    4  C   UNL     1       3.890  28.002  49.659  1.00  0.00     0.255 C 
HETATM    5  O   UNL     1       4.236  26.836  49.500  1.00  0.00    -0.267 OA
HETATM    6  C   UNL     1       3.961  28.620  51.021  1.00  0.00     0.039 A 
HETATM    7  C   UNL     1       3.109  29.699  51.353  1.00  0.00    -0.027 A 
HETATM    8  C   UNL     1       4.820  28.067  51.974  1.00  0.00     0.017 A 
HETATM    9  C   UNL     1       4.847  28.589  53.265  1.00  0.00     0.001 A 
HETATM   10  C   UNL     1       3.997  29.641  53.609  1.00  0.00     0.001 A 
HETATM   11  C   UNL     1       3.122  30.187  52.664  1.00  0.00     0.009 A 
ENDROOT
BRANCH   1  12
HETATM   12  C   UNL     1       1.479  31.545  50.390  1.00  0.00     0.229 C 
HETATM   13  N   UNL     1       0.157  31.398  50.773  1.00  0.00    -0.356 N 
HETATM   14  H   UNL     1      -0.161  30.458  51.002  1.00  0.00     0.162 HD
HETATM   15  O   UNL     1       1.996  32.629  50.161  1.00  0.00    -0.273 OA
BRANCH  13  16
HETATM   16  C   UNL     1      -0.855  32.448  50.863  1.00  0.00     0.087 C 
HETATM   17  C   UNL     1      -2.297  31.967  50.685  1.00  0.00     0.045 C 
HETATM   18  C   UNL     1      -3.036  31.657  51.982  1.00  0.00     0.130 C 
HETATM   19  N   UNL     1      -2.825  32.684  52.994  1.00  0.00    -0.328 N 
HETATM   20  C   UNL     1      -3.786  32.978  53.953  1.00  0.00     0.362 C 
HETATM   21  C   UNL     1      -1.439  33.000  53.300  1.00  0.00     0.130 C 
HETATM   22  O   UNL     1      -3.569  33.640  54.961  1.00  0.00    -0.238 OA
HETATM   23  C   UNL     1      -0.661  33.392  52.053  1.00  0.00     0.045 C 
BRANCH  20  24
HETATM   24  O   UNL     1      -5.010  32.468  53.640  1.00  0.00    -0.304 OA
BRANCH  24  25
HETATM   25  C   UNL     1      -6.137  33.135  54.223  1.00  0.00     0.176 C 
HETATM   26  C   UNL     1      -6.812  34.032  53.203  1.00  0.00     0.034 C 
ENDBRANCH  24  25
ENDBRANCH  20  24
ENDBRANCH  13  16
ENDBRANCH   1  12
BRANCH   2  27
HETATM   27  C   UNL     1       4.171  31.077  48.773  1.00  0.00     0.006 A 
HETATM   28  S   UNL     1       4.328  32.071  47.367  1.00  0.00    -0.104 SA
HETATM   29  C   UNL     1       5.808  32.731  47.899  1.00  0.00     0.050 A 
HETATM   30  C   UNL     1       6.172  32.250  49.133  1.00  0.00     0.008 A 
HETATM   31  C   UNL     1       5.229  31.307  49.638  1.00  0.00     0.017 A 
ENDBRANCH   2  27
BRANCH   3  32
HETATM   32  C   UNL     1       2.824  28.129  47.437  1.00  0.00     0.153 C 
BRANCH  32  33
HETATM   33  C   UNL     1       1.323  27.806  47.554  1.00  0.00     0.187 C 
BRANCH  33  34
HETATM   34  O   UNL     1       0.539  28.472  46.545  1.00  0.00    -0.394 OA
HETATM   35  C   UNL     1      -0.305  27.571  45.834  1.00  0.00     0.201 C 
ENDBRANCH  33  34
ENDBRANCH  32  33
ENDBRANCH   3  32
TORSDOF 8
ENDMDL
