MODEL 1
REMARK VINA RESULT:      -9.1      0.000      0.000
REMARK  5 active torsions:
REMARK  status: ('A' for Active; 'I' for Inactive)
REMARK    1  A    between atoms: C_7  and  C_8 
REMARK       I    between atoms: C_8  and  N_9 
REMARK    2  A    between atoms: N_9  and  C_10 
REMARK    3  A    between atoms: C_10  and  C_11 
REMARK    4  A    between atoms: C_11  and  O_12 
REMARK    5  A    between atoms: C_11  and  C_13 
ROOT
HETATM    1  C   UNL     1       7.405  25.294  54.437  1.00  0.00     0.254 C 
HETATM    2  N   UNL     1       6.332  26.088  54.772  1.00  0.00    -0.354 N 
HETATM    3  O   UNL     1       8.041  25.458  53.400  1.00  0.00    -0.268 OA
HETATM    4  H   UNL     1       6.058  26.102  55.746  1.00  0.00     0.162 HD
ENDROOT
BRANCH   2   5
HETATM    5  C   UNL     1       6.024  27.290  54.012  1.00  0.00     0.159 C 
BRANCH   5   6
HETATM    6  C   UNL     1       5.737  28.503  54.918  1.00  0.00     0.175 C 
BRANCH   6   7
HETATM    7  O   UNL     1       5.335  29.608  54.095  1.00  0.00    -0.389 OA
HETATM    8  H   UNL     1       5.277  30.404  54.652  1.00  0.00     0.210 HD
ENDBRANCH   6   7
BRANCH   6   9
HETATM    9  C   UNL     1       6.891  28.813  55.843  1.00  0.00     0.049 A 
HETATM   10  C   UNL     1       6.642  29.016  57.203  1.00  0.00     0.128 A 
HETATM   11  F   UNL     1       5.381  28.972  57.660  1.00  0.00    -0.205 F 
HETATM   12  C   UNL     1       7.670  29.269  58.112  1.00  0.00     0.043 A 
HETATM   13  C   UNL     1       8.989  29.312  57.668  1.00  0.00     0.006 A 
HETATM   14  C   UNL     1       9.264  29.104  56.318  1.00  0.00     0.043 A 
HETATM   15  C   UNL     1       8.221  28.858  55.425  1.00  0.00     0.128 A 
HETATM   16  F   UNL     1       8.521  28.685  54.130  1.00  0.00    -0.205 F 
ENDBRANCH   6   9
ENDBRANCH   5   6
ENDBRANCH   2   5
BRANCH   1  17
HETATM   17  C   UNL     1       7.772  24.284  55.435  1.00  0.00     0.066 A 
HETATM   18  C   UNL     1       8.026  24.467  56.794  1.00  0.00     0.022 A 
HETATM   19  C   UNL     1       7.963  25.667  57.671  1.00  0.00     0.069 C 
HETATM   20  N   UNL     1       8.347  23.242  57.327  1.00  0.00    -0.358 N 
HETATM   21  H   UNL     1       8.580  23.072  58.296  1.00  0.00     0.166 HD
HETATM   22  C   UNL     1       8.271  22.257  56.376  1.00  0.00     0.043 A 
HETATM   23  C   UNL     1       7.903  22.872  55.181  1.00  0.00     0.008 A 
HETATM   24  C   UNL     1       8.493  20.878  56.486  1.00  0.00     0.030 A 
HETATM   25  C   UNL     1       7.753  22.062  54.035  1.00  0.00     0.015 A 
HETATM   26  C   UNL     1       7.970  20.682  54.124  1.00  0.00     0.001 A 
HETATM   27  C   UNL     1       8.335  20.100  55.335  1.00  0.00     0.002 A 
ENDBRANCH   1  17
TORSDOF 5
ENDMDL
MODEL 2
REMARK VINA RESULT:      -9.1      0.593      1.790
REMARK  5 active torsions:
REMARK  status: ('A' for Active; 'I' for Inactive)
REMARK    1  A    between atoms: C_7  and  C_8 
REMARK       I    between atoms: C_8  and  N_9 
REMARK    2  A    between atoms: N_9  and  C_10 
REMARK    3  A    between atoms: C_10  and  C_11 
REMARK    4  A    between atoms: C_11  and  O_12 
REMARK    5  A    between atoms: C_11  and  C_13 
ROOT
HETATM    1  C   UNL     1       7.551  25.329  53.898  1.00  0.00     0.254 C 
HETATM    2  N   UNL     1       6.491  26.078  54.358  1.00  0.00    -0.354 N 
HETATM    3  O   UNL     1       8.139  25.601  52.855  1.00  0.00    -0.268 OA
HETATM    4  H   UNL     1       6.261  25.992  55.340  1.00  0.00     0.162 HD
ENDROOT
BRANCH   2   5
HETATM    5  C   UNL     1       6.145  27.347  53.737  1.00  0.00     0.159 C 
BRANCH   5   6
HETATM    6  C   UNL     1       5.778  28.429  54.770  1.00  0.00     0.175 C 
BRANCH   6   7
HETATM    7  O   UNL     1       5.398  29.624  54.072  1.00  0.00    -0.389 OA
HETATM    8  H   UNL     1       4.529  29.911  54.401  1.00  0.00     0.210 HD
ENDBRANCH   6   7
BRANCH   6   9
HETATM    9  C   UNL     1       6.869  28.636  55.795  1.00  0.00     0.049 A 
HETATM   10  C   UNL     1       8.189  28.802  55.365  1.00  0.00     0.128 A 
HETATM   11  F   UNL     1       8.473  28.735  54.056  1.00  0.00    -0.205 F 
HETATM   12  C   UNL     1       9.233  29.034  56.261  1.00  0.00     0.043 A 
HETATM   13  C   UNL     1       8.967  29.117  57.624  1.00  0.00     0.006 A 
HETATM   14  C   UNL     1       7.658  28.965  58.078  1.00  0.00     0.043 A 
HETATM   15  C   UNL     1       6.629  28.729  57.166  1.00  0.00     0.128 A 
HETATM   16  F   UNL     1       5.386  28.565  57.640  1.00  0.00    -0.205 F 
ENDBRANCH   6   9
ENDBRANCH   5   6
ENDBRANCH   2   5
BRANCH   1  17
HETATM   17  C   UNL     1       7.965  24.228  54.773  1.00  0.00     0.066 A 
HETATM   18  C   UNL     1       8.285  24.277  56.129  1.00  0.00     0.022 A 
HETATM   19  C   UNL     1       8.267  25.385  57.122  1.00  0.00     0.069 C 
HETATM   20  N   UNL     1       8.631  23.007  56.523  1.00  0.00    -0.358 N 
HETATM   21  H   UNL     1       8.912  22.744  57.458  1.00  0.00     0.166 HD
HETATM   22  C   UNL     1       8.509  22.120  55.484  1.00  0.00     0.043 A 
HETATM   23  C   UNL     1       8.083  22.848  54.375  1.00  0.00     0.008 A 
HETATM   24  C   UNL     1       8.736  20.738  55.447  1.00  0.00     0.030 A 
HETATM   25  C   UNL     1       7.877  22.154  53.164  1.00  0.00     0.015 A 
HETATM   26  C   UNL     1       8.097  20.773  53.106  1.00  0.00     0.001 A 
HETATM   27  C   UNL     1       8.521  20.076  54.234  1.00  0.00     0.002 A 
ENDBRANCH   1  17
TORSDOF 5
ENDMDL
MODEL 3
REMARK VINA RESULT:      -8.8      1.863      2.712
REMARK  5 active torsions:
REMARK  status: ('A' for Active; 'I' for Inactive)
REMARK    1  A    between atoms: C_7  and  C_8 
REMARK       I    between atoms: C_8  and  N_9 
REMARK    2  A    between atoms: N_9  and  C_10 
REMARK    3  A    between atoms: C_10  and  C_11 
REMARK    4  A    between atoms: C_11  and  O_12 
REMARK    5  A    between atoms: C_11  and  C_13 
ROOT
HETATM    1  C   UNL     1       6.928  24.865  55.769  1.00  0.00     0.254 C 
HETATM    2  N   UNL     1       7.910  25.632  56.356  1.00  0.00    -0.354 N 
HETATM    3  O   UNL     1       5.752  24.932  56.116  1.00  0.00    -0.268 OA
HETATM    4  H   UNL     1       8.769  25.754  55.835  1.00  0.00     0.162 HD
ENDROOT
BRANCH   2   5
HETATM    5  C   UNL     1       7.569  26.707  57.276  1.00  0.00     0.159 C 
BRANCH   5   6
HETATM    6  C   UNL     1       7.360  28.054  56.557  1.00  0.00     0.175 C 
BRANCH   6   7
HETATM    7  O   UNL     1       7.918  27.964  55.238  1.00  0.00    -0.389 OA
HETATM    8  H   UNL     1       8.879  27.834  55.316  1.00  0.00     0.210 HD
ENDBRANCH   6   7
BRANCH   6   9
HETATM    9  C   UNL     1       7.877  29.220  57.365  1.00  0.00     0.049 A 
HETATM   10  C   UNL     1       6.967  30.083  57.983  1.00  0.00     0.128 A 
HETATM   11  F   UNL     1       5.651  29.886  57.817  1.00  0.00    -0.205 F 
HETATM   12  C   UNL     1       7.385  31.155  58.772  1.00  0.00     0.043 A 
HETATM   13  C   UNL     1       8.744  31.378  58.969  1.00  0.00     0.006 A 
HETATM   14  C   UNL     1       9.673  30.528  58.372  1.00  0.00     0.043 A 
HETATM   15  C   UNL     1       9.234  29.464  57.583  1.00  0.00     0.128 A 
HETATM   16  F   UNL     1      10.155  28.680  57.006  1.00  0.00    -0.205 F 
ENDBRANCH   6   9
ENDBRANCH   5   6
ENDBRANCH   2   5
BRANCH   1  17
HETATM   17  C   UNL     1       7.377  24.014  54.663  1.00  0.00     0.066 A 
HETATM   18  C   UNL     1       7.553  24.363  53.324  1.00  0.00     0.022 A 
HETATM   19  C   UNL     1       7.411  25.654  52.598  1.00  0.00     0.069 C 
HETATM   20  N   UNL     1       7.970  23.239  52.652  1.00  0.00    -0.358 N 
HETATM   21  H   UNL     1       8.175  23.195  51.662  1.00  0.00     0.166 HD
HETATM   22  C   UNL     1       8.114  22.178  53.509  1.00  0.00     0.043 A 
HETATM   23  C   UNL     1       7.761  22.631  54.779  1.00  0.00     0.008 A 
HETATM   24  C   UNL     1       8.532  20.865  53.257  1.00  0.00     0.030 A 
HETATM   25  C   UNL     1       7.829  21.717  55.853  1.00  0.00     0.015 A 
HETATM   26  C   UNL     1       8.245  20.401  55.622  1.00  0.00     0.001 A 
HETATM   27  C   UNL     1       8.591  19.983  54.340  1.00  0.00     0.002 A 
ENDBRANCH   1  17
TORSDOF 5
ENDMDL
MODEL 4
REMARK VINA RESULT:      -8.8      3.133      4.737
REMARK  5 active torsions:
REMARK  status: ('A' for Active; 'I' for Inactive)
REMARK    1  A    between atoms: C_7  and  C_8 
REMARK       I    between atoms: C_8  and  N_9 
REMARK    2  A    between atoms: N_9  and  C_10 
REMARK    3  A    between atoms: C_10  and  C_11 
REMARK    4  A    between atoms: C_11  and  O_12 
REMARK    5  A    between atoms: C_11  and  C_13 
ROOT
HETATM    1  C   UNL     1       7.469  25.450  53.470  1.00  0.00     0.254 C 
HETATM    2  N   UNL     1       6.413  26.299  53.713  1.00  0.00    -0.354 N 
HETATM    3  O   UNL     1       8.204  25.583  52.496  1.00  0.00    -0.268 OA
HETATM    4  H   UNL     1       6.053  26.325  54.658  1.00  0.00     0.162 HD
ENDROOT
BRANCH   2   5
HETATM    5  C   UNL     1       6.239  27.518  52.937  1.00  0.00     0.159 C 
BRANCH   5   6
HETATM    6  C   UNL     1       4.785  27.716  52.468  1.00  0.00     0.175 C 
BRANCH   6   7
HETATM    7  O   UNL     1       3.941  26.800  53.181  1.00  0.00    -0.389 OA
HETATM    8  H   UNL     1       4.218  26.787  54.114  1.00  0.00     0.210 HD
ENDBRANCH   6   7
BRANCH   6   9
HETATM    9  C   UNL     1       4.652  27.631  50.965  1.00  0.00     0.049 A 
HETATM   10  C   UNL     1       4.472  28.805  50.226  1.00  0.00     0.128 A 
HETATM   11  F   UNL     1       4.380  29.981  50.864  1.00  0.00    -0.205 F 
HETATM   12  C   UNL     1       4.380  28.794  48.834  1.00  0.00     0.043 A 
HETATM   13  C   UNL     1       4.481  27.588  48.145  1.00  0.00     0.006 A 
HETATM   14  C   UNL     1       4.669  26.405  48.857  1.00  0.00     0.043 A 
HETATM   15  C   UNL     1       4.754  26.438  50.250  1.00  0.00     0.128 A 
HETATM   16  F   UNL     1       4.913  25.278  50.903  1.00  0.00    -0.205 F 
ENDBRANCH   6   9
ENDBRANCH   5   6
ENDBRANCH   2   5
BRANCH   1  17
HETATM   17  C   UNL     1       7.690  24.419  54.490  1.00  0.00     0.066 A 
HETATM   18  C   UNL     1       7.783  24.580  55.872  1.00  0.00     0.022 A 
HETATM   19  C   UNL     1       7.644  25.770  56.753  1.00  0.00     0.069 C 
HETATM   20  N   UNL     1       8.010  23.341  56.421  1.00  0.00    -0.358 N 
HETATM   21  H   UNL     1       8.121  23.154  57.409  1.00  0.00     0.166 HD
HETATM   22  C   UNL     1       8.026  22.369  55.453  1.00  0.00     0.043 A 
HETATM   23  C   UNL     1       7.819  23.008  54.233  1.00  0.00     0.008 A 
HETATM   24  C   UNL     1       8.202  20.984  55.569  1.00  0.00     0.030 A 
HETATM   25  C   UNL     1       7.789  22.215  53.065  1.00  0.00     0.015 A 
HETATM   26  C   UNL     1       7.961  20.830  53.159  1.00  0.00     0.001 A 
HETATM   27  C   UNL     1       8.165  20.225  54.396  1.00  0.00     0.002 A 
ENDBRANCH   1  17
TORSDOF 5
ENDMDL
MODEL 5
REMARK VINA RESULT:      -8.8      1.774      3.094
REMARK  5 active torsions:
REMARK  status: ('A' for Active; 'I' for Inactive)
REMARK    1  A    between atoms: C_7  and  C_8 
REMARK       I    between atoms: C_8  and  N_9 
REMARK    2  A    between atoms: N_9  and  C_10 
REMARK    3  A    between atoms: C_10  and  C_11 
REMARK    4  A    between atoms: C_11  and  O_12 
REMARK    5  A    between atoms: C_11  and  C_13 
ROOT
HETATM    1  C   UNL     1       6.847  25.007  56.204  1.00  0.00     0.254 C 
HETATM    2  N   UNL     1       7.637  26.061  56.604  1.00  0.00    -0.354 N 
HETATM    3  O   UNL     1       5.835  24.680  56.818  1.00  0.00    -0.268 OA
HETATM    4  H   UNL     1       8.255  26.460  55.909  1.00  0.00     0.162 HD
ENDROOT
BRANCH   2   5
HETATM    5  C   UNL     1       7.202  26.967  57.656  1.00  0.00     0.159 C 
BRANCH   5   6
HETATM    6  C   UNL     1       7.065  28.420  57.165  1.00  0.00     0.175 C 
BRANCH   6   7
HETATM    7  O   UNL     1       6.528  28.409  55.834  1.00  0.00    -0.389 OA
HETATM    8  H   UNL     1       5.629  28.777  55.860  1.00  0.00     0.210 HD
ENDBRANCH   6   7
BRANCH   6   9
HETATM    9  C   UNL     1       8.356  29.194  57.300  1.00  0.00     0.049 A 
HETATM   10  C   UNL     1       9.239  29.247  56.217  1.00  0.00     0.128 A 
HETATM   11  F   UNL     1       8.947  28.580  55.091  1.00  0.00    -0.205 F 
HETATM   12  C   UNL     1      10.428  29.976  56.270  1.00  0.00     0.043 A 
HETATM   13  C   UNL     1      10.752  30.686  57.423  1.00  0.00     0.006 A 
HETATM   14  C   UNL     1       9.885  30.656  58.513  1.00  0.00     0.043 A 
HETATM   15  C   UNL     1       8.703  29.917  58.441  1.00  0.00     0.128 A 
HETATM   16  F   UNL     1       7.903  29.894  59.517  1.00  0.00    -0.205 F 
ENDBRANCH   6   9
ENDBRANCH   5   6
ENDBRANCH   2   5
BRANCH   1  17
HETATM   17  C   UNL     1       7.263  24.349  54.963  1.00  0.00     0.066 A 
HETATM   18  C   UNL     1       7.476  24.925  53.710  1.00  0.00     0.022 A 
HETATM   19  C   UNL     1       7.415  26.332  53.232  1.00  0.00     0.069 C 
HETATM   20  N   UNL     1       7.839  23.920  52.845  1.00  0.00    -0.358 N 
HETATM   21  H   UNL     1       8.055  24.046  51.865  1.00  0.00     0.166 HD
HETATM   22  C   UNL     1       7.914  22.715  53.495  1.00  0.00     0.043 A 
HETATM   23  C   UNL     1       7.569  22.948  54.825  1.00  0.00     0.008 A 
HETATM   24  C   UNL     1       8.263  21.448  53.009  1.00  0.00     0.030 A 
HETATM   25  C   UNL     1       7.573  21.851  55.714  1.00  0.00     0.015 A 
HETATM   26  C   UNL     1       7.920  20.578  55.248  1.00  0.00     0.001 A 
HETATM   27  C   UNL     1       8.260  20.382  53.912  1.00  0.00     0.002 A 
ENDBRANCH   1  17
TORSDOF 5
ENDMDL
MODEL 6
REMARK VINA RESULT:      -8.8      1.899      3.537
REMARK  5 active torsions:
REMARK  status: ('A' for Active; 'I' for Inactive)
REMARK    1  A    between atoms: C_7  and  C_8 
REMARK       I    between atoms: C_8  and  N_9 
REMARK    2  A    between atoms: N_9  and  C_10 
REMARK    3  A    between atoms: C_10  and  C_11 
REMARK    4  A    between atoms: C_11  and  O_12 
REMARK    5  A    between atoms: C_11  and  C_13 
ROOT
HETATM    1  C   UNL     1       6.768  24.556  56.039  1.00  0.00     0.254 C 
HETATM    2  N   UNL     1       7.832  25.176  56.655  1.00  0.00    -0.354 N 
HETATM    3  O   UNL     1       5.605  24.781  56.363  1.00  0.00    -0.268 OA
HETATM    4  H   UNL     1       8.711  25.184  56.152  1.00  0.00     0.162 HD
ENDROOT
BRANCH   2   5
HETATM    5  C   UNL     1       7.623  26.280  57.579  1.00  0.00     0.159 C 
BRANCH   5   6
HETATM    6  C   UNL     1       7.894  27.651  56.931  1.00  0.00     0.175 C 
BRANCH   6   7
HETATM    7  O   UNL     1       8.222  28.593  57.964  1.00  0.00    -0.389 OA
HETATM    8  H   UNL     1       8.457  29.440  57.547  1.00  0.00     0.210 HD
ENDBRANCH   6   7
BRANCH   6   9
HETATM    9  C   UNL     1       6.763  28.094  56.033  1.00  0.00     0.049 A 
HETATM   10  C   UNL     1       6.967  28.148  54.651  1.00  0.00     0.128 A 
HETATM   11  F   UNL     1       8.172  27.845  54.147  1.00  0.00    -0.205 F 
HETATM   12  C   UNL     1       5.950  28.512  53.768  1.00  0.00     0.043 A 
HETATM   13  C   UNL     1       4.686  28.823  54.262  1.00  0.00     0.006 A 
HETATM   14  C   UNL     1       4.453  28.768  55.634  1.00  0.00     0.043 A 
HETATM   15  C   UNL     1       5.486  28.406  56.500  1.00  0.00     0.128 A 
HETATM   16  F   UNL     1       5.233  28.386  57.817  1.00  0.00    -0.205 F 
ENDBRANCH   6   9
ENDBRANCH   5   6
ENDBRANCH   2   5
BRANCH   1  17
HETATM   17  C   UNL     1       7.120  23.661  54.933  1.00  0.00     0.066 A 
HETATM   18  C   UNL     1       6.974  23.884  53.564  1.00  0.00     0.022 A 
HETATM   19  C   UNL     1       6.494  25.058  52.786  1.00  0.00     0.069 C 
HETATM   20  N   UNL     1       7.422  22.763  52.908  1.00  0.00    -0.358 N 
HETATM   21  H   UNL     1       7.435  22.642  51.904  1.00  0.00     0.166 HD
HETATM   22  C   UNL     1       7.895  21.830  53.796  1.00  0.00     0.043 A 
HETATM   23  C   UNL     1       7.730  22.364  55.073  1.00  0.00     0.008 A 
HETATM   24  C   UNL     1       8.456  20.568  53.565  1.00  0.00     0.030 A 
HETATM   25  C   UNL     1       8.148  21.589  56.176  1.00  0.00     0.015 A 
HETATM   26  C   UNL     1       8.712  20.326  55.966  1.00  0.00     0.001 A 
HETATM   27  C   UNL     1       8.862  19.824  54.676  1.00  0.00     0.002 A 
ENDBRANCH   1  17
TORSDOF 5
ENDMDL
MODEL 7
REMARK VINA RESULT:      -8.7      3.159      4.804
REMARK  5 active torsions:
REMARK  status: ('A' for Active; 'I' for Inactive)
REMARK    1  A    between atoms: C_7  and  C_8 
REMARK       I    between atoms: C_8  and  N_9 
REMARK    2  A    between atoms: N_9  and  C_10 
REMARK    3  A    between atoms: C_10  and  C_11 
REMARK    4  A    between atoms: C_11  and  O_12 
REMARK    5  A    between atoms: C_11  and  C_13 
ROOT
HETATM    1  C   UNL     1       7.402  25.471  53.459  1.00  0.00     0.254 C 
HETATM    2  N   UNL     1       6.360  26.329  53.730  1.00  0.00    -0.354 N 
HETATM    3  O   UNL     1       8.105  25.591  52.459  1.00  0.00    -0.268 OA
HETATM    4  H   UNL     1       6.032  26.365  54.687  1.00  0.00     0.162 HD
ENDROOT
BRANCH   2   5
HETATM    5  C   UNL     1       6.168  27.542  52.950  1.00  0.00     0.159 C 
BRANCH   5   6
HETATM    6  C   UNL     1       4.721  27.696  52.445  1.00  0.00     0.175 C 
BRANCH   6   7
HETATM    7  O   UNL     1       3.907  26.690  53.065  1.00  0.00    -0.389 OA
HETATM    8  H   UNL     1       4.340  25.827  52.949  1.00  0.00     0.210 HD
ENDBRANCH   6   7
BRANCH   6   9
HETATM    9  C   UNL     1       4.640  27.709  50.936  1.00  0.00     0.049 A 
HETATM   10  C   UNL     1       4.807  26.513  50.231  1.00  0.00     0.128 A 
HETATM   11  F   UNL     1       5.076  25.382  50.900  1.00  0.00    -0.205 F 
HETATM   12  C   UNL     1       4.706  26.456  48.841  1.00  0.00     0.043 A 
HETATM   13  C   UNL     1       4.419  27.612  48.122  1.00  0.00     0.006 A 
HETATM   14  C   UNL     1       4.239  28.816  48.801  1.00  0.00     0.043 A 
HETATM   15  C   UNL     1       4.349  28.852  50.192  1.00  0.00     0.128 A 
HETATM   16  F   UNL     1       4.192  30.031  50.810  1.00  0.00    -0.205 F 
ENDBRANCH   6   9
ENDBRANCH   5   6
ENDBRANCH   2   5
BRANCH   1  17
HETATM   17  C   UNL     1       7.651  24.447  54.479  1.00  0.00     0.066 A 
HETATM   18  C   UNL     1       7.765  24.615  55.859  1.00  0.00     0.022 A 
HETATM   19  C   UNL     1       7.628  25.807  56.737  1.00  0.00     0.069 C 
HETATM   20  N   UNL     1       8.014  23.380  56.410  1.00  0.00    -0.358 N 
HETATM   21  H   UNL     1       8.144  23.199  57.396  1.00  0.00     0.166 HD
HETATM   22  C   UNL     1       8.024  22.405  55.445  1.00  0.00     0.043 A 
HETATM   23  C   UNL     1       7.790  23.036  54.226  1.00  0.00     0.008 A 
HETATM   24  C   UNL     1       8.216  21.022  55.564  1.00  0.00     0.030 A 
HETATM   25  C   UNL     1       7.748  22.238  53.062  1.00  0.00     0.015 A 
HETATM   26  C   UNL     1       7.937  20.855  53.159  1.00  0.00     0.001 A 
HETATM   27  C   UNL     1       8.168  20.257  54.395  1.00  0.00     0.002 A 
ENDBRANCH   1  17
TORSDOF 5
ENDMDL
MODEL 8
REMARK VINA RESULT:      -8.4      3.380      7.721
REMARK  5 active torsions:
REMARK  status: ('A' for Active; 'I' for Inactive)
REMARK    1  A    between atoms: C_7  and  C_8 
REMARK       I    between atoms: C_8  and  N_9 
REMARK    2  A    between atoms: N_9  and  C_10 
REMARK    3  A    between atoms: C_10  and  C_11 
REMARK    4  A    between atoms: C_11  and  O_12 
REMARK    5  A    between atoms: C_11  and  C_13 
ROOT
HETATM    1  C   UNL     1       8.396  29.024  57.783  1.00  0.00     0.254 C 
HETATM    2  N   UNL     1       7.622  27.893  57.648  1.00  0.00    -0.354 N 
HETATM    3  O   UNL     1       9.539  29.091  57.340  1.00  0.00    -0.268 OA
HETATM    4  H   UNL     1       6.622  28.007  57.753  1.00  0.00     0.162 HD
ENDROOT
BRANCH   2   5
HETATM    5  C   UNL     1       8.047  26.793  56.796  1.00  0.00     0.159 C 
BRANCH   5   6
HETATM    6  C   UNL     1       6.937  25.746  56.586  1.00  0.00     0.175 C 
BRANCH   6   7
HETATM    7  O   UNL     1       6.652  25.117  57.844  1.00  0.00    -0.389 OA
HETATM    8  H   UNL     1       7.485  24.780  58.217  1.00  0.00     0.210 HD
ENDBRANCH   6   7
BRANCH   6   9
HETATM    9  C   UNL     1       7.266  24.777  55.474  1.00  0.00     0.049 A 
HETATM   10  C   UNL     1       6.492  24.783  54.310  1.00  0.00     0.128 A 
HETATM   11  F   UNL     1       5.447  25.618  54.213  1.00  0.00    -0.205 F 
HETATM   12  C   UNL     1       6.770  23.938  53.235  1.00  0.00     0.043 A 
HETATM   13  C   UNL     1       7.854  23.067  53.304  1.00  0.00     0.006 A 
HETATM   14  C   UNL     1       8.646  23.048  54.450  1.00  0.00     0.043 A 
HETATM   15  C   UNL     1       8.348  23.898  55.516  1.00  0.00     0.128 A 
HETATM   16  F   UNL     1       9.118  23.837  56.611  1.00  0.00    -0.205 F 
ENDBRANCH   6   9
ENDBRANCH   5   6
ENDBRANCH   2   5
BRANCH   1  17
HETATM   17  C   UNL     1       7.735  30.160  58.434  1.00  0.00     0.066 A 
HETATM   18  C   UNL     1       6.621  30.876  57.995  1.00  0.00     0.022 A 
HETATM   19  C   UNL     1       5.730  30.718  56.815  1.00  0.00     0.069 C 
HETATM   20  N   UNL     1       6.370  31.863  58.919  1.00  0.00    -0.358 N 
HETATM   21  H   UNL     1       5.619  32.537  58.860  1.00  0.00     0.166 HD
HETATM   22  C   UNL     1       7.252  31.791  59.967  1.00  0.00     0.043 A 
HETATM   23  C   UNL     1       8.114  30.730  59.701  1.00  0.00     0.008 A 
HETATM   24  C   UNL     1       7.345  32.577  61.122  1.00  0.00     0.030 A 
HETATM   25  C   UNL     1       9.126  30.443  60.643  1.00  0.00     0.015 A 
HETATM   26  C   UNL     1       9.235  31.216  61.804  1.00  0.00     0.001 A 
HETATM   27  C   UNL     1       8.355  32.269  62.038  1.00  0.00     0.002 A 
ENDBRANCH   1  17
TORSDOF 5
ENDMDL
MODEL 9
REMARK VINA RESULT:      -8.0      4.388      8.552
REMARK  5 active torsions:
REMARK  status: ('A' for Active; 'I' for Inactive)
REMARK    1  A    between atoms: C_7  and  C_8 
REMARK       I    between atoms: C_8  and  N_9 
REMARK    2  A    between atoms: N_9  and  C_10 
REMARK    3  A    between atoms: C_10  and  C_11 
REMARK    4  A    between atoms: C_11  and  O_12 
REMARK    5  A    between atoms: C_11  and  C_13 
ROOT
HETATM    1  C   UNL     1       6.835  31.776  59.016  1.00  0.00     0.254 C 
HETATM    2  N   UNL     1       6.815  30.477  58.560  1.00  0.00    -0.354 N 
HETATM    3  O   UNL     1       6.199  32.671  58.466  1.00  0.00    -0.268 OA
HETATM    4  H   UNL     1       7.098  29.758  59.214  1.00  0.00     0.162 HD
ENDROOT
BRANCH   2   5
HETATM    5  C   UNL     1       5.879  30.060  57.527  1.00  0.00     0.159 C 
BRANCH   5   6
HETATM    6  C   UNL     1       6.565  29.276  56.392  1.00  0.00     0.175 C 
BRANCH   6   7
HETATM    7  O   UNL     1       5.995  29.685  55.140  1.00  0.00    -0.389 OA
HETATM    8  H   UNL     1       6.363  30.554  54.902  1.00  0.00     0.210 HD
ENDBRANCH   6   7
BRANCH   6   9
HETATM    9  C   UNL     1       6.530  27.783  56.624  1.00  0.00     0.049 A 
HETATM   10  C   UNL     1       7.707  27.118  56.979  1.00  0.00     0.128 A 
HETATM   11  F   UNL     1       8.855  27.806  57.069  1.00  0.00    -0.205 F 
HETATM   12  C   UNL     1       7.730  25.748  57.242  1.00  0.00     0.043 A 
HETATM   13  C   UNL     1       6.552  25.011  57.165  1.00  0.00     0.006 A 
HETATM   14  C   UNL     1       5.363  25.652  56.823  1.00  0.00     0.043 A 
HETATM   15  C   UNL     1       5.363  27.022  56.559  1.00  0.00     0.128 A 
HETATM   16  F   UNL     1       4.205  27.601  56.210  1.00  0.00    -0.205 F 
ENDBRANCH   6   9
ENDBRANCH   5   6
ENDBRANCH   2   5
BRANCH   1  17
HETATM   17  C   UNL     1       7.615  31.999  60.236  1.00  0.00     0.066 A 
HETATM   18  C   UNL     1       9.001  31.962  60.393  1.00  0.00     0.022 A 
HETATM   19  C   UNL     1      10.112  31.752  59.427  1.00  0.00     0.069 C 
HETATM   20  N   UNL     1       9.278  32.216  61.715  1.00  0.00    -0.358 N 
HETATM   21  H   UNL     1      10.205  32.250  62.119  1.00  0.00     0.166 HD
HETATM   22  C   UNL     1       8.127  32.459  62.421  1.00  0.00     0.043 A 
HETATM   23  C   UNL     1       7.068  32.342  61.524  1.00  0.00     0.008 A 
HETATM   24  C   UNL     1       7.950  32.777  63.773  1.00  0.00     0.030 A 
HETATM   25  C   UNL     1       5.759  32.553  62.010  1.00  0.00     0.015 A 
HETATM   26  C   UNL     1       5.560  32.873  63.358  1.00  0.00     0.001 A 
HETATM   27  C   UNL     1       6.643  32.983  64.226  1.00  0.00     0.002 A 
ENDBRANCH   1  17
TORSDOF 5
ENDMDL
MODEL 10
REMARK VINA RESULT:      -7.9     11.219     14.347
REMARK  5 active torsions:
REMARK  status: ('A' for Active; 'I' for Inactive)
REMARK    1  A    between atoms: C_7  and  C_8 
REMARK       I    between atoms: C_8  and  N_9 
REMARK    2  A    between atoms: N_9  and  C_10 
REMARK    3  A    between atoms: C_10  and  C_11 
REMARK    4  A    between atoms: C_11  and  O_12 
REMARK    5  A    between atoms: C_11  and  C_13 
ROOT
HETATM    1  C   UNL     1       5.531  34.428  65.653  1.00  0.00     0.254 C 
HETATM    2  N   UNL     1       6.326  33.711  66.519  1.00  0.00    -0.354 N 
HETATM    3  O   UNL     1       5.054  35.519  65.955  1.00  0.00    -0.268 OA
HETATM    4  H   UNL     1       6.918  32.997  66.113  1.00  0.00     0.162 HD
ENDROOT
BRANCH   2   5
HETATM    5  C   UNL     1       6.808  34.303  67.757  1.00  0.00     0.159 C 
BRANCH   5   6
HETATM    6  C   UNL     1       5.913  33.958  68.963  1.00  0.00     0.175 C 
BRANCH   6   7
HETATM    7  O   UNL     1       4.977  35.028  69.164  1.00  0.00    -0.389 OA
HETATM    8  H   UNL     1       5.474  35.844  69.344  1.00  0.00     0.210 HD
ENDBRANCH   6   7
BRANCH   6   9
HETATM    9  C   UNL     1       6.719  33.608  70.192  1.00  0.00     0.049 A 
HETATM   10  C   UNL     1       6.447  32.417  70.872  1.00  0.00     0.128 A 
HETATM   11  F   UNL     1       5.453  31.624  70.448  1.00  0.00    -0.205 F 
HETATM   12  C   UNL     1       7.182  32.022  71.991  1.00  0.00     0.043 A 
HETATM   13  C   UNL     1       8.226  32.820  72.448  1.00  0.00     0.006 A 
HETATM   14  C   UNL     1       8.523  34.008  71.783  1.00  0.00     0.043 A 
HETATM   15  C   UNL     1       7.773  34.387  70.669  1.00  0.00     0.128 A 
HETATM   16  F   UNL     1       8.072  35.548  70.067  1.00  0.00    -0.205 F 
ENDBRANCH   6   9
ENDBRANCH   5   6
ENDBRANCH   2   5
BRANCH   1  17
HETATM   17  C   UNL     1       5.348  33.827  64.328  1.00  0.00     0.066 A 
HETATM   18  C   UNL     1       4.188  33.779  63.556  1.00  0.00     0.022 A 
HETATM   19  C   UNL     1       2.823  34.335  63.763  1.00  0.00     0.069 C 
HETATM   20  N   UNL     1       4.485  33.102  62.397  1.00  0.00    -0.358 N 
HETATM   21  H   UNL     1       3.832  32.915  61.649  1.00  0.00     0.166 HD
HETATM   22  C   UNL     1       5.809  32.743  62.365  1.00  0.00     0.043 A 
HETATM   23  C   UNL     1       6.381  33.190  63.553  1.00  0.00     0.008 A 
HETATM   24  C   UNL     1       6.535  32.066  61.376  1.00  0.00     0.030 A 
HETATM   25  C   UNL     1       7.755  32.942  63.763  1.00  0.00     0.015 A 
HETATM   26  C   UNL     1       8.498  32.269  62.787  1.00  0.00     0.001 A 
HETATM   27  C   UNL     1       7.893  31.837  61.610  1.00  0.00     0.002 A 
ENDBRANCH   1  17
TORSDOF 5
ENDMDL
