MODEL 1
REMARK VINA RESULT:      -9.0      0.000      0.000
REMARK  11 active torsions:
REMARK  status: ('A' for Active; 'I' for Inactive)
REMARK    1  A    between atoms: C_3  and  O_4 
REMARK    2  A    between atoms: O_4  and  C_5 
REMARK    3  A    between atoms: C_10  and  C_11 
REMARK    4  A    between atoms: C_11  and  C_12 
REMARK    5  A    between atoms: C_13  and  C_14 
REMARK    6  A    between atoms: C_17  and  O_18 
REMARK    7  A    between atoms: N_21  and  C_22 
REMARK    8  A    between atoms: C_22  and  C_23 
REMARK    9  A    between atoms: C_23  and  C_24 
REMARK   10  A    between atoms: C_24  and  N_25 
REMARK   11  A    between atoms: C_34  and  O_35 
ROOT
HETATM    1  C   UNL     1       6.163  27.535  56.813  1.00  0.00     0.059 A 
HETATM    2  C   UNL     1       5.152  28.537  56.316  1.00  0.00     0.161 A 
HETATM    3  N   UNL     1       5.722  29.775  56.824  1.00  0.00    -0.333 N 
HETATM    4  C   UNL     1       6.957  29.578  57.388  1.00  0.00     0.278 A 
HETATM    5  O   UNL     1       7.653  30.452  57.881  1.00  0.00    -0.265 OA
HETATM    6  C   UNL     1       7.206  28.116  57.430  1.00  0.00     0.146 A 
ENDROOT
BRANCH   1   7
HETATM    7  C   UNL     1       5.787  26.106  56.712  1.00  0.00     0.193 C 
HETATM    8  O   UNL     1       4.729  25.726  57.203  1.00  0.00    -0.287 OA
BRANCH   7   9
HETATM    9  C   UNL     1       6.722  25.122  56.128  1.00  0.00     0.015 A 
HETATM   10  C   UNL     1       7.474  24.246  56.916  1.00  0.00     0.018 A 
HETATM   11  C   UNL     1       8.237  23.250  56.302  1.00  0.00     0.038 A 
HETATM   12  C   UNL     1       8.256  23.139  54.909  1.00  0.00     0.075 A 
HETATM   13  C   UNL     1       7.586  24.078  54.110  1.00  0.00    -0.028 A 
HETATM   14  C   UNL     1       7.702  24.043  52.612  1.00  0.00     0.051 C 
HETATM   15  C   UNL     1       6.818  25.068  54.732  1.00  0.00     0.025 A 
BRANCH  12  16
HETATM   16  O   UNL     1       8.952  22.151  54.266  1.00  0.00    -0.346 OA
BRANCH  16  17
HETATM   17  C   UNL     1       8.254  20.901  54.123  1.00  0.00     0.121 C 
HETATM   18  C   UNL     1       8.363  20.341  52.702  1.00  0.00     0.040 C 
HETATM   19  C   UNL     1       8.908  19.929  55.103  1.00  0.00     0.040 C 
ENDBRANCH  16  17
ENDBRANCH  12  16
ENDBRANCH   7   9
ENDBRANCH   1   7
BRANCH   2  20
HETATM   20  C   UNL     1       4.986  28.547  54.807  1.00  0.00    -0.030 A 
HETATM   21  C   UNL     1       3.696  28.655  54.256  1.00  0.00     0.012 A 
HETATM   22  C   UNL     1       3.502  28.674  52.873  1.00  0.00     0.037 A 
HETATM   23  C   UNL     1       4.602  28.580  52.029  1.00  0.00     0.065 A 
HETATM   24  C   UNL     1       5.885  28.456  52.545  1.00  0.00     0.037 A 
HETATM   25  C   UNL     1       6.078  28.431  53.928  1.00  0.00     0.012 A 
BRANCH  23  26
HETATM   26  O   UNL     1       4.465  28.603  50.674  1.00  0.00    -0.361 OA
HETATM   27  H   UNL     1       4.638  27.713  50.322  1.00  0.00     0.217 HD
ENDBRANCH  23  26
ENDBRANCH   2  20
BRANCH   6  28
HETATM   28  O   UNL     1       8.244  27.597  58.143  1.00  0.00    -0.355 OA
HETATM   29  H   UNL     1       8.692  28.284  58.663  1.00  0.00     0.218 HD
ENDBRANCH   6  28
BRANCH   3  30
HETATM   30  C   UNL     1       5.025  31.048  56.794  1.00  0.00     0.129 C 
BRANCH  30  31
HETATM   31  C   UNL     1       4.272  31.374  58.090  1.00  0.00     0.048 C 
BRANCH  31  32
HETATM   32  C   UNL     1       4.856  32.461  58.998  1.00  0.00     0.236 C 
BRANCH  32  33
HETATM   33  N   UNL     1       5.378  31.953  60.312  1.00  0.00    -0.067 N 
HETATM   34  H   UNL     1       5.226  30.923  60.319  1.00  0.00     0.280 HD
HETATM   35  C   UNL     1       6.841  32.248  60.590  1.00  0.00     0.261 C 
HETATM   36  C   UNL     1       7.246  31.646  61.940  1.00  0.00     0.195 C 
HETATM   37  O   UNL     1       6.418  32.141  62.996  1.00  0.00    -0.388 OA
HETATM   38  C   UNL     1       5.042  31.799  62.785  1.00  0.00     0.195 C 
HETATM   39  C   UNL     1       4.521  32.429  61.488  1.00  0.00     0.261 C 
ENDBRANCH  32  33
ENDBRANCH  31  32
ENDBRANCH  30  31
ENDBRANCH   3  30
TORSDOF 11
ENDMDL
MODEL 2
REMARK VINA RESULT:      -8.8      2.079      3.249
REMARK  11 active torsions:
REMARK  status: ('A' for Active; 'I' for Inactive)
REMARK    1  A    between atoms: C_3  and  O_4 
REMARK    2  A    between atoms: O_4  and  C_5 
REMARK    3  A    between atoms: C_10  and  C_11 
REMARK    4  A    between atoms: C_11  and  C_12 
REMARK    5  A    between atoms: C_13  and  C_14 
REMARK    6  A    between atoms: C_17  and  O_18 
REMARK    7  A    between atoms: N_21  and  C_22 
REMARK    8  A    between atoms: C_22  and  C_23 
REMARK    9  A    between atoms: C_23  and  C_24 
REMARK   10  A    between atoms: C_24  and  N_25 
REMARK   11  A    between atoms: C_34  and  O_35 
ROOT
HETATM    1  C   UNL     1       7.656  28.610  55.348  1.00  0.00     0.059 A 
HETATM    2  C   UNL     1       7.014  28.879  56.686  1.00  0.00     0.161 A 
HETATM    3  N   UNL     1       8.095  29.569  57.374  1.00  0.00    -0.333 N 
HETATM    4  C   UNL     1       9.153  29.825  56.538  1.00  0.00     0.278 A 
HETATM    5  O   UNL     1      10.182  30.398  56.861  1.00  0.00    -0.265 OA
HETATM    6  C   UNL     1       8.883  29.147  55.247  1.00  0.00     0.146 A 
ENDROOT
BRANCH   1   7
HETATM    7  C   UNL     1       6.942  27.678  54.445  1.00  0.00     0.193 C 
HETATM    8  O   UNL     1       5.977  28.081  53.805  1.00  0.00    -0.287 OA
BRANCH   7   9
HETATM    9  C   UNL     1       7.313  26.248  54.396  1.00  0.00     0.015 A 
HETATM   10  C   UNL     1       7.421  25.545  53.191  1.00  0.00     0.018 A 
HETATM   11  C   UNL     1       7.906  24.235  53.200  1.00  0.00     0.038 A 
HETATM   12  C   UNL     1       8.268  23.629  54.407  1.00  0.00     0.075 A 
HETATM   13  C   UNL     1       8.066  24.292  55.626  1.00  0.00    -0.028 A 
HETATM   14  C   UNL     1       8.334  23.604  56.936  1.00  0.00     0.051 C 
HETATM   15  C   UNL     1       7.587  25.607  55.610  1.00  0.00     0.025 A 
BRANCH  12  16
HETATM   16  O   UNL     1       8.790  22.365  54.459  1.00  0.00    -0.346 OA
BRANCH  16  17
HETATM   17  C   UNL     1       7.870  21.306  54.138  1.00  0.00     0.121 C 
HETATM   18  C   UNL     1       8.295  20.535  52.885  1.00  0.00     0.040 C 
HETATM   19  C   UNL     1       7.866  20.362  55.338  1.00  0.00     0.040 C 
ENDBRANCH  16  17
ENDBRANCH  12  16
ENDBRANCH   7   9
ENDBRANCH   1   7
BRANCH   2  20
HETATM   20  C   UNL     1       5.748  29.713  56.605  1.00  0.00    -0.030 A 
HETATM   21  C   UNL     1       5.771  30.932  55.904  1.00  0.00     0.012 A 
HETATM   22  C   UNL     1       4.625  31.726  55.802  1.00  0.00     0.037 A 
HETATM   23  C   UNL     1       3.448  31.304  56.406  1.00  0.00     0.065 A 
HETATM   24  C   UNL     1       3.401  30.113  57.118  1.00  0.00     0.037 A 
HETATM   25  C   UNL     1       4.548  29.322  57.226  1.00  0.00     0.012 A 
BRANCH  23  26
HETATM   26  O   UNL     1       2.303  32.038  56.327  1.00  0.00    -0.361 OA
HETATM   27  H   UNL     1       1.887  32.075  57.205  1.00  0.00     0.217 HD
ENDBRANCH  23  26
ENDBRANCH   2  20
BRANCH   6  28
HETATM   28  O   UNL     1       9.853  29.024  54.298  1.00  0.00    -0.355 OA
HETATM   29  H   UNL     1      10.217  28.123  54.280  1.00  0.00     0.218 HD
ENDBRANCH   6  28
BRANCH   3  30
HETATM   30  C   UNL     1       8.072  29.879  58.791  1.00  0.00     0.129 C 
BRANCH  30  31
HETATM   31  C   UNL     1       7.682  31.330  59.101  1.00  0.00     0.048 C 
BRANCH  31  32
HETATM   32  C   UNL     1       8.602  32.131  60.030  1.00  0.00     0.236 C 
BRANCH  32  33
HETATM   33  N   UNL     1       7.917  32.693  61.243  1.00  0.00    -0.067 N 
HETATM   34  H   UNL     1       8.218  33.686  61.327  1.00  0.00     0.280 HD
HETATM   35  C   UNL     1       6.401  32.627  61.224  1.00  0.00     0.261 C 
HETATM   36  C   UNL     1       5.836  33.262  62.499  1.00  0.00     0.195 C 
HETATM   37  O   UNL     1       6.358  32.626  63.669  1.00  0.00    -0.388 OA
HETATM   38  C   UNL     1       7.783  32.751  63.739  1.00  0.00     0.195 C 
HETATM   39  C   UNL     1       8.447  32.069  62.536  1.00  0.00     0.261 C 
ENDBRANCH  32  33
ENDBRANCH  31  32
ENDBRANCH  30  31
ENDBRANCH   3  30
TORSDOF 11
ENDMDL
MODEL 3
REMARK VINA RESULT:      -8.8      2.306      8.509
REMARK  11 active torsions:
REMARK  status: ('A' for Active; 'I' for Inactive)
REMARK    1  A    between atoms: C_3  and  O_4 
REMARK    2  A    between atoms: O_4  and  C_5 
REMARK    3  A    between atoms: C_10  and  C_11 
REMARK    4  A    between atoms: C_11  and  C_12 
REMARK    5  A    between atoms: C_13  and  C_14 
REMARK    6  A    between atoms: C_17  and  O_18 
REMARK    7  A    between atoms: N_21  and  C_22 
REMARK    8  A    between atoms: C_22  and  C_23 
REMARK    9  A    between atoms: C_23  and  C_24 
REMARK   10  A    between atoms: C_24  and  N_25 
REMARK   11  A    between atoms: C_34  and  O_35 
ROOT
HETATM    1  C   UNL     1       7.483  27.542  55.660  1.00  0.00     0.059 A 
HETATM    2  C   UNL     1       6.787  27.247  54.356  1.00  0.00     0.161 A 
HETATM    3  N   UNL     1       6.296  25.901  54.606  1.00  0.00    -0.333 N 
HETATM    4  C   UNL     1       6.511  25.510  55.904  1.00  0.00     0.278 A 
HETATM    5  O   UNL     1       6.189  24.430  56.377  1.00  0.00    -0.265 OA
HETATM    6  C   UNL     1       7.334  26.555  56.560  1.00  0.00     0.146 A 
ENDROOT
BRANCH   1   7
HETATM    7  C   UNL     1       8.345  28.746  55.695  1.00  0.00     0.193 C 
HETATM    8  O   UNL     1       9.135  28.947  54.779  1.00  0.00    -0.287 OA
BRANCH   7   9
HETATM    9  C   UNL     1       8.340  29.640  56.873  1.00  0.00     0.015 A 
HETATM   10  C   UNL     1       9.502  29.932  57.593  1.00  0.00     0.018 A 
HETATM   11  C   UNL     1       9.459  30.888  58.611  1.00  0.00     0.038 A 
HETATM   12  C   UNL     1       8.258  31.537  58.913  1.00  0.00     0.075 A 
HETATM   13  C   UNL     1       7.069  31.174  58.264  1.00  0.00    -0.028 A 
HETATM   14  C   UNL     1       5.751  31.775  58.667  1.00  0.00     0.051 C 
HETATM   15  C   UNL     1       7.121  30.222  57.240  1.00  0.00     0.025 A 
BRANCH  12  16
HETATM   16  O   UNL     1       8.178  32.512  59.870  1.00  0.00    -0.346 OA
BRANCH  16  17
HETATM   17  C   UNL     1       7.994  32.038  61.217  1.00  0.00     0.121 C 
HETATM   18  C   UNL     1       9.327  31.850  61.947  1.00  0.00     0.040 C 
HETATM   19  C   UNL     1       7.166  33.100  61.936  1.00  0.00     0.040 C 
ENDBRANCH  16  17
ENDBRANCH  12  16
ENDBRANCH   7   9
ENDBRANCH   1   7
BRANCH   2  20
HETATM   20  C   UNL     1       5.672  28.221  54.019  1.00  0.00    -0.030 A 
HETATM   21  C   UNL     1       5.533  28.679  52.697  1.00  0.00     0.012 A 
HETATM   22  C   UNL     1       4.517  29.572  52.346  1.00  0.00     0.037 A 
HETATM   23  C   UNL     1       3.632  30.015  53.321  1.00  0.00     0.065 A 
HETATM   24  C   UNL     1       3.756  29.592  54.637  1.00  0.00     0.037 A 
HETATM   25  C   UNL     1       4.776  28.705  54.990  1.00  0.00     0.012 A 
BRANCH  23  26
HETATM   26  O   UNL     1       2.620  30.878  53.027  1.00  0.00    -0.361 OA
HETATM   27  H   UNL     1       2.042  30.474  52.357  1.00  0.00     0.217 HD
ENDBRANCH  23  26
ENDBRANCH   2  20
BRANCH   6  28
HETATM   28  O   UNL     1       7.905  26.343  57.778  1.00  0.00    -0.355 OA
HETATM   29  H   UNL     1       7.951  27.164  58.295  1.00  0.00     0.218 HD
ENDBRANCH   6  28
BRANCH   3  30
HETATM   30  C   UNL     1       5.713  25.058  53.579  1.00  0.00     0.129 C 
BRANCH  30  31
HETATM   31  C   UNL     1       6.727  24.543  52.550  1.00  0.00     0.048 C 
BRANCH  31  32
HETATM   32  C   UNL     1       8.079  24.044  53.070  1.00  0.00     0.236 C 
BRANCH  32  33
HETATM   33  N   UNL     1       7.991  22.832  53.955  1.00  0.00    -0.067 N 
HETATM   34  H   UNL     1       7.069  22.878  54.439  1.00  0.00     0.280 HD
HETATM   35  C   UNL     1       8.119  21.497  53.244  1.00  0.00     0.261 C 
HETATM   36  C   UNL     1       7.976  20.354  54.255  1.00  0.00     0.195 C 
HETATM   37  O   UNL     1       8.943  20.467  55.303  1.00  0.00    -0.388 OA
HETATM   38  C   UNL     1       8.781  21.690  56.034  1.00  0.00     0.195 C 
HETATM   39  C   UNL     1       8.986  22.900  55.115  1.00  0.00     0.261 C 
ENDBRANCH  32  33
ENDBRANCH  31  32
ENDBRANCH  30  31
ENDBRANCH   3  30
TORSDOF 11
ENDMDL
MODEL 4
REMARK VINA RESULT:      -8.6      2.534      6.541
REMARK  11 active torsions:
REMARK  status: ('A' for Active; 'I' for Inactive)
REMARK    1  A    between atoms: C_3  and  O_4 
REMARK    2  A    between atoms: O_4  and  C_5 
REMARK    3  A    between atoms: C_10  and  C_11 
REMARK    4  A    between atoms: C_11  and  C_12 
REMARK    5  A    between atoms: C_13  and  C_14 
REMARK    6  A    between atoms: C_17  and  O_18 
REMARK    7  A    between atoms: N_21  and  C_22 
REMARK    8  A    between atoms: C_22  and  C_23 
REMARK    9  A    between atoms: C_23  and  C_24 
REMARK   10  A    between atoms: C_24  and  N_25 
REMARK   11  A    between atoms: C_34  and  O_35 
ROOT
HETATM    1  C   UNL     1       6.515  27.013  56.836  1.00  0.00     0.059 A 
HETATM    2  C   UNL     1       7.050  28.096  55.933  1.00  0.00     0.161 A 
HETATM    3  N   UNL     1       5.811  28.695  55.461  1.00  0.00    -0.333 N 
HETATM    4  C   UNL     1       4.713  28.173  56.100  1.00  0.00     0.278 A 
HETATM    5  O   UNL     1       3.556  28.507  55.897  1.00  0.00    -0.265 OA
HETATM    6  C   UNL     1       5.176  27.044  56.943  1.00  0.00     0.146 A 
ENDROOT
BRANCH   1   7
HETATM    7  C   UNL     1       7.489  26.002  57.309  1.00  0.00     0.193 C 
HETATM    8  O   UNL     1       7.887  26.047  58.468  1.00  0.00    -0.287 OA
BRANCH   7   9
HETATM    9  C   UNL     1       8.066  25.017  56.370  1.00  0.00     0.015 A 
HETATM   10  C   UNL     1       9.067  24.118  56.751  1.00  0.00     0.018 A 
HETATM   11  C   UNL     1       9.475  23.123  55.860  1.00  0.00     0.038 A 
HETATM   12  C   UNL     1       8.893  23.036  54.592  1.00  0.00     0.075 A 
HETATM   13  C   UNL     1       7.963  23.995  54.167  1.00  0.00    -0.028 A 
HETATM   14  C   UNL     1       7.424  23.984  52.763  1.00  0.00     0.051 C 
HETATM   15  C   UNL     1       7.553  24.985  55.068  1.00  0.00     0.025 A 
BRANCH  12  16
HETATM   16  O   UNL     1       9.228  22.050  53.704  1.00  0.00    -0.346 OA
BRANCH  16  17
HETATM   17  C   UNL     1       8.696  20.747  54.001  1.00  0.00     0.121 C 
HETATM   18  C   UNL     1       7.713  20.781  55.175  1.00  0.00     0.040 C 
HETATM   19  C   UNL     1       7.967  20.282  52.743  1.00  0.00     0.040 C 
ENDBRANCH  16  17
ENDBRANCH  12  16
ENDBRANCH   7   9
ENDBRANCH   1   7
BRANCH   2  20
HETATM   20  C   UNL     1       7.949  29.096  56.638  1.00  0.00    -0.030 A 
HETATM   21  C   UNL     1       7.430  29.863  57.696  1.00  0.00     0.012 A 
HETATM   22  C   UNL     1       8.226  30.790  58.373  1.00  0.00     0.037 A 
HETATM   23  C   UNL     1       9.552  30.957  57.992  1.00  0.00     0.065 A 
HETATM   24  C   UNL     1      10.086  30.224  56.941  1.00  0.00     0.037 A 
HETATM   25  C   UNL     1       9.288  29.302  56.259  1.00  0.00     0.012 A 
BRANCH  23  26
HETATM   26  O   UNL     1      10.371  31.841  58.627  1.00  0.00    -0.361 OA
HETATM   27  H   UNL     1       9.836  32.413  59.203  1.00  0.00     0.217 HD
ENDBRANCH  23  26
ENDBRANCH   2  20
BRANCH   6  28
HETATM   28  O   UNL     1       4.290  26.182  57.517  1.00  0.00    -0.355 OA
HETATM   29  H   UNL     1       3.918  26.552  58.334  1.00  0.00     0.218 HD
ENDBRANCH   6  28
BRANCH   3  30
HETATM   30  C   UNL     1       5.752  29.675  54.393  1.00  0.00     0.129 C 
BRANCH  30  31
HETATM   31  C   UNL     1       4.908  29.232  53.191  1.00  0.00     0.048 C 
BRANCH  31  32
HETATM   32  C   UNL     1       5.092  27.799  52.681  1.00  0.00     0.236 C 
BRANCH  32  33
HETATM   33  N   UNL     1       4.339  27.492  51.417  1.00  0.00    -0.067 N 
HETATM   34  H   UNL     1       3.555  26.858  51.679  1.00  0.00     0.280 HD
HETATM   35  C   UNL     1       3.786  28.698  50.680  1.00  0.00     0.261 C 
HETATM   36  C   UNL     1       3.017  28.239  49.436  1.00  0.00     0.195 C 
HETATM   37  O   UNL     1       3.846  27.453  48.575  1.00  0.00    -0.388 OA
HETATM   38  C   UNL     1       4.310  26.270  49.236  1.00  0.00     0.195 C 
HETATM   39  C   UNL     1       5.164  26.631  50.458  1.00  0.00     0.261 C 
ENDBRANCH  32  33
ENDBRANCH  31  32
ENDBRANCH  30  31
ENDBRANCH   3  30
TORSDOF 11
ENDMDL
MODEL 5
REMARK VINA RESULT:      -8.5      3.219      7.260
REMARK  11 active torsions:
REMARK  status: ('A' for Active; 'I' for Inactive)
REMARK    1  A    between atoms: C_3  and  O_4 
REMARK    2  A    between atoms: O_4  and  C_5 
REMARK    3  A    between atoms: C_10  and  C_11 
REMARK    4  A    between atoms: C_11  and  C_12 
REMARK    5  A    between atoms: C_13  and  C_14 
REMARK    6  A    between atoms: C_17  and  O_18 
REMARK    7  A    between atoms: N_21  and  C_22 
REMARK    8  A    between atoms: C_22  and  C_23 
REMARK    9  A    between atoms: C_23  and  C_24 
REMARK   10  A    between atoms: C_24  and  N_25 
REMARK   11  A    between atoms: C_34  and  O_35 
ROOT
HETATM    1  C   UNL     1       5.259  26.651  52.878  1.00  0.00     0.059 A 
HETATM    2  C   UNL     1       6.685  26.575  53.363  1.00  0.00     0.161 A 
HETATM    3  N   UNL     1       6.636  27.484  54.498  1.00  0.00    -0.333 N 
HETATM    4  C   UNL     1       5.357  27.908  54.760  1.00  0.00     0.278 A 
HETATM    5  O   UNL     1       5.039  28.668  55.663  1.00  0.00    -0.265 OA
HETATM    6  C   UNL     1       4.484  27.412  53.669  1.00  0.00     0.146 A 
ENDROOT
BRANCH   1   7
HETATM    7  C   UNL     1       4.975  26.048  51.556  1.00  0.00     0.193 C 
HETATM    8  O   UNL     1       4.956  24.827  51.442  1.00  0.00    -0.287 OA
BRANCH   7   9
HETATM    9  C   UNL     1       4.826  26.902  50.357  1.00  0.00     0.015 A 
HETATM   10  C   UNL     1       5.464  28.141  50.238  1.00  0.00     0.018 A 
HETATM   11  C   UNL     1       5.394  28.837  49.030  1.00  0.00     0.038 A 
HETATM   12  C   UNL     1       4.682  28.303  47.952  1.00  0.00     0.075 A 
HETATM   13  C   UNL     1       3.957  27.111  48.097  1.00  0.00    -0.028 A 
HETATM   14  C   UNL     1       3.087  26.593  46.986  1.00  0.00     0.051 C 
HETATM   15  C   UNL     1       4.037  26.415  49.308  1.00  0.00     0.025 A 
BRANCH  12  16
HETATM   16  O   UNL     1       4.625  28.928  46.736  1.00  0.00    -0.346 OA
BRANCH  16  17
HETATM   17  C   UNL     1       4.165  30.291  46.765  1.00  0.00     0.121 C 
HETATM   18  C   UNL     1       4.846  31.152  45.698  1.00  0.00     0.040 C 
HETATM   19  C   UNL     1       2.663  30.243  46.496  1.00  0.00     0.040 C 
ENDBRANCH  16  17
ENDBRANCH  12  16
ENDBRANCH   7   9
ENDBRANCH   1   7
BRANCH   2  20
HETATM   20  C   UNL     1       7.128  25.177  53.754  1.00  0.00    -0.030 A 
HETATM   21  C   UNL     1       7.994  24.466  52.904  1.00  0.00     0.012 A 
HETATM   22  C   UNL     1       8.429  23.179  53.230  1.00  0.00     0.037 A 
HETATM   23  C   UNL     1       7.996  22.593  54.413  1.00  0.00     0.065 A 
HETATM   24  C   UNL     1       7.129  23.265  55.263  1.00  0.00     0.037 A 
HETATM   25  C   UNL     1       6.688  24.549  54.934  1.00  0.00     0.012 A 
BRANCH  23  26
HETATM   26  O   UNL     1       8.399  21.344  54.780  1.00  0.00    -0.361 OA
HETATM   27  H   UNL     1       8.029  20.695  54.159  1.00  0.00     0.217 HD
ENDBRANCH  23  26
ENDBRANCH   2  20
BRANCH   6  28
HETATM   28  O   UNL     1       3.206  27.863  53.527  1.00  0.00    -0.355 OA
HETATM   29  H   UNL     1       3.066  28.253  52.648  1.00  0.00     0.218 HD
ENDBRANCH   6  28
BRANCH   3  30
HETATM   30  C   UNL     1       7.815  27.934  55.214  1.00  0.00     0.129 C 
BRANCH  30  31
HETATM   31  C   UNL     1       7.883  27.445  56.666  1.00  0.00     0.048 C 
BRANCH  31  32
HETATM   32  C   UNL     1       7.656  28.478  57.776  1.00  0.00     0.236 C 
BRANCH  32  33
HETATM   33  N   UNL     1       8.855  29.330  58.082  1.00  0.00    -0.067 N 
HETATM   34  H   UNL     1       9.262  28.969  58.971  1.00  0.00     0.280 HD
HETATM   35  C   UNL     1       9.929  29.351  57.010  1.00  0.00     0.261 C 
HETATM   36  C   UNL     1      11.102  30.226  57.467  1.00  0.00     0.195 C 
HETATM   37  O   UNL     1      10.668  31.553  57.778  1.00  0.00    -0.388 OA
HETATM   38  C   UNL     1       9.711  31.551  58.846  1.00  0.00     0.195 C 
HETATM   39  C   UNL     1       8.458  30.762  58.448  1.00  0.00     0.261 C 
ENDBRANCH  32  33
ENDBRANCH  31  32
ENDBRANCH  30  31
ENDBRANCH   3  30
TORSDOF 11
ENDMDL
MODEL 6
REMARK VINA RESULT:      -8.5      3.123      4.969
REMARK  11 active torsions:
REMARK  status: ('A' for Active; 'I' for Inactive)
REMARK    1  A    between atoms: C_3  and  O_4 
REMARK    2  A    between atoms: O_4  and  C_5 
REMARK    3  A    between atoms: C_10  and  C_11 
REMARK    4  A    between atoms: C_11  and  C_12 
REMARK    5  A    between atoms: C_13  and  C_14 
REMARK    6  A    between atoms: C_17  and  O_18 
REMARK    7  A    between atoms: N_21  and  C_22 
REMARK    8  A    between atoms: C_22  and  C_23 
REMARK    9  A    between atoms: C_23  and  C_24 
REMARK   10  A    between atoms: C_24  and  N_25 
REMARK   11  A    between atoms: C_34  and  O_35 
ROOT
HETATM    1  C   UNL     1       8.349  29.669  57.780  1.00  0.00     0.059 A 
HETATM    2  C   UNL     1       7.679  30.483  58.858  1.00  0.00     0.161 A 
HETATM    3  N   UNL     1       8.739  31.423  59.189  1.00  0.00    -0.333 N 
HETATM    4  C   UNL     1       9.810  31.309  58.338  1.00  0.00     0.278 A 
HETATM    5  O   UNL     1      10.826  31.984  58.392  1.00  0.00    -0.265 OA
HETATM    6  C   UNL     1       9.572  30.130  57.469  1.00  0.00     0.146 A 
ENDROOT
BRANCH   1   7
HETATM    7  C   UNL     1       7.663  28.424  57.365  1.00  0.00     0.193 C 
HETATM    8  O   UNL     1       7.591  27.486  58.152  1.00  0.00    -0.287 OA
BRANCH   7   9
HETATM    9  C   UNL     1       7.168  28.264  55.982  1.00  0.00     0.015 A 
HETATM   10  C   UNL     1       7.989  27.820  54.940  1.00  0.00     0.018 A 
HETATM   11  C   UNL     1       7.430  27.560  53.687  1.00  0.00     0.038 A 
HETATM   12  C   UNL     1       6.062  27.754  53.474  1.00  0.00     0.075 A 
HETATM   13  C   UNL     1       5.254  28.295  54.484  1.00  0.00    -0.028 A 
HETATM   14  C   UNL     1       3.809  28.625  54.227  1.00  0.00     0.051 C 
HETATM   15  C   UNL     1       5.818  28.546  55.740  1.00  0.00     0.025 A 
BRANCH  12  16
HETATM   16  O   UNL     1       5.464  27.469  52.276  1.00  0.00    -0.346 OA
BRANCH  16  17
HETATM   17  C   UNL     1       5.648  26.123  51.802  1.00  0.00     0.121 C 
HETATM   18  C   UNL     1       4.963  25.095  52.708  1.00  0.00     0.040 C 
HETATM   19  C   UNL     1       5.022  26.068  50.410  1.00  0.00     0.040 C 
ENDBRANCH  16  17
ENDBRANCH  12  16
ENDBRANCH   7   9
ENDBRANCH   1   7
BRANCH   2  20
HETATM   20  C   UNL     1       6.406  31.174  58.406  1.00  0.00    -0.030 A 
HETATM   21  C   UNL     1       5.382  31.413  59.340  1.00  0.00     0.012 A 
HETATM   22  C   UNL     1       4.198  32.051  58.964  1.00  0.00     0.037 A 
HETATM   23  C   UNL     1       4.029  32.453  57.645  1.00  0.00     0.065 A 
HETATM   24  C   UNL     1       5.016  32.216  56.699  1.00  0.00     0.037 A 
HETATM   25  C   UNL     1       6.198  31.572  57.072  1.00  0.00     0.012 A 
BRANCH  23  26
HETATM   26  O   UNL     1       2.896  33.088  57.232  1.00  0.00    -0.361 OA
HETATM   27  H   UNL     1       2.129  32.518  57.412  1.00  0.00     0.217 HD
ENDBRANCH  23  26
ENDBRANCH   2  20
BRANCH   6  28
HETATM   28  O   UNL     1      10.562  29.624  56.681  1.00  0.00    -0.355 OA
HETATM   29  H   UNL     1      10.402  29.822  55.744  1.00  0.00     0.218 HD
ENDBRANCH   6  28
BRANCH   3  30
HETATM   30  C   UNL     1       8.685  32.321  60.328  1.00  0.00     0.129 C 
BRANCH  30  31
HETATM   31  C   UNL     1       8.282  31.635  61.640  1.00  0.00     0.048 C 
BRANCH  31  32
HETATM   32  C   UNL     1       8.386  32.453  62.932  1.00  0.00     0.236 C 
BRANCH  32  33
HETATM   33  N   UNL     1       7.077  33.010  63.417  1.00  0.00    -0.067 N 
HETATM   34  H   UNL     1       6.984  33.962  63.005  1.00  0.00     0.280 HD
HETATM   35  C   UNL     1       5.850  32.188  63.068  1.00  0.00     0.261 C 
HETATM   36  C   UNL     1       4.590  32.886  63.590  1.00  0.00     0.195 C 
HETATM   37  O   UNL     1       4.669  33.108  65.001  1.00  0.00    -0.388 OA
HETATM   38  C   UNL     1       5.780  33.950  65.336  1.00  0.00     0.195 C 
HETATM   39  C   UNL     1       7.102  33.293  64.921  1.00  0.00     0.261 C 
ENDBRANCH  32  33
ENDBRANCH  31  32
ENDBRANCH  30  31
ENDBRANCH   3  30
TORSDOF 11
ENDMDL
MODEL 7
REMARK VINA RESULT:      -8.4      3.011      8.918
REMARK  11 active torsions:
REMARK  status: ('A' for Active; 'I' for Inactive)
REMARK    1  A    between atoms: C_3  and  O_4 
REMARK    2  A    between atoms: O_4  and  C_5 
REMARK    3  A    between atoms: C_10  and  C_11 
REMARK    4  A    between atoms: C_11  and  C_12 
REMARK    5  A    between atoms: C_13  and  C_14 
REMARK    6  A    between atoms: C_17  and  O_18 
REMARK    7  A    between atoms: N_21  and  C_22 
REMARK    8  A    between atoms: C_22  and  C_23 
REMARK    9  A    between atoms: C_23  and  C_24 
REMARK   10  A    between atoms: C_24  and  N_25 
REMARK   11  A    between atoms: C_34  and  O_35 
ROOT
HETATM    1  C   UNL     1       7.157  28.299  56.473  1.00  0.00     0.059 A 
HETATM    2  C   UNL     1       6.284  28.370  55.246  1.00  0.00     0.161 A 
HETATM    3  N   UNL     1       5.898  26.975  55.104  1.00  0.00    -0.333 N 
HETATM    4  C   UNL     1       6.327  26.214  56.163  1.00  0.00     0.278 A 
HETATM    5  O   UNL     1       6.129  25.016  56.294  1.00  0.00    -0.265 OA
HETATM    6  C   UNL     1       7.192  27.069  57.012  1.00  0.00     0.146 A 
ENDROOT
BRANCH   1   7
HETATM    7  C   UNL     1       7.960  29.503  56.788  1.00  0.00     0.193 C 
HETATM    8  O   UNL     1       8.856  29.846  56.024  1.00  0.00    -0.287 OA
BRANCH   7   9
HETATM    9  C   UNL     1       7.763  30.225  58.062  1.00  0.00     0.015 A 
HETATM   10  C   UNL     1       8.601  30.036  59.166  1.00  0.00     0.018 A 
HETATM   11  C   UNL     1       8.447  30.845  60.294  1.00  0.00     0.038 A 
HETATM   12  C   UNL     1       7.454  31.828  60.322  1.00  0.00     0.075 A 
HETATM   13  C   UNL     1       6.546  31.954  59.261  1.00  0.00    -0.028 A 
HETATM   14  C   UNL     1       5.398  32.923  59.334  1.00  0.00     0.051 C 
HETATM   15  C   UNL     1       6.711  31.146  58.130  1.00  0.00     0.025 A 
BRANCH  12  16
HETATM   16  O   UNL     1       7.296  32.673  61.387  1.00  0.00    -0.346 OA
BRANCH  16  17
HETATM   17  C   UNL     1       7.160  32.031  62.667  1.00  0.00     0.121 C 
HETATM   18  C   UNL     1       7.906  32.785  63.772  1.00  0.00     0.040 C 
HETATM   19  C   UNL     1       5.666  32.015  62.983  1.00  0.00     0.040 C 
ENDBRANCH  16  17
ENDBRANCH  12  16
ENDBRANCH   7   9
ENDBRANCH   1   7
BRANCH   2  20
HETATM   20  C   UNL     1       5.088  29.294  55.395  1.00  0.00    -0.030 A 
HETATM   21  C   UNL     1       4.730  30.134  54.325  1.00  0.00     0.012 A 
HETATM   22  C   UNL     1       3.633  30.995  54.421  1.00  0.00     0.037 A 
HETATM   23  C   UNL     1       2.888  31.021  55.593  1.00  0.00     0.065 A 
HETATM   24  C   UNL     1       3.228  30.214  56.670  1.00  0.00     0.037 A 
HETATM   25  C   UNL     1       4.329  29.359  56.577  1.00  0.00     0.012 A 
BRANCH  23  26
HETATM   26  O   UNL     1       1.805  31.836  55.731  1.00  0.00    -0.361 OA
HETATM   27  H   UNL     1       1.040  31.304  56.010  1.00  0.00     0.217 HD
ENDBRANCH  23  26
ENDBRANCH   2  20
BRANCH   6  28
HETATM   28  O   UNL     1       7.951  26.534  58.009  1.00  0.00    -0.355 OA
HETATM   29  H   UNL     1       7.879  27.055  58.825  1.00  0.00     0.218 HD
ENDBRANCH   6  28
BRANCH   3  30
HETATM   30  C   UNL     1       5.203  26.451  53.942  1.00  0.00     0.129 C 
BRANCH  30  31
HETATM   31  C   UNL     1       5.806  26.900  52.605  1.00  0.00     0.048 C 
BRANCH  31  32
HETATM   32  C   UNL     1       5.385  26.139  51.343  1.00  0.00     0.236 C 
BRANCH  32  33
HETATM   33  N   UNL     1       4.266  26.785  50.576  1.00  0.00    -0.067 N 
HETATM   34  H   UNL     1       3.378  26.380  50.940  1.00  0.00     0.280 HD
HETATM   35  C   UNL     1       4.204  28.298  50.667  1.00  0.00     0.261 C 
HETATM   36  C   UNL     1       3.001  28.818  49.872  1.00  0.00     0.195 C 
HETATM   37  O   UNL     1       3.061  28.393  48.507  1.00  0.00    -0.388 OA
HETATM   38  C   UNL     1       3.040  26.964  48.404  1.00  0.00     0.195 C 
HETATM   39  C   UNL     1       4.258  26.352  49.108  1.00  0.00     0.261 C 
ENDBRANCH  32  33
ENDBRANCH  31  32
ENDBRANCH  30  31
ENDBRANCH   3  30
TORSDOF 11
ENDMDL
MODEL 8
REMARK VINA RESULT:      -8.3      3.755      9.264
REMARK  11 active torsions:
REMARK  status: ('A' for Active; 'I' for Inactive)
REMARK    1  A    between atoms: C_3  and  O_4 
REMARK    2  A    between atoms: O_4  and  C_5 
REMARK    3  A    between atoms: C_10  and  C_11 
REMARK    4  A    between atoms: C_11  and  C_12 
REMARK    5  A    between atoms: C_13  and  C_14 
REMARK    6  A    between atoms: C_17  and  O_18 
REMARK    7  A    between atoms: N_21  and  C_22 
REMARK    8  A    between atoms: C_22  and  C_23 
REMARK    9  A    between atoms: C_23  and  C_24 
REMARK   10  A    between atoms: C_24  and  N_25 
REMARK   11  A    between atoms: C_34  and  O_35 
ROOT
HETATM    1  C   UNL     1       4.991  28.290  52.486  1.00  0.00     0.059 A 
HETATM    2  C   UNL     1       4.851  26.945  51.819  1.00  0.00     0.161 A 
HETATM    3  N   UNL     1       5.069  27.307  50.426  1.00  0.00    -0.333 N 
HETATM    4  C   UNL     1       5.445  28.620  50.291  1.00  0.00     0.278 A 
HETATM    5  O   UNL     1       5.696  29.175  49.232  1.00  0.00    -0.265 OA
HETATM    6  C   UNL     1       5.332  29.262  51.624  1.00  0.00     0.146 A 
ENDROOT
BRANCH   1   7
HETATM    7  C   UNL     1       4.572  28.374  53.904  1.00  0.00     0.193 C 
HETATM    8  O   UNL     1       3.378  28.347  54.182  1.00  0.00    -0.287 OA
BRANCH   7   9
HETATM    9  C   UNL     1       5.571  28.601  54.970  1.00  0.00     0.015 A 
HETATM   10  C   UNL     1       5.730  29.843  55.593  1.00  0.00     0.018 A 
HETATM   11  C   UNL     1       6.594  29.960  56.684  1.00  0.00     0.038 A 
HETATM   12  C   UNL     1       7.303  28.845  57.141  1.00  0.00     0.075 A 
HETATM   13  C   UNL     1       7.226  27.622  56.458  1.00  0.00    -0.028 A 
HETATM   14  C   UNL     1       8.078  26.452  56.864  1.00  0.00     0.051 C 
HETATM   15  C   UNL     1       6.352  27.510  55.370  1.00  0.00     0.025 A 
BRANCH  12  16
HETATM   16  O   UNL     1       8.125  28.902  58.233  1.00  0.00    -0.346 OA
BRANCH  16  17
HETATM   17  C   UNL     1       8.762  30.173  58.458  1.00  0.00     0.121 C 
HETATM   18  C   UNL     1       8.898  30.493  59.949  1.00  0.00     0.040 C 
HETATM   19  C   UNL     1      10.151  30.073  57.831  1.00  0.00     0.040 C 
ENDBRANCH  16  17
ENDBRANCH  12  16
ENDBRANCH   7   9
ENDBRANCH   1   7
BRANCH   2  20
HETATM   20  C   UNL     1       5.842  25.907  52.313  1.00  0.00    -0.030 A 
HETATM   21  C   UNL     1       5.386  24.848  53.119  1.00  0.00     0.012 A 
HETATM   22  C   UNL     1       6.265  23.870  53.589  1.00  0.00     0.037 A 
HETATM   23  C   UNL     1       7.612  23.947  53.258  1.00  0.00     0.065 A 
HETATM   24  C   UNL     1       8.092  24.990  52.477  1.00  0.00     0.037 A 
HETATM   25  C   UNL     1       7.215  25.972  52.013  1.00  0.00     0.012 A 
BRANCH  23  26
HETATM   26  O   UNL     1       8.507  23.013  53.684  1.00  0.00    -0.361 OA
HETATM   27  H   UNL     1       9.336  23.456  53.932  1.00  0.00     0.217 HD
ENDBRANCH  23  26
ENDBRANCH   2  20
BRANCH   6  28
HETATM   28  O   UNL     1       5.414  30.614  51.764  1.00  0.00    -0.355 OA
HETATM   29  H   UNL     1       4.539  31.031  51.687  1.00  0.00     0.218 HD
ENDBRANCH   6  28
BRANCH   3  30
HETATM   30  C   UNL     1       4.844  26.397  49.319  1.00  0.00     0.129 C 
BRANCH  30  31
HETATM   31  C   UNL     1       3.402  26.402  48.794  1.00  0.00     0.048 C 
BRANCH  31  32
HETATM   32  C   UNL     1       3.196  26.343  47.277  1.00  0.00     0.236 C 
BRANCH  32  33
HETATM   33  N   UNL     1       2.292  27.415  46.734  1.00  0.00    -0.067 N 
HETATM   34  H   UNL     1       2.465  27.463  45.708  1.00  0.00     0.280 HD
HETATM   35  C   UNL     1       0.811  27.205  46.986  1.00  0.00     0.261 C 
HETATM   36  C   UNL     1       0.009  28.347  46.353  1.00  0.00     0.195 C 
HETATM   37  O   UNL     1       0.435  29.618  46.853  1.00  0.00    -0.388 OA
HETATM   38  C   UNL     1       1.815  29.862  46.551  1.00  0.00     0.195 C 
HETATM   39  C   UNL     1       2.709  28.807  47.214  1.00  0.00     0.261 C 
ENDBRANCH  32  33
ENDBRANCH  31  32
ENDBRANCH  30  31
ENDBRANCH   3  30
TORSDOF 11
ENDMDL
MODEL 9
REMARK VINA RESULT:      -8.3      2.500      4.375
REMARK  11 active torsions:
REMARK  status: ('A' for Active; 'I' for Inactive)
REMARK    1  A    between atoms: C_3  and  O_4 
REMARK    2  A    between atoms: O_4  and  C_5 
REMARK    3  A    between atoms: C_10  and  C_11 
REMARK    4  A    between atoms: C_11  and  C_12 
REMARK    5  A    between atoms: C_13  and  C_14 
REMARK    6  A    between atoms: C_17  and  O_18 
REMARK    7  A    between atoms: N_21  and  C_22 
REMARK    8  A    between atoms: C_22  and  C_23 
REMARK    9  A    between atoms: C_23  and  C_24 
REMARK   10  A    between atoms: C_24  and  N_25 
REMARK   11  A    between atoms: C_34  and  O_35 
ROOT
HETATM    1  C   UNL     1       7.436  29.849  57.708  1.00  0.00     0.059 A 
HETATM    2  C   UNL     1       7.114  30.789  58.843  1.00  0.00     0.161 A 
HETATM    3  N   UNL     1       8.402  31.438  59.032  1.00  0.00    -0.333 N 
HETATM    4  C   UNL     1       9.307  31.075  58.065  1.00  0.00     0.278 A 
HETATM    5  O   UNL     1      10.456  31.482  57.989  1.00  0.00    -0.265 OA
HETATM    6  C   UNL     1       8.689  30.001  57.250  1.00  0.00     0.146 A 
ENDROOT
BRANCH   1   7
HETATM    7  C   UNL     1       6.423  28.813  57.397  1.00  0.00     0.193 C 
HETATM    8  O   UNL     1       5.265  28.974  57.767  1.00  0.00    -0.287 OA
BRANCH   7   9
HETATM    9  C   UNL     1       6.819  27.546  56.748  1.00  0.00     0.015 A 
HETATM   10  C   UNL     1       6.514  27.262  55.413  1.00  0.00     0.018 A 
HETATM   11  C   UNL     1       7.031  26.110  54.818  1.00  0.00     0.038 A 
HETATM   12  C   UNL     1       7.839  25.241  55.557  1.00  0.00     0.075 A 
HETATM   13  C   UNL     1       8.065  25.466  56.923  1.00  0.00    -0.028 A 
HETATM   14  C   UNL     1       8.828  24.474  57.757  1.00  0.00     0.051 C 
HETATM   15  C   UNL     1       7.550  26.627  57.511  1.00  0.00     0.025 A 
BRANCH  12  16
HETATM   16  O   UNL     1       8.405  24.124  55.004  1.00  0.00    -0.346 OA
BRANCH  16  17
HETATM   17  C   UNL     1       7.475  23.156  54.485  1.00  0.00     0.121 C 
HETATM   18  C   UNL     1       7.714  22.868  53.000  1.00  0.00     0.040 C 
HETATM   19  C   UNL     1       7.691  21.878  55.291  1.00  0.00     0.040 C 
ENDBRANCH  16  17
ENDBRANCH  12  16
ENDBRANCH   7   9
ENDBRANCH   1   7
BRANCH   2  20
HETATM   20  C   UNL     1       6.004  31.776  58.528  1.00  0.00    -0.030 A 
HETATM   21  C   UNL     1       5.142  32.193  59.558  1.00  0.00     0.012 A 
HETATM   22  C   UNL     1       4.112  33.104  59.311  1.00  0.00     0.037 A 
HETATM   23  C   UNL     1       3.936  33.602  58.026  1.00  0.00     0.065 A 
HETATM   24  C   UNL     1       4.762  33.194  56.987  1.00  0.00     0.037 A 
HETATM   25  C   UNL     1       5.788  32.279  57.233  1.00  0.00     0.012 A 
BRANCH  23  26
HETATM   26  O   UNL     1       2.952  34.498  57.737  1.00  0.00    -0.361 OA
HETATM   27  H   UNL     1       2.110  34.174  58.097  1.00  0.00     0.217 HD
ENDBRANCH  23  26
ENDBRANCH   2  20
BRANCH   6  28
HETATM   28  O   UNL     1       9.427  29.277  56.362  1.00  0.00    -0.355 OA
HETATM   29  H   UNL     1      10.354  29.214  56.643  1.00  0.00     0.218 HD
ENDBRANCH   6  28
BRANCH   3  30
HETATM   30  C   UNL     1       8.702  32.308  60.154  1.00  0.00     0.129 C 
BRANCH  30  31
HETATM   31  C   UNL     1       9.275  31.574  61.373  1.00  0.00     0.048 C 
BRANCH  31  32
HETATM   32  C   UNL     1       8.295  31.142  62.469  1.00  0.00     0.236 C 
BRANCH  32  33
HETATM   33  N   UNL     1       7.296  32.196  62.855  1.00  0.00    -0.067 N 
HETATM   34  H   UNL     1       7.349  32.942  62.130  1.00  0.00     0.280 HD
HETATM   35  C   UNL     1       5.862  31.718  62.981  1.00  0.00     0.261 C 
HETATM   36  C   UNL     1       4.951  32.896  63.343  1.00  0.00     0.195 C 
HETATM   37  O   UNL     1       5.383  33.532  64.550  1.00  0.00    -0.388 OA
HETATM   38  C   UNL     1       6.709  34.059  64.416  1.00  0.00     0.195 C 
HETATM   39  C   UNL     1       7.712  32.934  64.130  1.00  0.00     0.261 C 
ENDBRANCH  32  33
ENDBRANCH  31  32
ENDBRANCH  30  31
ENDBRANCH   3  30
TORSDOF 11
ENDMDL
MODEL 10
REMARK VINA RESULT:      -8.3      2.808      7.105
REMARK  11 active torsions:
REMARK  status: ('A' for Active; 'I' for Inactive)
REMARK    1  A    between atoms: C_3  and  O_4 
REMARK    2  A    between atoms: O_4  and  C_5 
REMARK    3  A    between atoms: C_10  and  C_11 
REMARK    4  A    between atoms: C_11  and  C_12 
REMARK    5  A    between atoms: C_13  and  C_14 
REMARK    6  A    between atoms: C_17  and  O_18 
REMARK    7  A    between atoms: N_21  and  C_22 
REMARK    8  A    between atoms: C_22  and  C_23 
REMARK    9  A    between atoms: C_23  and  C_24 
REMARK   10  A    between atoms: C_24  and  N_25 
REMARK   11  A    between atoms: C_34  and  O_35 
ROOT
HETATM    1  C   UNL     1       6.457  25.608  53.638  1.00  0.00     0.059 A 
HETATM    2  C   UNL     1       7.529  25.139  54.589  1.00  0.00     0.161 A 
HETATM    3  N   UNL     1       6.874  25.360  55.869  1.00  0.00    -0.333 N 
HETATM    4  C   UNL     1       5.564  25.740  55.716  1.00  0.00     0.278 A 
HETATM    5  O   UNL     1       4.790  25.980  56.630  1.00  0.00    -0.265 OA
HETATM    6  C   UNL     1       5.323  25.956  54.269  1.00  0.00     0.146 A 
ENDROOT
BRANCH   1   7
HETATM    7  C   UNL     1       6.855  25.781  52.222  1.00  0.00     0.193 C 
HETATM    8  O   UNL     1       7.961  25.396  51.856  1.00  0.00    -0.287 OA
BRANCH   7   9
HETATM    9  C   UNL     1       5.981  26.511  51.279  1.00  0.00     0.015 A 
HETATM   10  C   UNL     1       5.094  25.853  50.421  1.00  0.00     0.018 A 
HETATM   11  C   UNL     1       4.199  26.600  49.652  1.00  0.00     0.038 A 
HETATM   12  C   UNL     1       4.200  27.996  49.732  1.00  0.00     0.075 A 
HETATM   13  C   UNL     1       5.155  28.664  50.513  1.00  0.00    -0.028 A 
HETATM   14  C   UNL     1       5.246  30.165  50.509  1.00  0.00     0.051 C 
HETATM   15  C   UNL     1       6.043  27.909  51.287  1.00  0.00     0.025 A 
BRANCH  12  16
HETATM   16  O   UNL     1       3.311  28.766  49.032  1.00  0.00    -0.346 OA
BRANCH  16  17
HETATM   17  C   UNL     1       1.924  28.541  49.342  1.00  0.00     0.121 C 
HETATM   18  C   UNL     1       1.284  29.750  50.030  1.00  0.00     0.040 C 
HETATM   19  C   UNL     1       1.223  28.284  48.011  1.00  0.00     0.040 C 
ENDBRANCH  16  17
ENDBRANCH  12  16
ENDBRANCH   7   9
ENDBRANCH   1   7
BRANCH   2  20
HETATM   20  C   UNL     1       7.941  23.692  54.387  1.00  0.00    -0.030 A 
HETATM   21  C   UNL     1       7.258  22.907  53.440  1.00  0.00     0.012 A 
HETATM   22  C   UNL     1       7.610  21.573  53.221  1.00  0.00     0.037 A 
HETATM   23  C   UNL     1       8.649  21.013  53.953  1.00  0.00     0.065 A 
HETATM   24  C   UNL     1       9.330  21.760  54.905  1.00  0.00     0.037 A 
HETATM   25  C   UNL     1       8.974  23.092  55.129  1.00  0.00     0.012 A 
BRANCH  23  26
HETATM   26  O   UNL     1       9.036  19.720  53.769  1.00  0.00    -0.361 OA
HETATM   27  H   UNL     1       9.407  19.377  54.600  1.00  0.00     0.217 HD
ENDBRANCH  23  26
ENDBRANCH   2  20
BRANCH   6  28
HETATM   28  O   UNL     1       4.185  26.560  53.826  1.00  0.00    -0.355 OA
HETATM   29  H   UNL     1       3.680  25.974  53.238  1.00  0.00     0.218 HD
ENDBRANCH   6  28
BRANCH   3  30
HETATM   30  C   UNL     1       7.557  25.256  57.146  1.00  0.00     0.129 C 
BRANCH  30  31
HETATM   31  C   UNL     1       8.551  26.394  57.412  1.00  0.00     0.048 C 
BRANCH  31  32
HETATM   32  C   UNL     1       8.149  27.807  56.976  1.00  0.00     0.236 C 
BRANCH  32  33
HETATM   33  N   UNL     1       8.871  28.906  57.703  1.00  0.00    -0.067 N 
HETATM   34  H   UNL     1       9.426  28.454  58.459  1.00  0.00     0.280 HD
HETATM   35  C   UNL     1       9.787  29.760  56.847  1.00  0.00     0.261 C 
HETATM   36  C   UNL     1      10.481  30.813  57.719  1.00  0.00     0.195 C 
HETATM   37  O   UNL     1       9.525  31.625  58.408  1.00  0.00    -0.388 OA
HETATM   38  C   UNL     1       8.705  30.839  59.281  1.00  0.00     0.195 C 
HETATM   39  C   UNL     1       7.905  29.801  58.483  1.00  0.00     0.261 C 
ENDBRANCH  32  33
ENDBRANCH  31  32
ENDBRANCH  30  31
ENDBRANCH   3  30
TORSDOF 11
ENDMDL
