MODEL 1
REMARK VINA RESULT:      -8.9      0.000      0.000
REMARK  8 active torsions:
REMARK  status: ('A' for Active; 'I' for Inactive)
REMARK    1  A    between atoms: C_2  and  O_3 
REMARK    2  A    between atoms: O_3  and  C_4 
REMARK    3  A    between atoms: C_5  and  O_6 
REMARK    4  A    between atoms: C_9  and  C_10 
REMARK    5  A    between atoms: C_10  and  N_11 
REMARK       I    between atoms: N_11  and  C_12 
REMARK    6  A    between atoms: C_12  and  C_13 
REMARK    7  A    between atoms: C_14  and  N_15 
REMARK       I    between atoms: N_15  and  C_16 
REMARK    8  A    between atoms: C_16  and  C_17 
ROOT
HETATM    1  C   UNL     1       8.853  29.413  57.627  1.00  0.00     0.058 A 
HETATM    2  C   UNL     1       8.961  30.564  58.446  1.00  0.00     0.050 A 
HETATM    3  C   UNL     1      10.196  31.219  58.523  1.00  0.00     0.030 A 
HETATM    4  C   UNL     1      11.299  30.764  57.795  1.00  0.00     0.002 A 
HETATM    5  C   UNL     1      11.183  29.650  56.971  1.00  0.00     0.001 A 
HETATM    6  C   UNL     1       9.966  28.979  56.881  1.00  0.00     0.019 A 
ENDROOT
BRANCH   1   7
HETATM    7  C   UNL     1       7.551  28.684  57.505  1.00  0.00     0.254 C 
HETATM    8  N   UNL     1       7.590  27.307  57.547  1.00  0.00    -0.353 N 
HETATM    9  H   UNL     1       8.443  26.823  57.785  1.00  0.00     0.163 HD
HETATM   10  O   UNL     1       6.502  29.315  57.403  1.00  0.00    -0.268 OA
BRANCH   8  11
HETATM   11  C   UNL     1       6.400  26.506  57.369  1.00  0.00     0.161 C 
BRANCH  11  12
HETATM   12  C   UNL     1       6.538  25.573  56.194  1.00  0.00    -0.038 A 
HETATM   13  C   UNL     1       5.627  25.614  55.127  1.00  0.00     0.048 A 
HETATM   14  C   UNL     1       5.731  24.733  54.035  1.00  0.00     0.102 A 
HETATM   15  C   UNL     1       6.778  23.794  54.020  1.00  0.00     0.102 A 
HETATM   16  C   UNL     1       7.696  23.769  55.080  1.00  0.00     0.040 A 
HETATM   17  C   UNL     1       7.578  24.642  56.159  1.00  0.00     0.012 A 
BRANCH  14  18
HETATM   18  O   UNL     1       4.876  24.767  52.967  1.00  0.00    -0.353 OA
HETATM   19  C   UNL     1       5.249  25.528  51.826  1.00  0.00     0.210 C 
ENDBRANCH  14  18
BRANCH  15  20
HETATM   20  O   UNL     1       7.069  22.854  53.066  1.00  0.00    -0.349 OA
BRANCH  20  21
HETATM   21  C   UNL     1       8.264  22.092  53.195  1.00  0.00     0.171 C 
HETATM   22  C   UNL     1       7.898  20.625  53.042  1.00  0.00     0.034 C 
ENDBRANCH  20  21
ENDBRANCH  15  20
ENDBRANCH  11  12
ENDBRANCH   8  11
ENDBRANCH   1   7
BRANCH   2  23
HETATM   23  N   UNL     1       7.829  31.011  59.171  1.00  0.00    -0.321 N 
HETATM   24  C   UNL     1       7.679  32.164  59.911  1.00  0.00     0.265 C 
HETATM   25  O   UNL     1       8.491  33.072  60.046  1.00  0.00    -0.267 OA
HETATM   26  H   UNL     1       6.998  30.421  59.086  1.00  0.00     0.169 HD
BRANCH  24  27
HETATM   27  C   UNL     1       6.328  32.253  60.563  1.00  0.00     0.097 C 
HETATM   28  S   UNL     1       4.996  32.491  59.468  1.00  0.00    -0.120 SA
HETATM   29  C   UNL     1       3.668  32.770  60.666  1.00  0.00     0.106 C 
HETATM   30  C   UNL     1       3.844  31.813  61.829  1.00  0.00     0.185 C 
HETATM   31  O   UNL     1       5.007  32.127  62.599  1.00  0.00    -0.353 OA
HETATM   32  C   UNL     1       6.208  32.132  61.903  1.00  0.00     0.064 C 
HETATM   33  C   UNL     1       7.381  32.025  62.842  1.00  0.00     0.078 C 
ENDBRANCH  24  27
ENDBRANCH   2  23
TORSDOF 8
ENDMDL
MODEL 2
REMARK VINA RESULT:      -8.9      2.271      3.615
REMARK  8 active torsions:
REMARK  status: ('A' for Active; 'I' for Inactive)
REMARK    1  A    between atoms: C_2  and  O_3 
REMARK    2  A    between atoms: O_3  and  C_4 
REMARK    3  A    between atoms: C_5  and  O_6 
REMARK    4  A    between atoms: C_9  and  C_10 
REMARK    5  A    between atoms: C_10  and  N_11 
REMARK       I    between atoms: N_11  and  C_12 
REMARK    6  A    between atoms: C_12  and  C_13 
REMARK    7  A    between atoms: C_14  and  N_15 
REMARK       I    between atoms: N_15  and  C_16 
REMARK    8  A    between atoms: C_16  and  C_17 
ROOT
HETATM    1  C   UNL     1       5.602  29.509  56.311  1.00  0.00     0.058 A 
HETATM    2  C   UNL     1       5.176  30.370  57.352  1.00  0.00     0.050 A 
HETATM    3  C   UNL     1       3.955  31.040  57.211  1.00  0.00     0.030 A 
HETATM    4  C   UNL     1       3.158  30.854  56.078  1.00  0.00     0.002 A 
HETATM    5  C   UNL     1       3.566  29.988  55.070  1.00  0.00     0.001 A 
HETATM    6  C   UNL     1       4.779  29.313  55.185  1.00  0.00     0.019 A 
ENDROOT
BRANCH   1   7
HETATM    7  C   UNL     1       6.896  28.764  56.420  1.00  0.00     0.254 C 
HETATM    8  N   UNL     1       6.861  27.519  57.010  1.00  0.00    -0.353 N 
HETATM    9  H   UNL     1       5.980  27.079  57.232  1.00  0.00     0.163 HD
HETATM   10  O   UNL     1       7.927  29.254  55.967  1.00  0.00    -0.268 OA
BRANCH   8  11
HETATM   11  C   UNL     1       8.064  26.746  57.228  1.00  0.00     0.161 C 
BRANCH  11  12
HETATM   12  C   UNL     1       7.955  25.378  56.607  1.00  0.00    -0.038 A 
HETATM   13  C   UNL     1       7.254  25.182  55.406  1.00  0.00     0.048 A 
HETATM   14  C   UNL     1       7.126  23.906  54.829  1.00  0.00     0.102 A 
HETATM   15  C   UNL     1       7.719  22.806  55.475  1.00  0.00     0.102 A 
HETATM   16  C   UNL     1       8.433  23.010  56.664  1.00  0.00     0.040 A 
HETATM   17  C   UNL     1       8.548  24.278  57.230  1.00  0.00     0.012 A 
BRANCH  14  18
HETATM   18  O   UNL     1       6.472  23.687  53.646  1.00  0.00    -0.353 OA
HETATM   19  C   UNL     1       5.851  24.791  53.003  1.00  0.00     0.210 C 
ENDBRANCH  14  18
BRANCH  15  20
HETATM   20  O   UNL     1       7.724  21.491  55.091  1.00  0.00    -0.349 OA
BRANCH  20  21
HETATM   21  C   UNL     1       8.796  21.015  54.284  1.00  0.00     0.171 C 
HETATM   22  C   UNL     1       8.214  20.578  52.950  1.00  0.00     0.034 C 
ENDBRANCH  20  21
ENDBRANCH  15  20
ENDBRANCH  11  12
ENDBRANCH   8  11
ENDBRANCH   1   7
BRANCH   2  23
HETATM   23  N   UNL     1       5.996  30.541  58.494  1.00  0.00    -0.321 N 
HETATM   24  C   UNL     1       6.585  31.693  58.969  1.00  0.00     0.265 C 
HETATM   25  O   UNL     1       6.470  32.827  58.519  1.00  0.00    -0.267 OA
HETATM   26  H   UNL     1       6.119  29.704  59.069  1.00  0.00     0.169 HD
BRANCH  24  27
HETATM   27  C   UNL     1       7.417  31.446  60.197  1.00  0.00     0.097 C 
HETATM   28  S   UNL     1       6.698  31.976  61.691  1.00  0.00    -0.120 SA
HETATM   29  C   UNL     1       8.097  31.709  62.808  1.00  0.00     0.106 C 
HETATM   30  C   UNL     1       8.782  30.407  62.438  1.00  0.00     0.185 C 
HETATM   31  O   UNL     1       9.432  30.498  61.168  1.00  0.00    -0.353 OA
HETATM   32  C   UNL     1       8.618  30.837  60.096  1.00  0.00     0.064 C 
HETATM   33  C   UNL     1       9.265  30.475  58.785  1.00  0.00     0.078 C 
ENDBRANCH  24  27
ENDBRANCH   2  23
TORSDOF 8
ENDMDL
MODEL 3
REMARK VINA RESULT:      -8.9      2.711      8.868
REMARK  8 active torsions:
REMARK  status: ('A' for Active; 'I' for Inactive)
REMARK    1  A    between atoms: C_2  and  O_3 
REMARK    2  A    between atoms: O_3  and  C_4 
REMARK    3  A    between atoms: C_5  and  O_6 
REMARK    4  A    between atoms: C_9  and  C_10 
REMARK    5  A    between atoms: C_10  and  N_11 
REMARK       I    between atoms: N_11  and  C_12 
REMARK    6  A    between atoms: C_12  and  C_13 
REMARK    7  A    between atoms: C_14  and  N_15 
REMARK       I    between atoms: N_15  and  C_16 
REMARK    8  A    between atoms: C_16  and  C_17 
ROOT
HETATM    1  C   UNL     1       7.029  24.797  55.464  1.00  0.00     0.058 A 
HETATM    2  C   UNL     1       7.078  24.943  54.056  1.00  0.00     0.050 A 
HETATM    3  C   UNL     1       7.885  24.068  53.319  1.00  0.00     0.030 A 
HETATM    4  C   UNL     1       8.615  23.058  53.950  1.00  0.00     0.002 A 
HETATM    5  C   UNL     1       8.545  22.899  55.329  1.00  0.00     0.001 A 
HETATM    6  C   UNL     1       7.752  23.760  56.085  1.00  0.00     0.019 A 
ENDROOT
BRANCH   1   7
HETATM    7  C   UNL     1       6.173  25.702  56.295  1.00  0.00     0.254 C 
HETATM    8  N   UNL     1       6.460  27.050  56.261  1.00  0.00    -0.353 N 
HETATM    9  H   UNL     1       7.129  27.418  55.602  1.00  0.00     0.163 HD
HETATM   10  O   UNL     1       5.241  25.239  56.946  1.00  0.00    -0.268 OA
BRANCH   8  11
HETATM   11  C   UNL     1       5.741  28.002  57.079  1.00  0.00     0.161 C 
BRANCH  11  12
HETATM   12  C   UNL     1       6.653  29.086  57.588  1.00  0.00    -0.038 A 
HETATM   13  C   UNL     1       8.049  28.934  57.548  1.00  0.00     0.048 A 
HETATM   14  C   UNL     1       8.912  29.930  58.041  1.00  0.00     0.102 A 
HETATM   15  C   UNL     1       8.355  31.102  58.583  1.00  0.00     0.102 A 
HETATM   16  C   UNL     1       6.961  31.256  58.604  1.00  0.00     0.040 A 
HETATM   17  C   UNL     1       6.117  30.261  58.118  1.00  0.00     0.012 A 
BRANCH  14  18
HETATM   18  O   UNL     1      10.276  29.823  57.991  1.00  0.00    -0.353 OA
HETATM   19  C   UNL     1      10.888  29.571  56.734  1.00  0.00     0.210 C 
ENDBRANCH  14  18
BRANCH  15  20
HETATM   20  O   UNL     1       9.001  32.190  59.109  1.00  0.00    -0.349 OA
BRANCH  20  21
HETATM   21  C   UNL     1       8.680  32.605  60.433  1.00  0.00     0.171 C 
HETATM   22  C   UNL     1       9.592  31.854  61.389  1.00  0.00     0.034 C 
ENDBRANCH  20  21
ENDBRANCH  15  20
ENDBRANCH  11  12
ENDBRANCH   8  11
ENDBRANCH   1   7
BRANCH   2  23
HETATM   23  N   UNL     1       6.326  25.971  53.436  1.00  0.00    -0.321 N 
HETATM   24  C   UNL     1       5.043  25.919  52.934  1.00  0.00     0.265 C 
HETATM   25  O   UNL     1       4.267  24.970  52.973  1.00  0.00    -0.267 OA
HETATM   26  H   UNL     1       6.782  26.886  53.409  1.00  0.00     0.169 HD
BRANCH  24  27
HETATM   27  C   UNL     1       4.617  27.221  52.317  1.00  0.00     0.097 C 
HETATM   28  S   UNL     1       4.134  28.450  53.452  1.00  0.00    -0.120 SA
HETATM   29  C   UNL     1       3.502  29.693  52.298  1.00  0.00     0.106 C 
HETATM   30  C   UNL     1       4.417  29.756  51.091  1.00  0.00     0.185 C 
HETATM   31  O   UNL     1       4.340  28.561  50.309  1.00  0.00    -0.353 OA
HETATM   32  C   UNL     1       4.644  27.382  50.976  1.00  0.00     0.064 C 
HETATM   33  C   UNL     1       4.970  26.277  50.007  1.00  0.00     0.078 C 
ENDBRANCH  24  27
ENDBRANCH   2  23
TORSDOF 8
ENDMDL
MODEL 4
REMARK VINA RESULT:      -8.9      5.509      8.593
REMARK  8 active torsions:
REMARK  status: ('A' for Active; 'I' for Inactive)
REMARK    1  A    between atoms: C_2  and  O_3 
REMARK    2  A    between atoms: O_3  and  C_4 
REMARK    3  A    between atoms: C_5  and  O_6 
REMARK    4  A    between atoms: C_9  and  C_10 
REMARK    5  A    between atoms: C_10  and  N_11 
REMARK       I    between atoms: N_11  and  C_12 
REMARK    6  A    between atoms: C_12  and  C_13 
REMARK    7  A    between atoms: C_14  and  N_15 
REMARK       I    between atoms: N_15  and  C_16 
REMARK    8  A    between atoms: C_16  and  C_17 
ROOT
HETATM    1  C   UNL     1       4.729  27.831  53.796  1.00  0.00     0.058 A 
HETATM    2  C   UNL     1       3.855  28.709  53.108  1.00  0.00     0.050 A 
HETATM    3  C   UNL     1       3.461  29.894  53.741  1.00  0.00     0.030 A 
HETATM    4  C   UNL     1       3.931  30.220  55.017  1.00  0.00     0.002 A 
HETATM    5  C   UNL     1       4.809  29.369  55.678  1.00  0.00     0.001 A 
HETATM    6  C   UNL     1       5.213  28.182  55.070  1.00  0.00     0.019 A 
ENDROOT
BRANCH   1   7
HETATM    7  C   UNL     1       5.185  26.556  53.156  1.00  0.00     0.254 C 
HETATM    8  N   UNL     1       6.512  26.470  52.793  1.00  0.00    -0.353 N 
HETATM    9  H   UNL     1       7.170  27.184  53.071  1.00  0.00     0.163 HD
HETATM   10  O   UNL     1       4.395  25.629  53.001  1.00  0.00    -0.268 OA
BRANCH   8  11
HETATM   11  C   UNL     1       7.040  25.312  52.106  1.00  0.00     0.161 C 
BRANCH  11  12
HETATM   12  C   UNL     1       7.665  24.340  53.072  1.00  0.00    -0.038 A 
HETATM   13  C   UNL     1       7.857  24.683  54.420  1.00  0.00     0.048 A 
HETATM   14  C   UNL     1       8.460  23.793  55.327  1.00  0.00     0.102 A 
HETATM   15  C   UNL     1       8.875  22.531  54.865  1.00  0.00     0.102 A 
HETATM   16  C   UNL     1       8.664  22.188  53.522  1.00  0.00     0.040 A 
HETATM   17  C   UNL     1       8.072  23.080  52.631  1.00  0.00     0.012 A 
BRANCH  14  18
HETATM   18  O   UNL     1       8.636  24.088  56.652  1.00  0.00    -0.353 OA
HETATM   19  C   UNL     1       8.297  25.391  57.106  1.00  0.00     0.210 C 
ENDBRANCH  14  18
BRANCH  15  20
HETATM   20  O   UNL     1       9.473  21.519  55.568  1.00  0.00    -0.349 OA
BRANCH  20  21
HETATM   21  C   UNL     1       8.880  20.224  55.543  1.00  0.00     0.171 C 
HETATM   22  C   UNL     1       7.526  20.321  56.226  1.00  0.00     0.034 C 
ENDBRANCH  20  21
ENDBRANCH  15  20
ENDBRANCH  11  12
ENDBRANCH   8  11
ENDBRANCH   1   7
BRANCH   2  23
HETATM   23  N   UNL     1       3.395  28.362  51.814  1.00  0.00    -0.321 N 
HETATM   24  C   UNL     1       3.846  28.807  50.590  1.00  0.00     0.265 C 
HETATM   25  O   UNL     1       4.785  29.565  50.374  1.00  0.00    -0.267 OA
HETATM   26  H   UNL     1       2.667  27.643  51.791  1.00  0.00     0.169 HD
BRANCH  24  27
HETATM   27  C   UNL     1       3.064  28.225  49.446  1.00  0.00     0.097 C 
HETATM   28  S   UNL     1       1.675  29.152  48.956  1.00  0.00    -0.120 SA
HETATM   29  C   UNL     1       0.943  27.996  47.772  1.00  0.00     0.106 C 
HETATM   30  C   UNL     1       2.051  27.356  46.959  1.00  0.00     0.185 C 
HETATM   31  O   UNL     1       2.858  26.488  47.760  1.00  0.00    -0.353 OA
HETATM   32  C   UNL     1       3.463  27.073  48.863  1.00  0.00     0.064 C 
HETATM   33  C   UNL     1       4.610  26.235  49.364  1.00  0.00     0.078 C 
ENDBRANCH  24  27
ENDBRANCH   2  23
TORSDOF 8
ENDMDL
MODEL 5
REMARK VINA RESULT:      -8.7      2.921      9.883
REMARK  8 active torsions:
REMARK  status: ('A' for Active; 'I' for Inactive)
REMARK    1  A    between atoms: C_2  and  O_3 
REMARK    2  A    between atoms: O_3  and  C_4 
REMARK    3  A    between atoms: C_5  and  O_6 
REMARK    4  A    between atoms: C_9  and  C_10 
REMARK    5  A    between atoms: C_10  and  N_11 
REMARK       I    between atoms: N_11  and  C_12 
REMARK    6  A    between atoms: C_12  and  C_13 
REMARK    7  A    between atoms: C_14  and  N_15 
REMARK       I    between atoms: N_15  and  C_16 
REMARK    8  A    between atoms: C_16  and  C_17 
ROOT
HETATM    1  C   UNL     1       5.538  26.479  53.950  1.00  0.00     0.058 A 
HETATM    2  C   UNL     1       5.853  25.299  53.232  1.00  0.00     0.050 A 
HETATM    3  C   UNL     1       5.555  25.246  51.866  1.00  0.00     0.030 A 
HETATM    4  C   UNL     1       4.976  26.338  51.212  1.00  0.00     0.002 A 
HETATM    5  C   UNL     1       4.693  27.504  51.913  1.00  0.00     0.001 A 
HETATM    6  C   UNL     1       4.977  27.579  53.275  1.00  0.00     0.019 A 
ENDROOT
BRANCH   1   7
HETATM    7  C   UNL     1       5.847  26.587  55.412  1.00  0.00     0.254 C 
HETATM    8  N   UNL     1       6.974  27.295  55.770  1.00  0.00    -0.353 N 
HETATM    9  H   UNL     1       7.487  27.828  55.084  1.00  0.00     0.163 HD
HETATM   10  O   UNL     1       5.092  26.079  56.237  1.00  0.00    -0.268 OA
BRANCH   8  11
HETATM   11  C   UNL     1       7.400  27.400  57.148  1.00  0.00     0.161 C 
BRANCH  11  12
HETATM   12  C   UNL     1       7.237  28.805  57.666  1.00  0.00    -0.038 A 
HETATM   13  C   UNL     1       8.198  29.379  58.515  1.00  0.00     0.048 A 
HETATM   14  C   UNL     1       8.045  30.681  59.024  1.00  0.00     0.102 A 
HETATM   15  C   UNL     1       6.902  31.420  58.668  1.00  0.00     0.102 A 
HETATM   16  C   UNL     1       5.955  30.848  57.806  1.00  0.00     0.040 A 
HETATM   17  C   UNL     1       6.114  29.555  57.313  1.00  0.00     0.012 A 
BRANCH  14  18
HETATM   18  O   UNL     1       8.977  31.278  59.830  1.00  0.00    -0.353 OA
HETATM   19  C   UNL     1       9.196  30.736  61.126  1.00  0.00     0.210 C 
ENDBRANCH  14  18
BRANCH  15  20
HETATM   20  O   UNL     1       6.558  32.692  59.040  1.00  0.00    -0.349 OA
BRANCH  20  21
HETATM   21  C   UNL     1       5.478  32.873  59.950  1.00  0.00     0.171 C 
HETATM   22  C   UNL     1       6.037  32.765  61.360  1.00  0.00     0.034 C 
ENDBRANCH  20  21
ENDBRANCH  15  20
ENDBRANCH  11  12
ENDBRANCH   8  11
ENDBRANCH   1   7
BRANCH   2  23
HETATM   23  N   UNL     1       6.444  24.206  53.913  1.00  0.00    -0.321 N 
HETATM   24  C   UNL     1       7.680  23.631  53.713  1.00  0.00     0.265 C 
HETATM   25  O   UNL     1       8.549  23.992  52.927  1.00  0.00    -0.267 OA
HETATM   26  H   UNL     1       5.896  23.834  54.693  1.00  0.00     0.169 HD
BRANCH  24  27
HETATM   27  C   UNL     1       7.920  22.459  54.622  1.00  0.00     0.097 C 
HETATM   28  S   UNL     1       8.086  22.857  56.308  1.00  0.00    -0.120 SA
HETATM   29  C   UNL     1       8.582  21.240  56.951  1.00  0.00     0.106 C 
HETATM   30  C   UNL     1       7.771  20.163  56.257  1.00  0.00     0.185 C 
HETATM   31  O   UNL     1       8.120  20.051  54.875  1.00  0.00    -0.353 OA
HETATM   32  C   UNL     1       7.975  21.206  54.119  1.00  0.00     0.064 C 
HETATM   33  C   UNL     1       7.927  20.892  52.647  1.00  0.00     0.078 C 
ENDBRANCH  24  27
ENDBRANCH   2  23
TORSDOF 8
ENDMDL
MODEL 6
REMARK VINA RESULT:      -8.6      1.081      2.401
REMARK  8 active torsions:
REMARK  status: ('A' for Active; 'I' for Inactive)
REMARK    1  A    between atoms: C_2  and  O_3 
REMARK    2  A    between atoms: O_3  and  C_4 
REMARK    3  A    between atoms: C_5  and  O_6 
REMARK    4  A    between atoms: C_9  and  C_10 
REMARK    5  A    between atoms: C_10  and  N_11 
REMARK       I    between atoms: N_11  and  C_12 
REMARK    6  A    between atoms: C_12  and  C_13 
REMARK    7  A    between atoms: C_14  and  N_15 
REMARK       I    between atoms: N_15  and  C_16 
REMARK    8  A    between atoms: C_16  and  C_17 
ROOT
HETATM    1  C   UNL     1       8.577  29.492  57.385  1.00  0.00     0.058 A 
HETATM    2  C   UNL     1       8.895  30.488  58.341  1.00  0.00     0.050 A 
HETATM    3  C   UNL     1      10.218  30.936  58.428  1.00  0.00     0.030 A 
HETATM    4  C   UNL     1      11.207  30.430  57.580  1.00  0.00     0.002 A 
HETATM    5  C   UNL     1      10.887  29.472  56.625  1.00  0.00     0.001 A 
HETATM    6  C   UNL     1       9.578  29.008  56.521  1.00  0.00     0.019 A 
ENDROOT
BRANCH   1   7
HETATM    7  C   UNL     1       7.174  28.988  57.248  1.00  0.00     0.254 C 
HETATM    8  N   UNL     1       6.999  27.624  57.142  1.00  0.00    -0.353 N 
HETATM    9  H   UNL     1       7.773  26.993  57.287  1.00  0.00     0.163 HD
HETATM   10  O   UNL     1       6.233  29.777  57.262  1.00  0.00    -0.268 OA
BRANCH   8  11
HETATM   11  C   UNL     1       5.693  27.039  56.936  1.00  0.00     0.161 C 
BRANCH  11  12
HETATM   12  C   UNL     1       5.516  26.583  55.511  1.00  0.00    -0.038 A 
HETATM   13  C   UNL     1       6.055  25.363  55.070  1.00  0.00     0.048 A 
HETATM   14  C   UNL     1       5.916  24.938  53.736  1.00  0.00     0.102 A 
HETATM   15  C   UNL     1       5.219  25.758  52.831  1.00  0.00     0.102 A 
HETATM   16  C   UNL     1       4.668  26.966  53.282  1.00  0.00     0.040 A 
HETATM   17  C   UNL     1       4.817  27.381  54.604  1.00  0.00     0.012 A 
BRANCH  14  18
HETATM   18  O   UNL     1       6.405  23.743  53.283  1.00  0.00    -0.353 OA
HETATM   19  C   UNL     1       7.738  23.701  52.790  1.00  0.00     0.210 C 
ENDBRANCH  14  18
BRANCH  15  20
HETATM   20  O   UNL     1       4.963  25.540  51.503  1.00  0.00    -0.349 OA
BRANCH  20  21
HETATM   21  C   UNL     1       5.274  26.566  50.566  1.00  0.00     0.171 C 
HETATM   22  C   UNL     1       4.403  26.354  49.339  1.00  0.00     0.034 C 
ENDBRANCH  20  21
ENDBRANCH  15  20
ENDBRANCH  11  12
ENDBRANCH   8  11
ENDBRANCH   1   7
BRANCH   2  23
HETATM   23  N   UNL     1       7.876  30.991  59.188  1.00  0.00    -0.321 N 
HETATM   24  C   UNL     1       7.874  32.142  59.946  1.00  0.00     0.265 C 
HETATM   25  O   UNL     1       8.748  33.000  59.997  1.00  0.00    -0.267 OA
HETATM   26  H   UNL     1       7.007  30.450  59.190  1.00  0.00     0.169 HD
BRANCH  24  27
HETATM   27  C   UNL     1       6.609  32.301  60.741  1.00  0.00     0.097 C 
HETATM   28  S   UNL     1       5.207  32.752  59.814  1.00  0.00    -0.120 SA
HETATM   29  C   UNL     1       4.037  33.051  61.162  1.00  0.00     0.106 C 
HETATM   30  C   UNL     1       4.228  31.987  62.225  1.00  0.00     0.185 C 
HETATM   31  O   UNL     1       5.487  32.127  62.889  1.00  0.00    -0.353 OA
HETATM   32  C   UNL     1       6.609  32.078  62.074  1.00  0.00     0.064 C 
HETATM   33  C   UNL     1       7.851  31.785  62.874  1.00  0.00     0.078 C 
ENDBRANCH  24  27
ENDBRANCH   2  23
TORSDOF 8
ENDMDL
MODEL 7
REMARK VINA RESULT:      -8.5      2.584      4.653
REMARK  8 active torsions:
REMARK  status: ('A' for Active; 'I' for Inactive)
REMARK    1  A    between atoms: C_2  and  O_3 
REMARK    2  A    between atoms: O_3  and  C_4 
REMARK    3  A    between atoms: C_5  and  O_6 
REMARK    4  A    between atoms: C_9  and  C_10 
REMARK    5  A    between atoms: C_10  and  N_11 
REMARK       I    between atoms: N_11  and  C_12 
REMARK    6  A    between atoms: C_12  and  C_13 
REMARK    7  A    between atoms: C_14  and  N_15 
REMARK       I    between atoms: N_15  and  C_16 
REMARK    8  A    between atoms: C_16  and  C_17 
ROOT
HETATM    1  C   UNL     1       8.268  31.925  60.647  1.00  0.00     0.058 A 
HETATM    2  C   UNL     1       6.971  32.493  60.601  1.00  0.00     0.050 A 
HETATM    3  C   UNL     1       6.363  32.875  61.803  1.00  0.00     0.030 A 
HETATM    4  C   UNL     1       7.023  32.721  63.025  1.00  0.00     0.002 A 
HETATM    5  C   UNL     1       8.307  32.189  63.065  1.00  0.00     0.001 A 
HETATM    6  C   UNL     1       8.931  31.797  61.883  1.00  0.00     0.019 A 
ENDROOT
BRANCH   1   7
HETATM    7  C   UNL     1       8.963  31.510  59.388  1.00  0.00     0.254 C 
HETATM    8  N   UNL     1       8.736  30.228  58.933  1.00  0.00    -0.353 N 
HETATM    9  H   UNL     1       8.028  29.649  59.360  1.00  0.00     0.163 HD
HETATM   10  O   UNL     1       9.677  32.309  58.788  1.00  0.00    -0.268 OA
BRANCH   8  11
HETATM   11  C   UNL     1       9.411  29.704  57.767  1.00  0.00     0.161 C 
BRANCH  11  12
HETATM   12  C   UNL     1       8.549  28.706  57.038  1.00  0.00    -0.038 A 
HETATM   13  C   UNL     1       8.391  28.770  55.644  1.00  0.00     0.048 A 
HETATM   14  C   UNL     1       7.571  27.858  54.955  1.00  0.00     0.102 A 
HETATM   15  C   UNL     1       6.899  26.862  55.686  1.00  0.00     0.102 A 
HETATM   16  C   UNL     1       7.075  26.793  57.076  1.00  0.00     0.040 A 
HETATM   17  C   UNL     1       7.885  27.705  57.749  1.00  0.00     0.012 A 
BRANCH  14  18
HETATM   18  O   UNL     1       7.419  27.877  53.594  1.00  0.00    -0.353 OA
HETATM   19  C   UNL     1       6.180  28.323  53.059  1.00  0.00     0.210 C 
ENDBRANCH  14  18
BRANCH  15  20
HETATM   20  O   UNL     1       6.064  25.879  55.223  1.00  0.00    -0.349 OA
BRANCH  20  21
HETATM   21  C   UNL     1       6.614  24.604  54.909  1.00  0.00     0.171 C 
HETATM   22  C   UNL     1       6.451  24.383  53.414  1.00  0.00     0.034 C 
ENDBRANCH  20  21
ENDBRANCH  15  20
ENDBRANCH  11  12
ENDBRANCH   8  11
ENDBRANCH   1   7
BRANCH   2  23
HETATM   23  N   UNL     1       6.321  32.644  59.352  1.00  0.00    -0.321 N 
HETATM   24  C   UNL     1       5.006  32.391  59.026  1.00  0.00     0.265 C 
HETATM   25  O   UNL     1       4.110  32.027  59.780  1.00  0.00    -0.267 OA
HETATM   26  H   UNL     1       6.897  33.048  58.609  1.00  0.00     0.169 HD
BRANCH  24  27
HETATM   27  C   UNL     1       4.717  32.644  57.574  1.00  0.00     0.097 C 
HETATM   28  S   UNL     1       4.234  34.273  57.192  1.00  0.00    -0.120 SA
HETATM   29  C   UNL     1       3.777  34.052  55.455  1.00  0.00     0.106 C 
HETATM   30  C   UNL     1       4.783  33.131  54.794  1.00  0.00     0.185 C 
HETATM   31  O   UNL     1       4.684  31.796  55.297  1.00  0.00    -0.353 OA
HETATM   32  C   UNL     1       4.855  31.652  56.667  1.00  0.00     0.064 C 
HETATM   33  C   UNL     1       5.179  30.227  57.029  1.00  0.00     0.078 C 
ENDBRANCH  24  27
ENDBRANCH   2  23
TORSDOF 8
ENDMDL
MODEL 8
REMARK VINA RESULT:      -8.5      3.863      7.197
REMARK  8 active torsions:
REMARK  status: ('A' for Active; 'I' for Inactive)
REMARK    1  A    between atoms: C_2  and  O_3 
REMARK    2  A    between atoms: O_3  and  C_4 
REMARK    3  A    between atoms: C_5  and  O_6 
REMARK    4  A    between atoms: C_9  and  C_10 
REMARK    5  A    between atoms: C_10  and  N_11 
REMARK       I    between atoms: N_11  and  C_12 
REMARK    6  A    between atoms: C_12  and  C_13 
REMARK    7  A    between atoms: C_14  and  N_15 
REMARK       I    between atoms: N_15  and  C_16 
REMARK    8  A    between atoms: C_16  and  C_17 
ROOT
HETATM    1  C   UNL     1       6.349  25.649  53.498  1.00  0.00     0.058 A 
HETATM    2  C   UNL     1       7.173  25.762  54.646  1.00  0.00     0.050 A 
HETATM    3  C   UNL     1       7.962  24.667  55.016  1.00  0.00     0.030 A 
HETATM    4  C   UNL     1       7.959  23.490  54.263  1.00  0.00     0.002 A 
HETATM    5  C   UNL     1       7.171  23.391  53.121  1.00  0.00     0.001 A 
HETATM    6  C   UNL     1       6.373  24.466  52.736  1.00  0.00     0.019 A 
ENDROOT
BRANCH   1   7
HETATM    7  C   UNL     1       5.494  26.796  53.058  1.00  0.00     0.254 C 
HETATM    8  N   UNL     1       5.853  27.444  51.895  1.00  0.00    -0.353 N 
HETATM    9  H   UNL     1       6.579  27.071  51.301  1.00  0.00     0.163 HD
HETATM   10  O   UNL     1       4.501  27.108  53.710  1.00  0.00    -0.268 OA
BRANCH   8  11
HETATM   11  C   UNL     1       5.137  28.606  51.419  1.00  0.00     0.161 C 
BRANCH  11  12
HETATM   12  C   UNL     1       4.299  28.277  50.211  1.00  0.00    -0.038 A 
HETATM   13  C   UNL     1       4.504  27.088  49.492  1.00  0.00     0.048 A 
HETATM   14  C   UNL     1       3.744  26.779  48.350  1.00  0.00     0.102 A 
HETATM   15  C   UNL     1       2.756  27.687  47.926  1.00  0.00     0.102 A 
HETATM   16  C   UNL     1       2.545  28.864  48.659  1.00  0.00     0.040 A 
HETATM   17  C   UNL     1       3.308  29.162  49.785  1.00  0.00     0.012 A 
BRANCH  14  18
HETATM   18  O   UNL     1       3.900  25.617  47.644  1.00  0.00    -0.353 OA
HETATM   19  C   UNL     1       3.079  24.506  47.980  1.00  0.00     0.210 C 
ENDBRANCH  14  18
BRANCH  15  20
HETATM   20  O   UNL     1       1.907  27.587  46.856  1.00  0.00    -0.349 OA
BRANCH  20  21
HETATM   21  C   UNL     1       0.510  27.455  47.099  1.00  0.00     0.171 C 
HETATM   22  C   UNL     1      -0.226  28.133  45.956  1.00  0.00     0.034 C 
ENDBRANCH  20  21
ENDBRANCH  15  20
ENDBRANCH  11  12
ENDBRANCH   8  11
ENDBRANCH   1   7
BRANCH   2  23
HETATM   23  N   UNL     1       7.164  26.966  55.393  1.00  0.00    -0.321 N 
HETATM   24  C   UNL     1       7.709  28.189  55.064  1.00  0.00     0.265 C 
HETATM   25  O   UNL     1       8.273  28.495  54.019  1.00  0.00    -0.267 OA
HETATM   26  H   UNL     1       6.634  26.931  56.267  1.00  0.00     0.169 HD
BRANCH  24  27
HETATM   27  C   UNL     1       7.518  29.211  56.149  1.00  0.00     0.097 C 
HETATM   28  S   UNL     1       5.922  29.901  56.238  1.00  0.00    -0.120 SA
HETATM   29  C   UNL     1       6.221  31.192  57.471  1.00  0.00     0.106 C 
HETATM   30  C   UNL     1       7.129  30.640  58.552  1.00  0.00     0.185 C 
HETATM   31  O   UNL     1       8.448  30.394  58.057  1.00  0.00    -0.353 OA
HETATM   32  C   UNL     1       8.536  29.521  56.981  1.00  0.00     0.064 C 
HETATM   33  C   UNL     1       9.936  28.986  56.827  1.00  0.00     0.078 C 
ENDBRANCH  24  27
ENDBRANCH   2  23
TORSDOF 8
ENDMDL
MODEL 9
REMARK VINA RESULT:      -8.5      3.348      6.281
REMARK  8 active torsions:
REMARK  status: ('A' for Active; 'I' for Inactive)
REMARK    1  A    between atoms: C_2  and  O_3 
REMARK    2  A    between atoms: O_3  and  C_4 
REMARK    3  A    between atoms: C_5  and  O_6 
REMARK    4  A    between atoms: C_9  and  C_10 
REMARK    5  A    between atoms: C_10  and  N_11 
REMARK       I    between atoms: N_11  and  C_12 
REMARK    6  A    between atoms: C_12  and  C_13 
REMARK    7  A    between atoms: C_14  and  N_15 
REMARK       I    between atoms: N_15  and  C_16 
REMARK    8  A    between atoms: C_16  and  C_17 
ROOT
HETATM    1  C   UNL     1       6.779  25.630  54.871  1.00  0.00     0.058 A 
HETATM    2  C   UNL     1       7.568  25.886  56.020  1.00  0.00     0.050 A 
HETATM    3  C   UNL     1       8.324  24.840  56.561  1.00  0.00     0.030 A 
HETATM    4  C   UNL     1       8.321  23.571  55.975  1.00  0.00     0.002 A 
HETATM    5  C   UNL     1       7.568  23.329  54.832  1.00  0.00     0.001 A 
HETATM    6  C   UNL     1       6.804  24.354  54.277  1.00  0.00     0.019 A 
ENDROOT
BRANCH   1   7
HETATM    7  C   UNL     1       5.961  26.719  54.251  1.00  0.00     0.254 C 
HETATM    8  N   UNL     1       6.362  27.189  53.019  1.00  0.00    -0.353 N 
HETATM    9  H   UNL     1       7.094  26.723  52.503  1.00  0.00     0.163 HD
HETATM   10  O   UNL     1       4.959  27.138  54.826  1.00  0.00    -0.268 OA
BRANCH   8  11
HETATM   11  C   UNL     1       5.684  28.286  52.365  1.00  0.00     0.161 C 
BRANCH  11  12
HETATM   12  C   UNL     1       5.246  27.908  50.974  1.00  0.00    -0.038 A 
HETATM   13  C   UNL     1       5.051  28.887  49.986  1.00  0.00     0.048 A 
HETATM   14  C   UNL     1       4.620  28.549  48.691  1.00  0.00     0.102 A 
HETATM   15  C   UNL     1       4.383  27.197  48.385  1.00  0.00     0.102 A 
HETATM   16  C   UNL     1       4.597  26.222  49.370  1.00  0.00     0.040 A 
HETATM   17  C   UNL     1       5.018  26.569  50.652  1.00  0.00     0.012 A 
BRANCH  14  18
HETATM   18  O   UNL     1       4.448  29.477  47.699  1.00  0.00    -0.353 OA
HETATM   19  C   UNL     1       4.811  30.825  47.964  1.00  0.00     0.210 C 
ENDBRANCH  14  18
BRANCH  15  20
HETATM   20  O   UNL     1       3.969  26.649  47.200  1.00  0.00    -0.349 OA
BRANCH  20  21
HETATM   21  C   UNL     1       2.717  25.971  47.158  1.00  0.00     0.171 C 
HETATM   22  C   UNL     1       1.621  27.008  47.339  1.00  0.00     0.034 C 
ENDBRANCH  20  21
ENDBRANCH  15  20
ENDBRANCH  11  12
ENDBRANCH   8  11
ENDBRANCH   1   7
BRANCH   2  23
HETATM   23  N   UNL     1       7.560  27.180  56.596  1.00  0.00    -0.321 N 
HETATM   24  C   UNL     1       8.043  28.360  56.073  1.00  0.00     0.265 C 
HETATM   25  O   UNL     1       8.537  28.535  54.964  1.00  0.00    -0.267 OA
HETATM   26  H   UNL     1       7.081  27.251  57.497  1.00  0.00     0.169 HD
BRANCH  24  27
HETATM   27  C   UNL     1       7.877  29.516  57.019  1.00  0.00     0.097 C 
HETATM   28  S   UNL     1       6.234  30.032  57.270  1.00  0.00    -0.120 SA
HETATM   29  C   UNL     1       6.534  31.529  58.242  1.00  0.00     0.106 C 
HETATM   30  C   UNL     1       7.656  31.261  59.227  1.00  0.00     0.185 C 
HETATM   31  O   UNL     1       8.909  31.084  58.561  1.00  0.00    -0.353 OA
HETATM   32  C   UNL     1       8.955  30.065  57.621  1.00  0.00     0.064 C 
HETATM   33  C   UNL     1      10.376  29.669  57.316  1.00  0.00     0.078 C 
ENDBRANCH  24  27
ENDBRANCH   2  23
TORSDOF 8
ENDMDL
MODEL 10
REMARK VINA RESULT:      -8.4      1.689      2.517
REMARK  8 active torsions:
REMARK  status: ('A' for Active; 'I' for Inactive)
REMARK    1  A    between atoms: C_2  and  O_3 
REMARK    2  A    between atoms: O_3  and  C_4 
REMARK    3  A    between atoms: C_5  and  O_6 
REMARK    4  A    between atoms: C_9  and  C_10 
REMARK    5  A    between atoms: C_10  and  N_11 
REMARK       I    between atoms: N_11  and  C_12 
REMARK    6  A    between atoms: C_12  and  C_13 
REMARK    7  A    between atoms: C_14  and  N_15 
REMARK       I    between atoms: N_15  and  C_16 
REMARK    8  A    between atoms: C_16  and  C_17 
ROOT
HETATM    1  C   UNL     1       8.575  29.448  57.310  1.00  0.00     0.058 A 
HETATM    2  C   UNL     1       8.511  30.536  58.216  1.00  0.00     0.050 A 
HETATM    3  C   UNL     1       9.687  31.239  58.503  1.00  0.00     0.030 A 
HETATM    4  C   UNL     1      10.899  30.893  57.899  1.00  0.00     0.002 A 
HETATM    5  C   UNL     1      10.953  29.843  56.990  1.00  0.00     0.001 A 
HETATM    6  C   UNL     1       9.797  29.125  56.691  1.00  0.00     0.019 A 
ENDROOT
BRANCH   1   7
HETATM    7  C   UNL     1       7.342  28.672  56.964  1.00  0.00     0.254 C 
HETATM    8  N   UNL     1       7.137  28.369  55.635  1.00  0.00    -0.353 N 
HETATM    9  H   UNL     1       7.856  28.547  54.949  1.00  0.00     0.163 HD
HETATM   10  O   UNL     1       6.576  28.307  57.852  1.00  0.00    -0.268 OA
BRANCH   8  11
HETATM   11  C   UNL     1       5.945  27.685  55.185  1.00  0.00     0.161 C 
BRANCH  11  12
HETATM   12  C   UNL     1       6.261  26.294  54.701  1.00  0.00    -0.038 A 
HETATM   13  C   UNL     1       6.587  25.271  55.606  1.00  0.00     0.048 A 
HETATM   14  C   UNL     1       6.907  23.974  55.165  1.00  0.00     0.102 A 
HETATM   15  C   UNL     1       6.896  23.704  53.784  1.00  0.00     0.102 A 
HETATM   16  C   UNL     1       6.552  24.726  52.887  1.00  0.00     0.040 A 
HETATM   17  C   UNL     1       6.243  26.008  53.335  1.00  0.00     0.012 A 
BRANCH  14  18
HETATM   18  O   UNL     1       7.201  22.948  56.023  1.00  0.00    -0.353 OA
HETATM   19  C   UNL     1       8.470  22.946  56.663  1.00  0.00     0.210 C 
ENDBRANCH  14  18
BRANCH  15  20
HETATM   20  O   UNL     1       7.166  22.525  53.142  1.00  0.00    -0.349 OA
BRANCH  20  21
HETATM   21  C   UNL     1       8.514  22.066  53.089  1.00  0.00     0.171 C 
HETATM   22  C   UNL     1       8.487  20.547  53.096  1.00  0.00     0.034 C 
ENDBRANCH  20  21
ENDBRANCH  15  20
ENDBRANCH  11  12
ENDBRANCH   8  11
ENDBRANCH   1   7
BRANCH   2  23
HETATM   23  N   UNL     1       7.272  30.873  58.813  1.00  0.00    -0.321 N 
HETATM   24  C   UNL     1       6.312  31.757  58.369  1.00  0.00     0.265 C 
HETATM   25  O   UNL     1       6.318  32.399  57.325  1.00  0.00    -0.267 OA
HETATM   26  H   UNL     1       7.040  30.346  59.658  1.00  0.00     0.169 HD
BRANCH  24  27
HETATM   27  C   UNL     1       5.149  31.861  59.315  1.00  0.00     0.097 C 
HETATM   28  S   UNL     1       5.504  32.626  60.838  1.00  0.00    -0.120 SA
HETATM   29  C   UNL     1       3.943  32.320  61.701  1.00  0.00     0.106 C 
HETATM   30  C   UNL     1       2.796  32.520  60.730  1.00  0.00     0.185 C 
HETATM   31  O   UNL     1       2.779  31.508  59.719  1.00  0.00    -0.353 OA
HETATM   32  C   UNL     1       3.932  31.398  58.955  1.00  0.00     0.064 C 
HETATM   33  C   UNL     1       3.667  30.652  57.673  1.00  0.00     0.078 C 
ENDBRANCH  24  27
ENDBRANCH   2  23
TORSDOF 8
ENDMDL
