MODEL 1
REMARK VINA RESULT:      -9.2      0.000      0.000
REMARK  2 active torsions:
REMARK  status: ('A' for Active; 'I' for Inactive)
REMARK    1  A    between atoms: C_2  and  C_3 
REMARK    2  A    between atoms: C_6  and  C_7 
ROOT
HETATM    1  C   UNL     1       5.273  26.949  54.679  1.00  0.00     0.197 C 
HETATM    2  N   UNL     1       5.305  27.153  53.222  1.00  0.00    -0.345 N 
HETATM    3  C   UNL     1       5.989  26.332  52.431  1.00  0.00     0.113 C 
HETATM    4  N   UNL     1       6.022  26.530  51.120  1.00  0.00    -0.376 N 
HETATM    5  H   UNL     1       6.511  25.848  50.551  1.00  0.00     0.161 HD
HETATM    6  C   UNL     1       6.686  25.174  53.014  1.00  0.00     0.029 A 
HETATM    7  C   UNL     1       6.257  24.783  54.288  1.00  0.00     0.025 A 
HETATM    8  N   UNL     1       5.233  25.514  54.907  1.00  0.00    -0.267 NA
HETATM    9  C   UNL     1       7.712  24.457  52.380  1.00  0.00     0.019 A 
HETATM   10  C   UNL     1       8.258  23.326  52.994  1.00  0.00     0.025 A 
HETATM   11  C   UNL     1       7.772  22.903  54.228  1.00  0.00     0.035 A 
HETATM   12 CL   UNL     1       8.425  21.495  54.966  1.00  0.00    -0.084 Cl
HETATM   13  C   UNL     1       6.765  23.618  54.871  1.00  0.00     0.048 A 
HETATM   14  C   UNL     1       4.557  28.298  52.683  1.00  0.00     0.128 C 
HETATM   15  C   UNL     1       4.116  28.010  51.266  1.00  0.00     0.039 C 
HETATM   16  C   UNL     1       5.338  27.641  50.464  1.00  0.00     0.123 C 
HETATM   17  H   UNL     1       5.170  25.298  55.899  1.00  0.00     0.130 HD
ENDROOT
BRANCH   1  18
HETATM   18  C   UNL     1       6.421  27.625  55.411  1.00  0.00    -0.021 A 
HETATM   19  C   UNL     1       7.416  28.374  54.761  1.00  0.00     0.011 A 
HETATM   20  C   UNL     1       8.469  28.950  55.478  1.00  0.00     0.007 A 
HETATM   21  C   UNL     1       8.558  28.791  56.863  1.00  0.00    -0.059 A 
HETATM   22  C   UNL     1       7.562  28.069  57.526  1.00  0.00     0.007 A 
HETATM   23  C   UNL     1       6.508  27.495  56.811  1.00  0.00     0.011 A 
BRANCH  21  24
HETATM   24  C   UNL     1       9.699  29.409  57.635  1.00  0.00     0.034 C 
HETATM   25  C   UNL     1      10.943  29.570  56.777  1.00  0.00     0.010 C 
ENDBRANCH  21  24
ENDBRANCH   1  18
TORSDOF 2
ENDMDL
MODEL 2
REMARK VINA RESULT:      -8.6      2.724      5.641
REMARK  2 active torsions:
REMARK  status: ('A' for Active; 'I' for Inactive)
REMARK    1  A    between atoms: C_2  and  C_3 
REMARK    2  A    between atoms: C_6  and  C_7 
ROOT
HETATM    1  C   UNL     1       6.833  27.897  53.846  1.00  0.00     0.197 C 
HETATM    2  N   UNL     1       5.775  28.622  54.567  1.00  0.00    -0.345 N 
HETATM    3  C   UNL     1       6.042  29.287  55.687  1.00  0.00     0.113 C 
HETATM    4  N   UNL     1       5.080  29.930  56.336  1.00  0.00    -0.376 N 
HETATM    5  H   UNL     1       5.340  30.468  57.155  1.00  0.00     0.161 HD
HETATM    6  C   UNL     1       7.424  29.340  56.189  1.00  0.00     0.029 A 
HETATM    7  C   UNL     1       8.423  29.036  55.256  1.00  0.00     0.025 A 
HETATM    8  N   UNL     1       8.043  28.695  53.950  1.00  0.00    -0.267 NA
HETATM    9  C   UNL     1       7.785  29.678  57.502  1.00  0.00     0.019 A 
HETATM   10  C   UNL     1       9.135  29.768  57.856  1.00  0.00     0.025 A 
HETATM   11  C   UNL     1      10.120  29.536  56.901  1.00  0.00     0.035 A 
HETATM   12 CL   UNL     1      11.778  29.675  57.332  1.00  0.00    -0.084 Cl
HETATM   13  C   UNL     1       9.771  29.183  55.599  1.00  0.00     0.048 A 
HETATM   14  C   UNL     1       4.419  28.577  54.001  1.00  0.00     0.128 C 
HETATM   15  C   UNL     1       3.653  29.822  54.387  1.00  0.00     0.039 C 
HETATM   16  C   UNL     1       3.690  29.945  55.890  1.00  0.00     0.123 C 
HETATM   17  H   UNL     1       8.813  28.270  53.438  1.00  0.00     0.130 HD
ENDROOT
BRANCH   1  18
HETATM   18  C   UNL     1       7.030  26.470  54.335  1.00  0.00    -0.021 A 
HETATM   19  C   UNL     1       6.588  26.017  55.588  1.00  0.00     0.011 A 
HETATM   20  C   UNL     1       6.822  24.702  56.002  1.00  0.00     0.007 A 
HETATM   21  C   UNL     1       7.507  23.806  55.177  1.00  0.00    -0.059 A 
HETATM   22  C   UNL     1       7.933  24.238  53.917  1.00  0.00     0.007 A 
HETATM   23  C   UNL     1       7.697  25.551  53.502  1.00  0.00     0.011 A 
BRANCH  21  24
HETATM   24  C   UNL     1       7.765  22.389  55.628  1.00  0.00     0.034 C 
HETATM   25  C   UNL     1       7.940  21.442  54.452  1.00  0.00     0.010 C 
ENDBRANCH  21  24
ENDBRANCH   1  18
TORSDOF 2
ENDMDL
MODEL 3
REMARK VINA RESULT:      -8.4      2.474      5.709
REMARK  2 active torsions:
REMARK  status: ('A' for Active; 'I' for Inactive)
REMARK    1  A    between atoms: C_2  and  C_3 
REMARK    2  A    between atoms: C_6  and  C_7 
ROOT
HETATM    1  C   UNL     1       6.034  25.885  55.945  1.00  0.00     0.197 C 
HETATM    2  N   UNL     1       6.827  27.090  56.236  1.00  0.00    -0.345 N 
HETATM    3  C   UNL     1       6.949  28.062  55.337  1.00  0.00     0.113 C 
HETATM    4  N   UNL     1       7.675  29.140  55.604  1.00  0.00    -0.376 N 
HETATM    5  H   UNL     1       7.695  29.879  54.911  1.00  0.00     0.161 HD
HETATM    6  C   UNL     1       6.242  27.956  54.051  1.00  0.00     0.029 A 
HETATM    7  C   UNL     1       5.177  27.047  54.014  1.00  0.00     0.025 A 
HETATM    8  N   UNL     1       4.881  26.312  55.171  1.00  0.00    -0.267 NA
HETATM    9  C   UNL     1       6.557  28.698  52.903  1.00  0.00     0.019 A 
HETATM   10  C   UNL     1       5.774  28.572  51.751  1.00  0.00     0.025 A 
HETATM   11  C   UNL     1       4.673  27.721  51.750  1.00  0.00     0.035 A 
HETATM   12 CL   UNL     1       3.696  27.590  50.343  1.00  0.00    -0.084 Cl
HETATM   13  C   UNL     1       4.363  26.968  52.880  1.00  0.00     0.048 A 
HETATM   14  C   UNL     1       7.477  27.169  57.552  1.00  0.00     0.128 C 
HETATM   15  C   UNL     1       7.643  28.614  57.964  1.00  0.00     0.039 C 
HETATM   16  C   UNL     1       8.387  29.330  56.864  1.00  0.00     0.123 C 
HETATM   17  H   UNL     1       4.263  25.530  54.964  1.00  0.00     0.130 HD
ENDROOT
BRANCH   1  18
HETATM   18  C   UNL     1       6.829  24.788  55.254  1.00  0.00    -0.021 A 
HETATM   19  C   UNL     1       6.494  24.272  53.991  1.00  0.00     0.011 A 
HETATM   20  C   UNL     1       7.241  23.241  53.413  1.00  0.00     0.007 A 
HETATM   21  C   UNL     1       8.341  22.696  54.082  1.00  0.00    -0.059 A 
HETATM   22  C   UNL     1       8.699  23.216  55.329  1.00  0.00     0.007 A 
HETATM   23  C   UNL     1       7.954  24.248  55.906  1.00  0.00     0.011 A 
BRANCH  21  24
HETATM   24  C   UNL     1       9.142  21.580  53.459  1.00  0.00     0.034 C 
HETATM   25  C   UNL     1       8.250  20.479  52.908  1.00  0.00     0.010 C 
ENDBRANCH  21  24
ENDBRANCH   1  18
TORSDOF 2
ENDMDL
MODEL 4
REMARK VINA RESULT:      -8.4      2.351      5.342
REMARK  2 active torsions:
REMARK  status: ('A' for Active; 'I' for Inactive)
REMARK    1  A    between atoms: C_2  and  C_3 
REMARK    2  A    between atoms: C_6  and  C_7 
ROOT
HETATM    1  C   UNL     1       7.058  27.438  52.812  1.00  0.00     0.197 C 
HETATM    2  N   UNL     1       5.654  27.860  52.677  1.00  0.00    -0.345 N 
HETATM    3  C   UNL     1       4.985  28.352  53.715  1.00  0.00     0.113 C 
HETATM    4  N   UNL     1       3.717  28.720  53.587  1.00  0.00    -0.376 N 
HETATM    5  H   UNL     1       3.263  29.140  54.391  1.00  0.00     0.161 HD
HETATM    6  C   UNL     1       5.670  28.523  55.007  1.00  0.00     0.029 A 
HETATM    7  C   UNL     1       7.069  28.539  54.957  1.00  0.00     0.025 A 
HETATM    8  N   UNL     1       7.700  28.379  53.715  1.00  0.00    -0.267 NA
HETATM    9  C   UNL     1       5.020  28.678  56.241  1.00  0.00     0.019 A 
HETATM   10  C   UNL     1       5.766  28.906  57.401  1.00  0.00     0.025 A 
HETATM   11  C   UNL     1       7.154  28.994  57.328  1.00  0.00     0.035 A 
HETATM   12 CL   UNL     1       8.066  29.303  58.751  1.00  0.00    -0.084 Cl
HETATM   13  C   UNL     1       7.807  28.825  56.110  1.00  0.00     0.048 A 
HETATM   14  C   UNL     1       5.028  27.711  51.355  1.00  0.00     0.128 C 
HETATM   15  C   UNL     1       3.935  28.741  51.179  1.00  0.00     0.039 C 
HETATM   16  C   UNL     1       2.976  28.604  52.335  1.00  0.00     0.123 C 
HETATM   17  H   UNL     1       8.689  28.169  53.826  1.00  0.00     0.130 HD
ENDROOT
BRANCH   1  18
HETATM   18  C   UNL     1       7.216  25.994  53.263  1.00  0.00    -0.021 A 
HETATM   19  C   UNL     1       6.871  25.546  54.548  1.00  0.00     0.011 A 
HETATM   20  C   UNL     1       7.065  24.212  54.922  1.00  0.00     0.007 A 
HETATM   21  C   UNL     1       7.612  23.293  54.024  1.00  0.00    -0.059 A 
HETATM   22  C   UNL     1       7.938  23.721  52.733  1.00  0.00     0.007 A 
HETATM   23  C   UNL     1       7.742  25.052  52.358  1.00  0.00     0.011 A 
BRANCH  21  24
HETATM   24  C   UNL     1       7.826  21.856  54.431  1.00  0.00     0.034 C 
HETATM   25  C   UNL     1       7.935  20.935  53.227  1.00  0.00     0.010 C 
ENDBRANCH  21  24
ENDBRANCH   1  18
TORSDOF 2
ENDMDL
MODEL 5
REMARK VINA RESULT:      -8.4     10.473     13.695
REMARK  2 active torsions:
REMARK  status: ('A' for Active; 'I' for Inactive)
REMARK    1  A    between atoms: C_2  and  C_3 
REMARK    2  A    between atoms: C_6  and  C_7 
ROOT
HETATM    1  C   UNL     1       4.500  34.338  63.232  1.00  0.00     0.197 C 
HETATM    2  N   UNL     1       4.527  34.982  64.555  1.00  0.00    -0.345 N 
HETATM    3  C   UNL     1       4.961  36.230  64.700  1.00  0.00     0.113 C 
HETATM    4  N   UNL     1       4.992  36.799  65.898  1.00  0.00    -0.376 N 
HETATM    5  H   UNL     1       5.279  37.770  65.953  1.00  0.00     0.161 HD
HETATM    6  C   UNL     1       5.375  36.998  63.515  1.00  0.00     0.029 A 
HETATM    7  C   UNL     1       4.911  36.517  62.284  1.00  0.00     0.025 A 
HETATM    8  N   UNL     1       4.120  35.359  62.270  1.00  0.00    -0.267 NA
HETATM    9  C   UNL     1       6.171  38.152  63.549  1.00  0.00     0.019 A 
HETATM   10  C   UNL     1       6.447  38.848  62.368  1.00  0.00     0.025 A 
HETATM   11  C   UNL     1       5.919  38.402  61.159  1.00  0.00     0.035 A 
HETATM   12 CL   UNL     1       6.235  39.275  59.714  1.00  0.00    -0.084 Cl
HETATM   13  C   UNL     1       5.141  37.247  61.114  1.00  0.00     0.048 A 
HETATM   14  C   UNL     1       4.061  34.188  65.702  1.00  0.00     0.128 C 
HETATM   15  C   UNL     1       3.512  35.101  66.776  1.00  0.00     0.039 C 
HETATM   16  C   UNL     1       4.576  36.112  67.117  1.00  0.00     0.123 C 
HETATM   17  H   UNL     1       4.043  34.973  61.332  1.00  0.00     0.130 HD
ENDROOT
BRANCH   1  18
HETATM   18  C   UNL     1       5.805  33.648  62.867  1.00  0.00    -0.021 A 
HETATM   19  C   UNL     1       6.794  33.321  63.809  1.00  0.00     0.011 A 
HETATM   20  C   UNL     1       7.991  32.714  63.416  1.00  0.00     0.007 A 
HETATM   21  C   UNL     1       8.233  32.421  62.072  1.00  0.00    -0.059 A 
HETATM   22  C   UNL     1       7.248  32.719  61.127  1.00  0.00     0.007 A 
HETATM   23  C   UNL     1       6.051  33.323  61.519  1.00  0.00     0.011 A 
BRANCH  21  24
HETATM   24  C   UNL     1       9.528  31.771  61.649  1.00  0.00     0.034 C 
HETATM   25  C   UNL     1       9.520  30.272  61.902  1.00  0.00     0.010 C 
ENDBRANCH  21  24
ENDBRANCH   1  18
TORSDOF 2
ENDMDL
MODEL 6
REMARK VINA RESULT:      -7.6      1.552      2.086
REMARK  2 active torsions:
REMARK  status: ('A' for Active; 'I' for Inactive)
REMARK    1  A    between atoms: C_2  and  C_3 
REMARK    2  A    between atoms: C_6  and  C_7 
ROOT
HETATM    1  C   UNL     1       4.053  27.282  53.330  1.00  0.00     0.197 C 
HETATM    2  N   UNL     1       4.515  27.663  51.985  1.00  0.00    -0.345 N 
HETATM    3  C   UNL     1       5.529  27.029  51.404  1.00  0.00     0.113 C 
HETATM    4  N   UNL     1       5.946  27.385  50.197  1.00  0.00    -0.376 N 
HETATM    5  H   UNL     1       6.685  26.838  49.771  1.00  0.00     0.161 HD
HETATM    6  C   UNL     1       6.168  25.897  52.094  1.00  0.00     0.029 A 
HETATM    7  C   UNL     1       5.421  25.307  53.121  1.00  0.00     0.025 A 
HETATM    8  N   UNL     1       4.157  25.836  53.421  1.00  0.00    -0.267 NA
HETATM    9  C   UNL     1       7.437  25.385  51.783  1.00  0.00     0.019 A 
HETATM   10  C   UNL     1       7.922  24.259  52.454  1.00  0.00     0.025 A 
HETATM   11  C   UNL     1       7.139  23.636  53.422  1.00  0.00     0.035 A 
HETATM   12 CL   UNL     1       7.726  22.235  54.224  1.00  0.00    -0.084 Cl
HETATM   13  C   UNL     1       5.885  24.147  53.749  1.00  0.00     0.048 A 
HETATM   14  C   UNL     1       3.814  28.771  51.319  1.00  0.00     0.128 C 
HETATM   15  C   UNL     1       3.894  28.607  49.818  1.00  0.00     0.039 C 
HETATM   16  C   UNL     1       5.348  28.481  49.439  1.00  0.00     0.123 C 
HETATM   17  H   UNL     1       3.816  25.495  54.317  1.00  0.00     0.130 HD
ENDROOT
BRANCH   1  18
HETATM   18  C   UNL     1       4.796  27.993  54.450  1.00  0.00    -0.021 A 
HETATM   19  C   UNL     1       5.495  27.316  55.462  1.00  0.00     0.011 A 
HETATM   20  C   UNL     1       6.137  28.018  56.488  1.00  0.00     0.007 A 
HETATM   21  C   UNL     1       6.095  29.414  56.531  1.00  0.00    -0.059 A 
HETATM   22  C   UNL     1       5.423  30.101  55.515  1.00  0.00     0.007 A 
HETATM   23  C   UNL     1       4.784  29.401  54.489  1.00  0.00     0.011 A 
BRANCH  21  24
HETATM   24  C   UNL     1       6.783  30.169  57.641  1.00  0.00     0.034 C 
HETATM   25  C   UNL     1       7.873  29.340  58.301  1.00  0.00     0.010 C 
ENDBRANCH  21  24
ENDBRANCH   1  18
TORSDOF 2
ENDMDL
MODEL 7
REMARK VINA RESULT:      -7.5     10.384     13.152
REMARK  2 active torsions:
REMARK  status: ('A' for Active; 'I' for Inactive)
REMARK    1  A    between atoms: C_2  and  C_3 
REMARK    2  A    between atoms: C_6  and  C_7 
ROOT
HETATM    1  C   UNL     1       4.629  33.834  62.408  1.00  0.00     0.197 C 
HETATM    2  N   UNL     1       5.945  33.222  62.167  1.00  0.00    -0.345 N 
HETATM    3  C   UNL     1       6.828  33.086  63.152  1.00  0.00     0.113 C 
HETATM    4  N   UNL     1       8.016  32.543  62.924  1.00  0.00    -0.376 N 
HETATM    5  H   UNL     1       8.635  32.410  63.716  1.00  0.00     0.161 HD
HETATM    6  C   UNL     1       6.466  33.511  64.515  1.00  0.00     0.029 A 
HETATM    7  C   UNL     1       5.096  33.651  64.766  1.00  0.00     0.025 A 
HETATM    8  N   UNL     1       4.192  33.400  63.724  1.00  0.00    -0.267 NA
HETATM    9  C   UNL     1       7.387  33.762  65.543  1.00  0.00     0.019 A 
HETATM   10  C   UNL     1       6.933  34.091  66.824  1.00  0.00     0.025 A 
HETATM   11  C   UNL     1       5.566  34.155  67.081  1.00  0.00     0.035 A 
HETATM   12 CL   UNL     1       5.012  34.532  68.663  1.00  0.00    -0.084 Cl
HETATM   13  C   UNL     1       4.646  33.924  66.062  1.00  0.00     0.048 A 
HETATM   14  C   UNL     1       6.241  32.773  60.799  1.00  0.00     0.128 C 
HETATM   15  C   UNL     1       7.227  31.627  60.830  1.00  0.00     0.039 C 
HETATM   16  C   UNL     1       8.439  32.076  61.607  1.00  0.00     0.123 C 
HETATM   17  H   UNL     1       3.265  33.758  63.944  1.00  0.00     0.130 HD
ENDROOT
BRANCH   1  18
HETATM   18  C   UNL     1       4.629  35.348  62.262  1.00  0.00    -0.021 A 
HETATM   19  C   UNL     1       5.798  36.104  62.076  1.00  0.00     0.011 A 
HETATM   20  C   UNL     1       5.746  37.498  61.979  1.00  0.00     0.007 A 
HETATM   21  C   UNL     1       4.526  38.174  62.067  1.00  0.00    -0.059 A 
HETATM   22  C   UNL     1       3.353  37.432  62.228  1.00  0.00     0.007 A 
HETATM   23  C   UNL     1       3.403  36.039  62.323  1.00  0.00     0.011 A 
BRANCH  21  24
HETATM   24  C   UNL     1       4.473  39.679  61.967  1.00  0.00     0.034 C 
HETATM   25  C   UNL     1       5.572  40.341  62.783  1.00  0.00     0.010 C 
ENDBRANCH  21  24
ENDBRANCH   1  18
TORSDOF 2
ENDMDL
MODEL 8
REMARK VINA RESULT:      -7.3      4.020      6.119
REMARK  2 active torsions:
REMARK  status: ('A' for Active; 'I' for Inactive)
REMARK    1  A    between atoms: C_2  and  C_3 
REMARK    2  A    between atoms: C_6  and  C_7 
ROOT
HETATM    1  C   UNL     1       7.521  28.562  55.948  1.00  0.00     0.197 C 
HETATM    2  N   UNL     1       6.628  27.478  56.390  1.00  0.00    -0.345 N 
HETATM    3  C   UNL     1       5.334  27.700  56.602  1.00  0.00     0.113 C 
HETATM    4  N   UNL     1       4.539  26.721  57.011  1.00  0.00    -0.376 N 
HETATM    5  H   UNL     1       3.551  26.923  57.107  1.00  0.00     0.161 HD
HETATM    6  C   UNL     1       4.775  29.038  56.346  1.00  0.00     0.029 A 
HETATM    7  C   UNL     1       5.541  29.871  55.521  1.00  0.00     0.025 A 
HETATM    8  N   UNL     1       6.761  29.388  55.025  1.00  0.00    -0.267 NA
HETATM    9  C   UNL     1       3.554  29.504  56.855  1.00  0.00     0.019 A 
HETATM   10  C   UNL     1       3.080  30.768  56.490  1.00  0.00     0.025 A 
HETATM   11  C   UNL     1       3.815  31.557  55.610  1.00  0.00     0.035 A 
HETATM   12 CL   UNL     1       3.215  33.098  55.141  1.00  0.00    -0.084 Cl
HETATM   13  C   UNL     1       5.036  31.109  55.113  1.00  0.00     0.048 A 
HETATM   14  C   UNL     1       7.225  26.150  56.589  1.00  0.00     0.128 C 
HETATM   15  C   UNL     1       6.187  25.074  56.363  1.00  0.00     0.039 C 
HETATM   16  C   UNL     1       5.013  25.363  57.264  1.00  0.00     0.123 C 
HETATM   17  H   UNL     1       7.332  30.142  54.648  1.00  0.00     0.130 HD
ENDROOT
BRANCH   1  18
HETATM   18  C   UNL     1       8.116  29.362  57.096  1.00  0.00    -0.021 A 
HETATM   19  C   UNL     1       7.439  29.598  58.304  1.00  0.00     0.011 A 
HETATM   20  C   UNL     1       8.020  30.368  59.317  1.00  0.00     0.007 A 
HETATM   21  C   UNL     1       9.290  30.925  59.149  1.00  0.00    -0.059 A 
HETATM   22  C   UNL     1       9.984  30.678  57.961  1.00  0.00     0.007 A 
HETATM   23  C   UNL     1       9.406  29.908  56.950  1.00  0.00     0.011 A 
BRANCH  21  24
HETATM   24  C   UNL     1       9.912  31.760  60.241  1.00  0.00     0.034 C 
HETATM   25  C   UNL     1       9.057  31.780  61.498  1.00  0.00     0.010 C 
ENDBRANCH  21  24
ENDBRANCH   1  18
TORSDOF 2
ENDMDL
MODEL 9
REMARK VINA RESULT:      -7.3      3.719      6.077
REMARK  2 active torsions:
REMARK  status: ('A' for Active; 'I' for Inactive)
REMARK    1  A    between atoms: C_2  and  C_3 
REMARK    2  A    between atoms: C_6  and  C_7 
ROOT
HETATM    1  C   UNL     1       3.712  27.721  53.719  1.00  0.00     0.197 C 
HETATM    2  N   UNL     1       4.085  29.027  54.285  1.00  0.00    -0.345 N 
HETATM    3  C   UNL     1       4.441  30.038  53.498  1.00  0.00     0.113 C 
HETATM    4  N   UNL     1       4.785  31.209  54.017  1.00  0.00    -0.376 N 
HETATM    5  H   UNL     1       4.996  31.966  53.377  1.00  0.00     0.161 HD
HETATM    6  C   UNL     1       4.415  29.865  52.037  1.00  0.00     0.029 A 
HETATM    7  C   UNL     1       3.642  28.798  51.563  1.00  0.00     0.025 A 
HETATM    8  N   UNL     1       2.979  27.983  52.492  1.00  0.00    -0.267 NA
HETATM    9  C   UNL     1       5.089  30.688  51.123  1.00  0.00     0.019 A 
HETATM   10  C   UNL     1       4.940  30.479  49.749  1.00  0.00     0.025 A 
HETATM   11  C   UNL     1       4.109  29.461  49.287  1.00  0.00     0.035 A 
HETATM   12 CL   UNL     1       3.905  29.225  47.598  1.00  0.00    -0.084 Cl
HETATM   13  C   UNL     1       3.449  28.628  50.188  1.00  0.00     0.048 A 
HETATM   14  C   UNL     1       4.051  29.163  55.749  1.00  0.00     0.128 C 
HETATM   15  C   UNL     1       3.779  30.601  56.130  1.00  0.00     0.039 C 
HETATM   16  C   UNL     1       4.813  31.466  55.454  1.00  0.00     0.123 C 
HETATM   17  H   UNL     1       2.654  27.119  52.062  1.00  0.00     0.130 HD
ENDROOT
BRANCH   1  18
HETATM   18  C   UNL     1       4.897  26.793  53.505  1.00  0.00    -0.021 A 
HETATM   19  C   UNL     1       6.224  27.160  53.782  1.00  0.00     0.011 A 
HETATM   20  C   UNL     1       7.282  26.279  53.538  1.00  0.00     0.007 A 
HETATM   21  C   UNL     1       7.043  25.008  53.008  1.00  0.00    -0.059 A 
HETATM   22  C   UNL     1       5.725  24.621  52.750  1.00  0.00     0.007 A 
HETATM   23  C   UNL     1       4.667  25.500  52.996  1.00  0.00     0.011 A 
BRANCH  21  24
HETATM   24  C   UNL     1       8.186  24.061  52.740  1.00  0.00     0.034 C 
HETATM   25  C   UNL     1       7.824  22.624  53.078  1.00  0.00     0.010 C 
ENDBRANCH  21  24
ENDBRANCH   1  18
TORSDOF 2
ENDMDL
MODEL 10
REMARK VINA RESULT:      -7.2      2.520      5.628
REMARK  2 active torsions:
REMARK  status: ('A' for Active; 'I' for Inactive)
REMARK    1  A    between atoms: C_2  and  C_3 
REMARK    2  A    between atoms: C_6  and  C_7 
ROOT
HETATM    1  C   UNL     1       6.295  28.272  52.864  1.00  0.00     0.197 C 
HETATM    2  N   UNL     1       5.492  28.329  54.097  1.00  0.00    -0.345 N 
HETATM    3  C   UNL     1       5.385  27.270  54.893  1.00  0.00     0.113 C 
HETATM    4  N   UNL     1       4.651  27.326  55.997  1.00  0.00    -0.376 N 
HETATM    5  H   UNL     1       4.642  26.513  56.601  1.00  0.00     0.161 HD
HETATM    6  C   UNL     1       6.118  26.037  54.565  1.00  0.00     0.029 A 
HETATM    7  C   UNL     1       7.185  26.181  53.671  1.00  0.00     0.025 A 
HETATM    8  N   UNL     1       7.461  27.456  53.154  1.00  0.00    -0.267 NA
HETATM    9  C   UNL     1       5.823  24.769  55.088  1.00  0.00     0.019 A 
HETATM   10  C   UNL     1       6.628  23.673  54.765  1.00  0.00     0.025 A 
HETATM   11  C   UNL     1       7.732  23.843  53.934  1.00  0.00     0.035 A 
HETATM   12 CL   UNL     1       8.737  22.500  53.562  1.00  0.00    -0.084 Cl
HETATM   13  C   UNL     1       8.022  25.095  53.396  1.00  0.00     0.048 A 
HETATM   14  C   UNL     1       4.816  29.598  54.405  1.00  0.00     0.128 C 
HETATM   15  C   UNL     1       4.639  29.743  55.900  1.00  0.00     0.039 C 
HETATM   16  C   UNL     1       3.915  28.520  56.403  1.00  0.00     0.123 C 
HETATM   17  H   UNL     1       8.085  27.404  52.352  1.00  0.00     0.130 HD
ENDROOT
BRANCH   1  18
HETATM   18  C   UNL     1       5.516  27.772  51.657  1.00  0.00    -0.021 A 
HETATM   19  C   UNL     1       5.568  26.445  51.203  1.00  0.00     0.011 A 
HETATM   20  C   UNL     1       4.856  26.043  50.068  1.00  0.00     0.007 A 
HETATM   21  C   UNL     1       4.076  26.958  49.356  1.00  0.00    -0.059 A 
HETATM   22  C   UNL     1       3.998  28.278  49.811  1.00  0.00     0.007 A 
HETATM   23  C   UNL     1       4.707  28.679  50.946  1.00  0.00     0.011 A 
BRANCH  21  24
HETATM   24  C   UNL     1       3.313  26.525  48.128  1.00  0.00     0.034 C 
HETATM   25  C   UNL     1       3.084  25.023  48.103  1.00  0.00     0.010 C 
ENDBRANCH  21  24
ENDBRANCH   1  18
TORSDOF 2
ENDMDL
