MODEL 1
REMARK VINA RESULT:      -9.2      0.000      0.000
REMARK  4 active torsions:
REMARK  status: ('A' for Active; 'I' for Inactive)
REMARK    1  A    between atoms: N_8  and  C_10 
REMARK    2  A    between atoms: C_10  and  C_11 
REMARK    3  A    between atoms: C_14  and  C_15 
REMARK    4  A    between atoms: C_22  and  C_23 
ROOT
HETATM    1  C   UNL     1       8.137  23.115  52.900  1.00  0.00     0.269 C 
HETATM    2  N   UNL     1       7.425  24.323  53.474  1.00  0.00    -0.073 N 
HETATM    3  H   UNL     1       7.622  25.090  52.817  1.00  0.00     0.279 HD
HETATM    4  C   UNL     1       7.970  24.690  54.828  1.00  0.00     0.244 C 
HETATM    5  C   UNL     1       7.326  25.995  55.368  1.00  0.00    -0.013 C 
HETATM    6  C   UNL     1       7.770  26.164  56.852  1.00  0.00     0.039 C 
HETATM    7  C   UNL     1       7.374  27.503  57.476  1.00  0.00     0.236 C 
HETATM    8  N   UNL     1       7.876  28.648  56.641  1.00  0.00    -0.064 N 
HETATM    9  H   UNL     1       7.429  29.488  57.050  1.00  0.00     0.280 HD
HETATM   10  C   UNL     1       7.445  28.576  55.207  1.00  0.00     0.236 C 
HETATM   11  C   UNL     1       7.854  27.234  54.593  1.00  0.00     0.039 C 
HETATM   12  C   UNL     1       5.777  25.842  55.309  1.00  0.00     0.022 C 
HETATM   13  C   UNL     1       5.188  25.370  53.952  1.00  0.00     0.045 C 
HETATM   14  C   UNL     1       5.924  24.097  53.494  1.00  0.00     0.243 C 
ENDROOT
BRANCH  13  15
HETATM   15  C   UNL     1       5.059  26.496  52.929  1.00  0.00    -0.052 A 
HETATM   16  C   UNL     1       5.516  26.410  51.604  1.00  0.00     0.007 A 
HETATM   17  C   UNL     1       5.367  27.482  50.718  1.00  0.00     0.001 A 
HETATM   18  C   UNL     1       4.735  28.650  51.129  1.00  0.00     0.000 A 
HETATM   19  C   UNL     1       4.230  28.742  52.420  1.00  0.00     0.001 A 
HETATM   20  C   UNL     1       4.380  27.673  53.305  1.00  0.00     0.007 A 
ENDBRANCH  13  15
BRANCH   8  21
HETATM   21  C   UNL     1       9.365  28.980  56.837  1.00  0.00     0.317 C 
BRANCH  21  22
HETATM   22  C   UNL     1       9.588  30.200  57.662  1.00  0.00     0.181 A 
HETATM   23  N   UNL     1      10.611  31.031  57.465  1.00  0.00    -0.109 NA
HETATM   24  O   UNL     1      10.447  31.973  58.485  1.00  0.00    -0.196 OA
HETATM   25  C   UNL     1       9.352  31.586  59.213  1.00  0.00     0.177 A 
HETATM   26  N   UNL     1       8.805  30.472  58.755  1.00  0.00    -0.207 NA
BRANCH  25  27
HETATM   27  C   UNL     1       8.856  32.361  60.422  1.00  0.00     0.065 A 
HETATM   28  C   UNL     1       7.978  31.650  61.432  1.00  0.00     0.013 A 
HETATM   29  C   UNL     1       9.383  31.988  61.794  1.00  0.00     0.013 A 
ENDBRANCH  25  27
ENDBRANCH  21  22
ENDBRANCH   8  21
TORSDOF 4
ENDMDL
MODEL 2
REMARK VINA RESULT:      -8.7      3.643      8.462
REMARK  4 active torsions:
REMARK  status: ('A' for Active; 'I' for Inactive)
REMARK    1  A    between atoms: N_8  and  C_10 
REMARK    2  A    between atoms: C_10  and  C_11 
REMARK    3  A    between atoms: C_14  and  C_15 
REMARK    4  A    between atoms: C_22  and  C_23 
ROOT
HETATM    1  C   UNL     1       8.996  28.600  57.415  1.00  0.00     0.269 C 
HETATM    2  N   UNL     1       8.023  27.759  56.616  1.00  0.00    -0.073 N 
HETATM    3  H   UNL     1       8.602  27.240  55.945  1.00  0.00     0.279 HD
HETATM    4  C   UNL     1       7.048  28.618  55.857  1.00  0.00     0.244 C 
HETATM    5  C   UNL     1       6.124  27.766  54.947  1.00  0.00    -0.013 C 
HETATM    6  C   UNL     1       5.012  28.703  54.389  1.00  0.00     0.039 C 
HETATM    7  C   UNL     1       4.126  28.060  53.321  1.00  0.00     0.236 C 
HETATM    8  N   UNL     1       4.962  27.508  52.200  1.00  0.00    -0.064 N 
HETATM    9  H   UNL     1       4.299  26.963  51.621  1.00  0.00     0.280 HD
HETATM   10  C   UNL     1       6.026  26.557  52.659  1.00  0.00     0.236 C 
HETATM   11  C   UNL     1       6.909  27.217  53.723  1.00  0.00     0.039 C 
HETATM   12  C   UNL     1       5.470  26.649  55.814  1.00  0.00     0.022 C 
HETATM   13  C   UNL     1       6.439  25.805  56.685  1.00  0.00     0.045 C 
HETATM   14  C   UNL     1       7.329  26.749  57.515  1.00  0.00     0.243 C 
ENDROOT
BRANCH  13  15
HETATM   15  C   UNL     1       7.147  24.703  55.901  1.00  0.00    -0.052 A 
HETATM   16  C   UNL     1       6.607  24.076  54.767  1.00  0.00     0.007 A 
HETATM   17  C   UNL     1       7.310  23.070  54.095  1.00  0.00     0.001 A 
HETATM   18  C   UNL     1       8.576  22.691  54.526  1.00  0.00     0.000 A 
HETATM   19  C   UNL     1       9.153  23.331  55.616  1.00  0.00     0.001 A 
HETATM   20  C   UNL     1       8.451  24.333  56.287  1.00  0.00     0.007 A 
ENDBRANCH  13  15
BRANCH   8  21
HETATM   21  C   UNL     1       5.447  28.557  51.186  1.00  0.00     0.317 C 
BRANCH  21  22
HETATM   22  C   UNL     1       5.190  28.167  49.772  1.00  0.00     0.181 A 
HETATM   23  N   UNL     1       5.479  28.957  48.738  1.00  0.00    -0.109 NA
HETATM   24  O   UNL     1       5.022  28.216  47.643  1.00  0.00    -0.196 OA
HETATM   25  C   UNL     1       4.473  27.064  48.144  1.00  0.00     0.177 A 
HETATM   26  N   UNL     1       4.528  27.006  49.463  1.00  0.00    -0.207 NA
BRANCH  25  27
HETATM   27  C   UNL     1       3.856  25.997  47.254  1.00  0.00     0.065 A 
HETATM   28  C   UNL     1       2.935  24.970  47.882  1.00  0.00     0.013 A 
HETATM   29  C   UNL     1       2.361  26.030  47.006  1.00  0.00     0.013 A 
ENDBRANCH  25  27
ENDBRANCH  21  22
ENDBRANCH   8  21
TORSDOF 4
ENDMDL
MODEL 3
REMARK VINA RESULT:      -8.6      3.804      8.544
REMARK  4 active torsions:
REMARK  status: ('A' for Active; 'I' for Inactive)
REMARK    1  A    between atoms: N_8  and  C_10 
REMARK    2  A    between atoms: C_10  and  C_11 
REMARK    3  A    between atoms: C_14  and  C_15 
REMARK    4  A    between atoms: C_22  and  C_23 
ROOT
HETATM    1  C   UNL     1       8.719  28.207  57.329  1.00  0.00     0.269 C 
HETATM    2  N   UNL     1       7.867  27.333  56.432  1.00  0.00    -0.073 N 
HETATM    3  H   UNL     1       8.524  26.913  55.762  1.00  0.00     0.279 HD
HETATM    4  C   UNL     1       6.852  28.146  55.676  1.00  0.00     0.244 C 
HETATM    5  C   UNL     1       6.056  27.272  54.670  1.00  0.00    -0.013 C 
HETATM    6  C   UNL     1       4.886  28.137  54.111  1.00  0.00     0.039 C 
HETATM    7  C   UNL     1       4.116  27.485  52.963  1.00  0.00     0.236 C 
HETATM    8  N   UNL     1       5.052  27.084  51.856  1.00  0.00    -0.064 N 
HETATM    9  H   UNL     1       4.470  26.518  51.212  1.00  0.00     0.280 HD
HETATM   10  C   UNL     1       6.179  26.207  52.312  1.00  0.00     0.236 C 
HETATM   11  C   UNL     1       6.944  26.876  53.458  1.00  0.00     0.039 C 
HETATM   12  C   UNL     1       5.471  26.047  55.434  1.00  0.00     0.022 C 
HETATM   13  C   UNL     1       6.474  25.241  56.303  1.00  0.00     0.045 C 
HETATM   14  C   UNL     1       7.231  26.209  57.232  1.00  0.00     0.243 C 
ENDROOT
BRANCH  13  15
HETATM   15  C   UNL     1       7.318  24.261  55.493  1.00  0.00    -0.052 A 
HETATM   16  C   UNL     1       8.617  23.863  55.849  1.00  0.00     0.007 A 
HETATM   17  C   UNL     1       9.336  22.960  55.060  1.00  0.00     0.001 A 
HETATM   18  C   UNL     1       8.764  22.416  53.915  1.00  0.00     0.000 A 
HETATM   19  C   UNL     1       7.462  22.756  53.569  1.00  0.00     0.001 A 
HETATM   20  C   UNL     1       6.745  23.658  54.355  1.00  0.00     0.007 A 
ENDBRANCH  13  15
BRANCH   8  21
HETATM   21  C   UNL     1       5.482  28.236  50.932  1.00  0.00     0.317 C 
BRANCH  21  22
HETATM   22  C   UNL     1       4.935  28.115  49.552  1.00  0.00     0.181 A 
HETATM   23  N   UNL     1       5.539  28.636  48.485  1.00  0.00    -0.109 NA
HETATM   24  O   UNL     1       4.655  28.329  47.446  1.00  0.00    -0.196 OA
HETATM   25  C   UNL     1       3.588  27.679  48.011  1.00  0.00     0.177 A 
HETATM   26  N   UNL     1       3.706  27.552  49.321  1.00  0.00    -0.207 NA
BRANCH  25  27
HETATM   27  C   UNL     1       2.402  27.189  47.195  1.00  0.00     0.065 A 
HETATM   28  C   UNL     1       1.036  27.146  47.850  1.00  0.00     0.013 A 
HETATM   29  C   UNL     1       1.319  28.179  46.815  1.00  0.00     0.013 A 
ENDBRANCH  25  27
ENDBRANCH  21  22
ENDBRANCH   8  21
TORSDOF 4
ENDMDL
MODEL 4
REMARK VINA RESULT:      -8.4      1.791      4.071
REMARK  4 active torsions:
REMARK  status: ('A' for Active; 'I' for Inactive)
REMARK    1  A    between atoms: N_8  and  C_10 
REMARK    2  A    between atoms: C_10  and  C_11 
REMARK    3  A    between atoms: C_14  and  C_15 
REMARK    4  A    between atoms: C_22  and  C_23 
ROOT
HETATM    1  C   UNL     1       4.352  24.602  52.056  1.00  0.00     0.269 C 
HETATM    2  N   UNL     1       5.569  24.865  52.920  1.00  0.00    -0.073 N 
HETATM    3  H   UNL     1       5.384  24.373  53.803  1.00  0.00     0.279 HD
HETATM    4  C   UNL     1       5.734  26.333  53.204  1.00  0.00     0.244 C 
HETATM    5  C   UNL     1       6.909  26.596  54.183  1.00  0.00    -0.013 C 
HETATM    6  C   UNL     1       7.150  28.135  54.233  1.00  0.00     0.039 C 
HETATM    7  C   UNL     1       8.154  28.578  55.299  1.00  0.00     0.236 C 
HETATM    8  N   UNL     1       7.752  28.062  56.653  1.00  0.00    -0.064 N 
HETATM    9  H   UNL     1       8.561  28.274  57.265  1.00  0.00     0.280 HD
HETATM   10  C   UNL     1       7.550  26.577  56.692  1.00  0.00     0.236 C 
HETATM   11  C   UNL     1       6.538  26.149  55.625  1.00  0.00     0.039 C 
HETATM   12  C   UNL     1       8.183  25.893  53.626  1.00  0.00     0.022 C 
HETATM   13  C   UNL     1       8.022  24.400  53.231  1.00  0.00     0.045 C 
HETATM   14  C   UNL     1       6.809  24.252  52.293  1.00  0.00     0.243 C 
ENDROOT
BRANCH  13  15
HETATM   15  C   UNL     1       8.090  23.452  54.424  1.00  0.00    -0.052 A 
HETATM   16  C   UNL     1       7.534  22.162  54.436  1.00  0.00     0.007 A 
HETATM   17  C   UNL     1       7.631  21.345  55.566  1.00  0.00     0.001 A 
HETATM   18  C   UNL     1       8.310  21.786  56.697  1.00  0.00     0.000 A 
HETATM   19  C   UNL     1       8.911  23.039  56.693  1.00  0.00     0.001 A 
HETATM   20  C   UNL     1       8.812  23.856  55.566  1.00  0.00     0.007 A 
ENDBRANCH  13  15
BRANCH   8  21
HETATM   21  C   UNL     1       6.640  28.870  57.343  1.00  0.00     0.317 C 
BRANCH  21  22
HETATM   22  C   UNL     1       7.163  29.969  58.202  1.00  0.00     0.181 A 
HETATM   23  N   UNL     1       6.750  31.232  58.094  1.00  0.00    -0.109 NA
HETATM   24  O   UNL     1       7.537  31.898  59.038  1.00  0.00    -0.196 OA
HETATM   25  C   UNL     1       8.370  30.962  59.594  1.00  0.00     0.177 A 
HETATM   26  N   UNL     1       8.193  29.756  59.082  1.00  0.00    -0.207 NA
BRANCH  25  27
HETATM   27  C   UNL     1       9.390  31.307  60.666  1.00  0.00     0.065 A 
HETATM   28  C   UNL     1       8.912  31.983  61.936  1.00  0.00     0.013 A 
HETATM   29  C   UNL     1       9.346  30.558  61.984  1.00  0.00     0.013 A 
ENDBRANCH  25  27
ENDBRANCH  21  22
ENDBRANCH   8  21
TORSDOF 4
ENDMDL
MODEL 5
REMARK VINA RESULT:      -7.8      4.716      7.194
REMARK  4 active torsions:
REMARK  status: ('A' for Active; 'I' for Inactive)
REMARK    1  A    between atoms: N_8  and  C_10 
REMARK    2  A    between atoms: C_10  and  C_11 
REMARK    3  A    between atoms: C_14  and  C_15 
REMARK    4  A    between atoms: C_22  and  C_23 
ROOT
HETATM    1  C   UNL     1       2.418  31.511  51.697  1.00  0.00     0.269 C 
HETATM    2  N   UNL     1       3.301  30.333  51.340  1.00  0.00    -0.073 N 
HETATM    3  H   UNL     1       2.655  29.545  51.199  1.00  0.00     0.279 HD
HETATM    4  C   UNL     1       4.246  29.995  52.460  1.00  0.00     0.244 C 
HETATM    5  C   UNL     1       5.071  28.718  52.145  1.00  0.00    -0.013 C 
HETATM    6  C   UNL     1       6.172  28.582  53.240  1.00  0.00     0.039 C 
HETATM    7  C   UNL     1       6.954  27.269  53.183  1.00  0.00     0.236 C 
HETATM    8  N   UNL     1       6.019  26.092  53.226  1.00  0.00    -0.064 N 
HETATM    9  H   UNL     1       6.619  25.272  53.023  1.00  0.00     0.280 HD
HETATM   10  C   UNL     1       4.958  26.131  52.166  1.00  0.00     0.236 C 
HETATM   11  C   UNL     1       4.180  27.448  52.240  1.00  0.00     0.039 C 
HETATM   12  C   UNL     1       5.747  28.897  50.753  1.00  0.00     0.022 C 
HETATM   13  C   UNL     1       4.816  29.341  49.593  1.00  0.00     0.045 C 
HETATM   14  C   UNL     1       4.022  30.587  50.027  1.00  0.00     0.243 C 
ENDROOT
BRANCH  13  15
HETATM   15  C   UNL     1       4.014  28.189  48.992  1.00  0.00    -0.052 A 
HETATM   16  C   UNL     1       2.625  28.221  48.789  1.00  0.00     0.007 A 
HETATM   17  C   UNL     1       1.952  27.128  48.233  1.00  0.00     0.001 A 
HETATM   18  C   UNL     1       2.656  25.993  47.844  1.00  0.00     0.000 A 
HETATM   19  C   UNL     1       4.037  25.956  47.990  1.00  0.00     0.001 A 
HETATM   20  C   UNL     1       4.709  27.046  48.546  1.00  0.00     0.007 A 
ENDBRANCH  13  15
BRANCH   8  21
HETATM   21  C   UNL     1       5.497  25.738  54.628  1.00  0.00     0.317 C 
BRANCH  21  22
HETATM   22  C   UNL     1       6.348  24.740  55.334  1.00  0.00     0.181 A 
HETATM   23  N   UNL     1       6.772  24.905  56.586  1.00  0.00    -0.109 NA
HETATM   24  O   UNL     1       7.564  23.772  56.799  1.00  0.00    -0.196 OA
HETATM   25  C   UNL     1       7.558  23.057  55.629  1.00  0.00     0.177 A 
HETATM   26  N   UNL     1       6.840  23.637  54.683  1.00  0.00    -0.207 NA
BRANCH  25  27
HETATM   27  C   UNL     1       8.320  21.753  55.462  1.00  0.00     0.065 A 
HETATM   28  C   UNL     1       8.699  20.968  56.702  1.00  0.00     0.013 A 
HETATM   29  C   UNL     1       7.624  20.452  55.809  1.00  0.00     0.013 A 
ENDBRANCH  25  27
ENDBRANCH  21  22
ENDBRANCH   8  21
TORSDOF 4
ENDMDL
MODEL 6
REMARK VINA RESULT:      -7.6      3.979      7.647
REMARK  4 active torsions:
REMARK  status: ('A' for Active; 'I' for Inactive)
REMARK    1  A    between atoms: N_8  and  C_10 
REMARK    2  A    between atoms: C_10  and  C_11 
REMARK    3  A    between atoms: C_14  and  C_15 
REMARK    4  A    between atoms: C_22  and  C_23 
ROOT
HETATM    1  C   UNL     1       5.506  31.685  50.561  1.00  0.00     0.269 C 
HETATM    2  N   UNL     1       5.069  30.826  51.730  1.00  0.00    -0.073 N 
HETATM    3  H   UNL     1       5.659  31.123  52.518  1.00  0.00     0.279 HD
HETATM    4  C   UNL     1       5.314  29.366  51.461  1.00  0.00     0.244 C 
HETATM    5  C   UNL     1       4.977  28.493  52.699  1.00  0.00    -0.013 C 
HETATM    6  C   UNL     1       5.035  27.000  52.257  1.00  0.00     0.039 C 
HETATM    7  C   UNL     1       4.912  26.000  53.408  1.00  0.00     0.236 C 
HETATM    8  N   UNL     1       5.945  26.278  54.465  1.00  0.00    -0.064 N 
HETATM    9  H   UNL     1       5.682  25.665  55.257  1.00  0.00     0.280 HD
HETATM   10  C   UNL     1       5.916  27.688  54.974  1.00  0.00     0.236 C 
HETATM   11  C   UNL     1       6.046  28.677  53.812  1.00  0.00     0.039 C 
HETATM   12  C   UNL     1       3.532  28.836  53.168  1.00  0.00     0.022 C 
HETATM   13  C   UNL     1       3.216  30.344  53.362  1.00  0.00     0.045 C 
HETATM   14  C   UNL     1       3.623  31.116  52.093  1.00  0.00     0.243 C 
ENDROOT
BRANCH  13  15
HETATM   15  C   UNL     1       3.718  30.896  54.694  1.00  0.00    -0.052 A 
HETATM   16  C   UNL     1       4.382  32.125  54.835  1.00  0.00     0.007 A 
HETATM   17  C   UNL     1       4.817  32.570  56.087  1.00  0.00     0.001 A 
HETATM   18  C   UNL     1       4.573  31.812  57.227  1.00  0.00     0.000 A 
HETATM   19  C   UNL     1       3.874  30.616  57.120  1.00  0.00     0.001 A 
HETATM   20  C   UNL     1       3.441  30.170  55.871  1.00  0.00     0.007 A 
ENDBRANCH  13  15
BRANCH   8  21
HETATM   21  C   UNL     1       7.353  25.753  54.138  1.00  0.00     0.317 C 
BRANCH  21  22
HETATM   22  C   UNL     1       7.585  24.362  54.619  1.00  0.00     0.181 A 
HETATM   23  N   UNL     1       8.053  24.084  55.835  1.00  0.00    -0.109 NA
HETATM   24  O   UNL     1       8.158  22.689  55.817  1.00  0.00    -0.196 OA
HETATM   25  C   UNL     1       7.768  22.278  54.569  1.00  0.00     0.177 A 
HETATM   26  N   UNL     1       7.433  23.286  53.782  1.00  0.00    -0.207 NA
BRANCH  25  27
HETATM   27  C   UNL     1       7.754  20.815  54.156  1.00  0.00     0.065 A 
HETATM   28  C   UNL     1       8.246  20.444  52.771  1.00  0.00     0.013 A 
HETATM   29  C   UNL     1       9.076  20.099  53.960  1.00  0.00     0.013 A 
ENDBRANCH  25  27
ENDBRANCH  21  22
ENDBRANCH   8  21
TORSDOF 4
ENDMDL
MODEL 7
REMARK VINA RESULT:      -7.3      3.730      7.770
REMARK  4 active torsions:
REMARK  status: ('A' for Active; 'I' for Inactive)
REMARK    1  A    between atoms: N_8  and  C_10 
REMARK    2  A    between atoms: C_10  and  C_11 
REMARK    3  A    between atoms: C_14  and  C_15 
REMARK    4  A    between atoms: C_22  and  C_23 
ROOT
HETATM    1  C   UNL     1       9.084  28.514  57.128  1.00  0.00     0.269 C 
HETATM    2  N   UNL     1       7.853  28.074  56.361  1.00  0.00    -0.073 N 
HETATM    3  H   UNL     1       8.207  27.722  55.462  1.00  0.00     0.279 HD
HETATM    4  C   UNL     1       6.925  29.229  56.101  1.00  0.00     0.244 C 
HETATM    5  C   UNL     1       5.722  28.807  55.216  1.00  0.00    -0.013 C 
HETATM    6  C   UNL     1       4.709  29.991  55.197  1.00  0.00     0.039 C 
HETATM    7  C   UNL     1       3.551  29.810  54.214  1.00  0.00     0.236 C 
HETATM    8  N   UNL     1       4.069  29.535  52.829  1.00  0.00    -0.064 N 
HETATM    9  H   UNL     1       3.230  29.272  52.282  1.00  0.00     0.280 HD
HETATM   10  C   UNL     1       5.016  28.374  52.763  1.00  0.00     0.236 C 
HETATM   11  C   UNL     1       6.172  28.573  53.747  1.00  0.00     0.039 C 
HETATM   12  C   UNL     1       5.046  27.561  55.862  1.00  0.00     0.022 C 
HETATM   13  C   UNL     1       5.992  26.386  56.233  1.00  0.00     0.045 C 
HETATM   14  C   UNL     1       7.164  26.924  57.075  1.00  0.00     0.243 C 
ENDROOT
BRANCH  13  15
HETATM   15  C   UNL     1       6.348  25.504  55.040  1.00  0.00    -0.052 A 
HETATM   16  C   UNL     1       5.441  25.142  54.032  1.00  0.00     0.007 A 
HETATM   17  C   UNL     1       5.834  24.327  52.965  1.00  0.00     0.001 A 
HETATM   18  C   UNL     1       7.148  23.881  52.869  1.00  0.00     0.000 A 
HETATM   19  C   UNL     1       8.077  24.266  53.828  1.00  0.00     0.001 A 
HETATM   20  C   UNL     1       7.684  25.077  54.893  1.00  0.00     0.007 A 
ENDBRANCH  13  15
BRANCH   8  21
HETATM   21  C   UNL     1       4.544  30.781  52.064  1.00  0.00     0.317 C 
BRANCH  21  22
HETATM   22  C   UNL     1       4.908  30.495  50.648  1.00  0.00     0.181 A 
HETATM   23  N   UNL     1       6.153  30.600  50.184  1.00  0.00    -0.109 NA
HETATM   24  O   UNL     1       6.006  30.297  48.827  1.00  0.00    -0.196 OA
HETATM   25  C   UNL     1       4.670  30.073  48.611  1.00  0.00     0.177 A 
HETATM   26  N   UNL     1       3.947  30.215  49.709  1.00  0.00    -0.207 NA
BRANCH  25  27
HETATM   27  C   UNL     1       4.109  29.721  47.243  1.00  0.00     0.065 A 
HETATM   28  C   UNL     1       2.733  30.234  46.868  1.00  0.00     0.013 A 
HETATM   29  C   UNL     1       3.937  30.826  46.220  1.00  0.00     0.013 A 
ENDBRANCH  25  27
ENDBRANCH  21  22
ENDBRANCH   8  21
TORSDOF 4
ENDMDL
MODEL 8
REMARK VINA RESULT:      -7.1      4.518     10.049
REMARK  4 active torsions:
REMARK  status: ('A' for Active; 'I' for Inactive)
REMARK    1  A    between atoms: N_8  and  C_10 
REMARK    2  A    between atoms: C_10  and  C_11 
REMARK    3  A    between atoms: C_14  and  C_15 
REMARK    4  A    between atoms: C_22  and  C_23 
ROOT
HETATM    1  C   UNL     1       4.124  37.664  58.934  1.00  0.00     0.269 C 
HETATM    2  N   UNL     1       4.078  36.286  59.564  1.00  0.00    -0.073 N 
HETATM    3  H   UNL     1       4.982  36.178  60.041  1.00  0.00     0.279 HD
HETATM    4  C   UNL     1       3.945  35.210  58.521  1.00  0.00     0.244 C 
HETATM    5  C   UNL     1       4.015  33.793  59.151  1.00  0.00    -0.013 C 
HETATM    6  C   UNL     1       3.637  32.763  58.045  1.00  0.00     0.039 C 
HETATM    7  C   UNL     1       3.842  31.303  58.452  1.00  0.00     0.236 C 
HETATM    8  N   UNL     1       5.251  31.076  58.925  1.00  0.00    -0.064 N 
HETATM    9  H   UNL     1       5.245  30.119  59.322  1.00  0.00     0.280 HD
HETATM   10  C   UNL     1       5.669  32.003  60.027  1.00  0.00     0.236 C 
HETATM   11  C   UNL     1       5.464  33.461  59.603  1.00  0.00     0.039 C 
HETATM   12  C   UNL     1       2.973  33.713  60.307  1.00  0.00     0.022 C 
HETATM   13  C   UNL     1       3.020  34.864  61.349  1.00  0.00     0.045 C 
HETATM   14  C   UNL     1       2.983  36.217  60.614  1.00  0.00     0.243 C 
ENDROOT
BRANCH  13  15
HETATM   15  C   UNL     1       4.113  34.679  62.398  1.00  0.00    -0.052 A 
HETATM   16  C   UNL     1       5.031  35.678  62.759  1.00  0.00     0.007 A 
HETATM   17  C   UNL     1       6.011  35.441  63.730  1.00  0.00     0.001 A 
HETATM   18  C   UNL     1       6.075  34.213  64.378  1.00  0.00     0.000 A 
HETATM   19  C   UNL     1       5.146  33.225  64.074  1.00  0.00     0.001 A 
HETATM   20  C   UNL     1       4.170  33.461  63.104  1.00  0.00     0.007 A 
ENDBRANCH  13  15
BRANCH   8  21
HETATM   21  C   UNL     1       6.289  30.924  57.800  1.00  0.00     0.317 C 
BRANCH  21  22
HETATM   22  C   UNL     1       6.936  29.583  57.780  1.00  0.00     0.181 A 
HETATM   23  N   UNL     1       7.961  29.261  58.569  1.00  0.00    -0.109 NA
HETATM   24  O   UNL     1       8.264  27.956  58.169  1.00  0.00    -0.196 OA
HETATM   25  C   UNL     1       7.403  27.642  57.150  1.00  0.00     0.177 A 
HETATM   26  N   UNL     1       6.581  28.634  56.855  1.00  0.00    -0.207 NA
BRANCH  25  27
HETATM   27  C   UNL     1       7.428  26.298  56.441  1.00  0.00     0.065 A 
HETATM   28  C   UNL     1       8.138  25.137  57.107  1.00  0.00     0.013 A 
HETATM   29  C   UNL     1       6.650  25.142  57.040  1.00  0.00     0.013 A 
ENDBRANCH  25  27
ENDBRANCH  21  22
ENDBRANCH   8  21
TORSDOF 4
ENDMDL
MODEL 9
REMARK VINA RESULT:      -7.0      3.152      4.971
REMARK  4 active torsions:
REMARK  status: ('A' for Active; 'I' for Inactive)
REMARK    1  A    between atoms: N_8  and  C_10 
REMARK    2  A    between atoms: C_10  and  C_11 
REMARK    3  A    between atoms: C_14  and  C_15 
REMARK    4  A    between atoms: C_22  and  C_23 
ROOT
HETATM    1  C   UNL     1       4.585  24.633  51.471  1.00  0.00     0.269 C 
HETATM    2  N   UNL     1       5.518  25.098  52.570  1.00  0.00    -0.073 N 
HETATM    3  H   UNL     1       5.330  24.475  53.366  1.00  0.00     0.279 HD
HETATM    4  C   UNL     1       5.219  26.515  52.980  1.00  0.00     0.244 C 
HETATM    5  C   UNL     1       6.093  26.957  54.184  1.00  0.00    -0.013 C 
HETATM    6  C   UNL     1       5.887  28.488  54.384  1.00  0.00     0.039 C 
HETATM    7  C   UNL     1       6.534  29.048  55.652  1.00  0.00     0.236 C 
HETATM    8  N   UNL     1       6.068  28.290  56.864  1.00  0.00    -0.064 N 
HETATM    9  H   UNL     1       6.672  28.630  57.634  1.00  0.00     0.280 HD
HETATM   10  C   UNL     1       6.281  26.810  56.763  1.00  0.00     0.236 C 
HETATM   11  C   UNL     1       5.623  26.263  55.493  1.00  0.00     0.039 C 
HETATM   12  C   UNL     1       7.587  26.679  53.839  1.00  0.00     0.022 C 
HETATM   13  C   UNL     1       7.914  25.253  53.320  1.00  0.00     0.045 C 
HETATM   14  C   UNL     1       6.966  24.906  52.156  1.00  0.00     0.243 C 
ENDROOT
BRANCH  13  15
HETATM   15  C   UNL     1       8.040  24.221  54.437  1.00  0.00    -0.052 A 
HETATM   16  C   UNL     1       8.545  24.506  55.716  1.00  0.00     0.007 A 
HETATM   17  C   UNL     1       8.634  23.510  56.695  1.00  0.00     0.001 A 
HETATM   18  C   UNL     1       8.194  22.219  56.426  1.00  0.00     0.000 A 
HETATM   19  C   UNL     1       7.643  21.924  55.185  1.00  0.00     0.001 A 
HETATM   20  C   UNL     1       7.556  22.917  54.207  1.00  0.00     0.007 A 
ENDBRANCH  13  15
BRANCH   8  21
HETATM   21  C   UNL     1       4.676  28.695  57.378  1.00  0.00     0.317 C 
BRANCH  21  22
HETATM   22  C   UNL     1       4.428  30.161  57.299  1.00  0.00     0.181 A 
HETATM   23  N   UNL     1       3.663  30.718  56.360  1.00  0.00    -0.109 NA
HETATM   24  O   UNL     1       3.766  32.083  56.643  1.00  0.00    -0.196 OA
HETATM   25  C   UNL     1       4.615  32.205  57.713  1.00  0.00     0.177 A 
HETATM   26  N   UNL     1       5.074  31.038  58.133  1.00  0.00    -0.207 NA
BRANCH  25  27
HETATM   27  C   UNL     1       4.987  33.550  58.315  1.00  0.00     0.065 A 
HETATM   28  C   UNL     1       4.103  34.746  58.023  1.00  0.00     0.013 A 
HETATM   29  C   UNL     1       4.091  34.142  59.385  1.00  0.00     0.013 A 
ENDBRANCH  25  27
ENDBRANCH  21  22
ENDBRANCH   8  21
TORSDOF 4
ENDMDL
MODEL 10
REMARK VINA RESULT:      -6.9      5.019     11.483
REMARK  4 active torsions:
REMARK  status: ('A' for Active; 'I' for Inactive)
REMARK    1  A    between atoms: N_8  and  C_10 
REMARK    2  A    between atoms: C_10  and  C_11 
REMARK    3  A    between atoms: C_14  and  C_15 
REMARK    4  A    between atoms: C_22  and  C_23 
ROOT
HETATM    1  C   UNL     1       4.524  38.525  61.504  1.00  0.00     0.269 C 
HETATM    2  N   UNL     1       4.483  37.130  62.094  1.00  0.00    -0.073 N 
HETATM    3  H   UNL     1       5.204  37.126  62.827  1.00  0.00     0.279 HD
HETATM    4  C   UNL     1       4.827  36.088  61.065  1.00  0.00     0.244 C 
HETATM    5  C   UNL     1       4.900  34.669  61.692  1.00  0.00    -0.013 C 
HETATM    6  C   UNL     1       5.027  33.642  60.528  1.00  0.00     0.039 C 
HETATM    7  C   UNL     1       5.302  32.208  60.983  1.00  0.00     0.236 C 
HETATM    8  N   UNL     1       6.516  32.156  61.869  1.00  0.00    -0.064 N 
HETATM    9  H   UNL     1       6.524  31.192  62.247  1.00  0.00     0.280 HD
HETATM   10  C   UNL     1       6.443  33.087  63.041  1.00  0.00     0.236 C 
HETATM   11  C   UNL     1       6.175  34.519  62.569  1.00  0.00     0.039 C 
HETATM   12  C   UNL     1       3.578  34.404  62.471  1.00  0.00     0.022 C 
HETATM   13  C   UNL     1       3.142  35.508  63.473  1.00  0.00     0.045 C 
HETATM   14  C   UNL     1       3.141  36.872  62.756  1.00  0.00     0.243 C 
ENDROOT
BRANCH  13  15
HETATM   15  C   UNL     1       3.877  35.432  64.808  1.00  0.00    -0.052 A 
HETATM   16  C   UNL     1       4.368  36.551  65.499  1.00  0.00     0.007 A 
HETATM   17  C   UNL     1       5.035  36.410  66.720  1.00  0.00     0.001 A 
HETATM   18  C   UNL     1       5.201  35.152  67.289  1.00  0.00     0.000 A 
HETATM   19  C   UNL     1       4.680  34.034  66.649  1.00  0.00     0.001 A 
HETATM   20  C   UNL     1       4.016  34.174  65.430  1.00  0.00     0.007 A 
ENDBRANCH  13  15
BRANCH   8  21
HETATM   21  C   UNL     1       7.858  32.190  61.118  1.00  0.00     0.317 C 
BRANCH  21  22
HETATM   22  C   UNL     1       7.816  31.473  59.813  1.00  0.00     0.181 A 
HETATM   23  N   UNL     1       7.299  32.010  58.708  1.00  0.00    -0.109 NA
HETATM   24  O   UNL     1       7.423  30.978  57.773  1.00  0.00    -0.196 OA
HETATM   25  C   UNL     1       7.977  29.910  58.430  1.00  0.00     0.177 A 
HETATM   26  N   UNL     1       8.209  30.163  59.707  1.00  0.00    -0.207 NA
BRANCH  25  27
HETATM   27  C   UNL     1       8.263  28.584  57.744  1.00  0.00     0.065 A 
HETATM   28  C   UNL     1       8.176  28.513  56.233  1.00  0.00     0.013 A 
HETATM   29  C   UNL     1       9.511  28.457  56.893  1.00  0.00     0.013 A 
ENDBRANCH  25  27
ENDBRANCH  21  22
ENDBRANCH   8  21
TORSDOF 4
ENDMDL
