MODEL 1
REMARK VINA RESULT:      -9.2      0.000      0.000
REMARK  4 active torsions:
REMARK  status: ('A' for Active; 'I' for Inactive)
REMARK    1  A    between atoms: C_3  and  N_4 
REMARK       I    between atoms: N_4  and  C_5 
REMARK    2  A    between atoms: C_5  and  C_6 
REMARK    3  A    between atoms: C_6  and  C_7 
REMARK    4  A    between atoms: C_10  and  O_11 
ROOT
HETATM    1  N   UNL     1       7.772  25.298  56.171  1.00  0.00    -0.326 N 
HETATM    2  C   UNL     1       7.368  26.624  56.203  1.00  0.00     0.226 C 
HETATM    3  O   UNL     1       6.959  27.290  55.257  1.00  0.00    -0.273 OA
HETATM    4  H   UNL     1       8.034  24.904  57.062  1.00  0.00     0.169 HD
ENDROOT
BRANCH   1   5
HETATM    5  C   UNL     1       7.836  24.427  55.047  1.00  0.00     0.047 A 
HETATM    6  C   UNL     1       7.712  24.915  53.741  1.00  0.00     0.030 A 
HETATM    7  C   UNL     1       7.778  24.054  52.651  1.00  0.00     0.005 A 
HETATM    8  C   UNL     1       7.972  22.693  52.856  1.00  0.00     0.032 A 
HETATM    9  C   UNL     1       8.104  22.162  54.126  1.00  0.00     0.069 A 
HETATM   10  C   UNL     1       8.035  23.022  55.251  1.00  0.00     0.019 A 
HETATM   11  N   UNL     1       8.296  20.834  54.215  1.00  0.00    -0.260 NA
HETATM   12  C   UNL     1       8.187  22.388  56.510  1.00  0.00     0.017 A 
HETATM   13  C   UNL     1       8.387  21.013  56.605  1.00  0.00     0.020 A 
HETATM   14  C   UNL     1       8.433  20.285  55.437  1.00  0.00     0.117 A 
ENDBRANCH   1   5
BRANCH   2  15
HETATM   15  C   UNL     1       7.481  27.245  57.589  1.00  0.00     0.141 C 
BRANCH  15  16
HETATM   16  C   UNL     1       8.307  28.510  57.664  1.00  0.00    -0.049 A 
HETATM   17  C   UNL     1       7.893  29.543  58.522  1.00  0.00     0.010 A 
HETATM   18  C   UNL     1       8.660  30.701  58.673  1.00  0.00     0.037 A 
HETATM   19  C   UNL     1       9.851  30.828  57.969  1.00  0.00     0.065 A 
HETATM   20  C   UNL     1      10.285  29.816  57.123  1.00  0.00     0.037 A 
HETATM   21  C   UNL     1       9.523  28.655  56.979  1.00  0.00     0.010 A 
BRANCH  19  22
HETATM   22  O   UNL     1      10.637  31.934  58.092  1.00  0.00    -0.361 OA
HETATM   23  H   UNL     1      11.142  32.050  57.269  1.00  0.00     0.217 HD
ENDBRANCH  19  22
ENDBRANCH  15  16
ENDBRANCH   2  15
TORSDOF 4
ENDMDL
MODEL 2
REMARK VINA RESULT:      -9.1      3.432      7.068
REMARK  4 active torsions:
REMARK  status: ('A' for Active; 'I' for Inactive)
REMARK    1  A    between atoms: C_3  and  N_4 
REMARK       I    between atoms: N_4  and  C_5 
REMARK    2  A    between atoms: C_5  and  C_6 
REMARK    3  A    between atoms: C_6  and  C_7 
REMARK    4  A    between atoms: C_10  and  O_11 
ROOT
HETATM    1  N   UNL     1       6.542  24.881  56.086  1.00  0.00    -0.326 N 
HETATM    2  C   UNL     1       7.765  24.874  56.740  1.00  0.00     0.226 C 
HETATM    3  O   UNL     1       8.427  25.854  57.069  1.00  0.00    -0.273 OA
HETATM    4  H   UNL     1       6.125  23.973  55.941  1.00  0.00     0.169 HD
ENDROOT
BRANCH   1   5
HETATM    5  C   UNL     1       5.799  26.003  55.624  1.00  0.00     0.047 A 
HETATM    6  C   UNL     1       5.259  26.935  56.517  1.00  0.00     0.030 A 
HETATM    7  C   UNL     1       4.537  28.029  56.054  1.00  0.00     0.005 A 
HETATM    8  C   UNL     1       4.350  28.205  54.688  1.00  0.00     0.032 A 
HETATM    9  C   UNL     1       4.866  27.314  53.764  1.00  0.00     0.069 A 
HETATM   10  C   UNL     1       5.601  26.190  54.217  1.00  0.00     0.019 A 
HETATM   11  N   UNL     1       4.635  27.579  52.466  1.00  0.00    -0.260 NA
HETATM   12  C   UNL     1       6.095  25.339  53.197  1.00  0.00     0.017 A 
HETATM   13  C   UNL     1       5.858  25.611  51.852  1.00  0.00     0.020 A 
HETATM   14  C   UNL     1       5.128  26.735  51.541  1.00  0.00     0.117 A 
ENDBRANCH   1   5
BRANCH   2  15
HETATM   15  C   UNL     1       8.271  23.469  57.037  1.00  0.00     0.141 C 
BRANCH  15  16
HETATM   16  C   UNL     1       8.321  22.536  55.848  1.00  0.00    -0.049 A 
HETATM   17  C   UNL     1       7.935  21.195  56.019  1.00  0.00     0.010 A 
HETATM   18  C   UNL     1       7.903  20.314  54.935  1.00  0.00     0.037 A 
HETATM   19  C   UNL     1       8.251  20.774  53.671  1.00  0.00     0.065 A 
HETATM   20  C   UNL     1       8.625  22.097  53.476  1.00  0.00     0.037 A 
HETATM   21  C   UNL     1       8.649  22.979  54.558  1.00  0.00     0.010 A 
BRANCH  19  22
HETATM   22  O   UNL     1       8.224  19.955  52.582  1.00  0.00    -0.361 OA
HETATM   23  H   UNL     1       7.974  19.061  52.870  1.00  0.00     0.217 HD
ENDBRANCH  19  22
ENDBRANCH  15  16
ENDBRANCH   2  15
TORSDOF 4
ENDMDL
MODEL 3
REMARK VINA RESULT:      -9.1      5.447      7.426
REMARK  4 active torsions:
REMARK  status: ('A' for Active; 'I' for Inactive)
REMARK    1  A    between atoms: C_3  and  N_4 
REMARK       I    between atoms: N_4  and  C_5 
REMARK    2  A    between atoms: C_5  and  C_6 
REMARK    3  A    between atoms: C_6  and  C_7 
REMARK    4  A    between atoms: C_10  and  O_11 
ROOT
HETATM    1  N   UNL     1       9.359  30.504  59.707  1.00  0.00    -0.326 N 
HETATM    2  C   UNL     1       9.272  31.780  60.244  1.00  0.00     0.226 C 
HETATM    3  O   UNL     1       9.142  32.831  59.623  1.00  0.00    -0.273 OA
HETATM    4  H   UNL     1       9.416  29.755  60.380  1.00  0.00     0.169 HD
ENDROOT
BRANCH   1   5
HETATM    5  C   UNL     1       9.351  30.127  58.335  1.00  0.00     0.047 A 
HETATM    6  C   UNL     1      10.540  30.004  57.608  1.00  0.00     0.030 A 
HETATM    7  C   UNL     1      10.520  29.633  56.268  1.00  0.00     0.005 A 
HETATM    8  C   UNL     1       9.307  29.377  55.640  1.00  0.00     0.032 A 
HETATM    9  C   UNL     1       8.104  29.481  56.315  1.00  0.00     0.069 A 
HETATM   10  C   UNL     1       8.103  29.862  57.681  1.00  0.00     0.019 A 
HETATM   11  N   UNL     1       6.988  29.204  55.619  1.00  0.00    -0.260 NA
HETATM   12  C   UNL     1       6.825  29.935  58.288  1.00  0.00     0.017 A 
HETATM   13  C   UNL     1       5.667  29.649  57.570  1.00  0.00     0.020 A 
HETATM   14  C   UNL     1       5.801  29.290  56.248  1.00  0.00     0.117 A 
ENDBRANCH   1   5
BRANCH   2  15
HETATM   15  C   UNL     1       9.362  31.791  61.763  1.00  0.00     0.141 C 
BRANCH  15  16
HETATM   16  C   UNL     1       8.079  32.141  62.484  1.00  0.00    -0.049 A 
HETATM   17  C   UNL     1       6.861  31.653  61.981  1.00  0.00     0.010 A 
HETATM   18  C   UNL     1       5.659  31.897  62.651  1.00  0.00     0.037 A 
HETATM   19  C   UNL     1       5.672  32.626  63.833  1.00  0.00     0.065 A 
HETATM   20  C   UNL     1       6.864  33.110  64.354  1.00  0.00     0.037 A 
HETATM   21  C   UNL     1       8.066  32.859  63.689  1.00  0.00     0.010 A 
BRANCH  19  22
HETATM   22  O   UNL     1       4.526  32.880  64.527  1.00  0.00    -0.361 OA
HETATM   23  H   UNL     1       4.415  32.194  65.206  1.00  0.00     0.217 HD
ENDBRANCH  19  22
ENDBRANCH  15  16
ENDBRANCH   2  15
TORSDOF 4
ENDMDL
MODEL 4
REMARK VINA RESULT:      -8.9      2.848      7.694
REMARK  4 active torsions:
REMARK  status: ('A' for Active; 'I' for Inactive)
REMARK    1  A    between atoms: C_3  and  N_4 
REMARK       I    between atoms: N_4  and  C_5 
REMARK    2  A    between atoms: C_5  and  C_6 
REMARK    3  A    between atoms: C_6  and  C_7 
REMARK    4  A    between atoms: C_10  and  O_11 
ROOT
HETATM    1  N   UNL     1       7.080  26.642  54.370  1.00  0.00    -0.326 N 
HETATM    2  C   UNL     1       6.798  25.298  54.172  1.00  0.00     0.226 C 
HETATM    3  O   UNL     1       5.816  24.686  54.579  1.00  0.00    -0.273 OA
HETATM    4  H   UNL     1       7.917  26.979  53.918  1.00  0.00     0.169 HD
ENDROOT
BRANCH   1   5
HETATM    5  C   UNL     1       6.325  27.597  55.106  1.00  0.00     0.047 A 
HETATM    6  C   UNL     1       4.977  27.838  54.815  1.00  0.00     0.030 A 
HETATM    7  C   UNL     1       4.249  28.774  55.542  1.00  0.00     0.005 A 
HETATM    8  C   UNL     1       4.862  29.477  56.572  1.00  0.00     0.032 A 
HETATM    9  C   UNL     1       6.190  29.274  56.901  1.00  0.00     0.069 A 
HETATM   10  C   UNL     1       6.950  28.327  56.169  1.00  0.00     0.019 A 
HETATM   11  N   UNL     1       6.685  30.000  57.918  1.00  0.00    -0.260 NA
HETATM   12  C   UNL     1       8.299  28.184  56.582  1.00  0.00     0.017 A 
HETATM   13  C   UNL     1       8.814  28.934  57.636  1.00  0.00     0.020 A 
HETATM   14  C   UNL     1       7.973  29.822  58.268  1.00  0.00     0.117 A 
ENDBRANCH   1   5
BRANCH   2  15
HETATM   15  C   UNL     1       7.871  24.580  53.364  1.00  0.00     0.141 C 
BRANCH  15  16
HETATM   16  C   UNL     1       8.151  23.155  53.785  1.00  0.00    -0.049 A 
HETATM   17  C   UNL     1       7.826  22.109  52.904  1.00  0.00     0.010 A 
HETATM   18  C   UNL     1       8.127  20.782  53.224  1.00  0.00     0.037 A 
HETATM   19  C   UNL     1       8.761  20.497  54.427  1.00  0.00     0.065 A 
HETATM   20  C   UNL     1       9.100  21.515  55.308  1.00  0.00     0.037 A 
HETATM   21  C   UNL     1       8.808  22.841  54.985  1.00  0.00     0.010 A 
BRANCH  19  22
HETATM   22  O   UNL     1       9.084  19.220  54.777  1.00  0.00    -0.361 OA
HETATM   23  H   UNL     1       9.361  18.739  53.980  1.00  0.00     0.217 HD
ENDBRANCH  19  22
ENDBRANCH  15  16
ENDBRANCH   2  15
TORSDOF 4
ENDMDL
MODEL 5
REMARK VINA RESULT:      -8.5      4.947      9.921
REMARK  4 active torsions:
REMARK  status: ('A' for Active; 'I' for Inactive)
REMARK    1  A    between atoms: C_3  and  N_4 
REMARK       I    between atoms: N_4  and  C_5 
REMARK    2  A    between atoms: C_5  and  C_6 
REMARK    3  A    between atoms: C_6  and  C_7 
REMARK    4  A    between atoms: C_10  and  O_11 
ROOT
HETATM    1  N   UNL     1       8.018  30.819  60.435  1.00  0.00    -0.326 N 
HETATM    2  C   UNL     1       8.758  31.101  59.296  1.00  0.00     0.226 C 
HETATM    3  O   UNL     1       9.236  32.186  58.981  1.00  0.00    -0.273 OA
HETATM    4  H   UNL     1       7.748  29.853  60.546  1.00  0.00     0.169 HD
ENDROOT
BRANCH   1   5
HETATM    5  C   UNL     1       7.621  31.714  61.467  1.00  0.00     0.047 A 
HETATM    6  C   UNL     1       8.326  31.790  62.673  1.00  0.00     0.030 A 
HETATM    7  C   UNL     1       7.929  32.670  63.675  1.00  0.00     0.005 A 
HETATM    8  C   UNL     1       6.822  33.487  63.478  1.00  0.00     0.032 A 
HETATM    9  C   UNL     1       6.093  33.451  62.303  1.00  0.00     0.069 A 
HETATM   10  C   UNL     1       6.479  32.558  61.272  1.00  0.00     0.019 A 
HETATM   11  N   UNL     1       5.045  34.287  62.210  1.00  0.00    -0.260 NA
HETATM   12  C   UNL     1       5.677  32.598  60.104  1.00  0.00     0.017 A 
HETATM   13  C   UNL     1       4.590  33.463  60.004  1.00  0.00     0.020 A 
HETATM   14  C   UNL     1       4.317  34.282  61.077  1.00  0.00     0.117 A 
ENDBRANCH   1   5
BRANCH   2  15
HETATM   15  C   UNL     1       8.944  29.888  58.394  1.00  0.00     0.141 C 
BRANCH  15  16
HETATM   16  C   UNL     1       7.667  29.280  57.858  1.00  0.00    -0.049 A 
HETATM   17  C   UNL     1       7.607  27.890  57.659  1.00  0.00     0.010 A 
HETATM   18  C   UNL     1       6.427  27.277  57.227  1.00  0.00     0.037 A 
HETATM   19  C   UNL     1       5.299  28.055  56.999  1.00  0.00     0.065 A 
HETATM   20  C   UNL     1       5.332  29.428  57.197  1.00  0.00     0.037 A 
HETATM   21  C   UNL     1       6.508  30.039  57.637  1.00  0.00     0.010 A 
BRANCH  19  22
HETATM   22  O   UNL     1       4.123  27.501  56.587  1.00  0.00    -0.361 OA
HETATM   23  H   UNL     1       3.474  27.579  57.306  1.00  0.00     0.217 HD
ENDBRANCH  19  22
ENDBRANCH  15  16
ENDBRANCH   2  15
TORSDOF 4
ENDMDL
MODEL 6
REMARK VINA RESULT:      -8.5      4.640      7.690
REMARK  4 active torsions:
REMARK  status: ('A' for Active; 'I' for Inactive)
REMARK    1  A    between atoms: C_3  and  N_4 
REMARK       I    between atoms: N_4  and  C_5 
REMARK    2  A    between atoms: C_5  and  C_6 
REMARK    3  A    between atoms: C_6  and  C_7 
REMARK    4  A    between atoms: C_10  and  O_11 
ROOT
HETATM    1  N   UNL     1       7.087  31.241  59.835  1.00  0.00    -0.326 N 
HETATM    2  C   UNL     1       8.191  31.985  60.223  1.00  0.00     0.226 C 
HETATM    3  O   UNL     1       8.904  32.672  59.498  1.00  0.00    -0.273 OA
HETATM    4  H   UNL     1       6.596  30.775  60.584  1.00  0.00     0.169 HD
ENDROOT
BRANCH   1   5
HETATM    5  C   UNL     1       6.553  31.078  58.526  1.00  0.00     0.047 A 
HETATM    6  C   UNL     1       5.625  31.985  58.002  1.00  0.00     0.030 A 
HETATM    7  C   UNL     1       5.112  31.816  56.720  1.00  0.00     0.005 A 
HETATM    8  C   UNL     1       5.526  30.738  55.947  1.00  0.00     0.032 A 
HETATM    9  C   UNL     1       6.443  29.816  56.417  1.00  0.00     0.069 A 
HETATM   10  C   UNL     1       6.975  29.968  57.723  1.00  0.00     0.019 A 
HETATM   11  N   UNL     1       6.782  28.815  55.588  1.00  0.00    -0.260 NA
HETATM   12  C   UNL     1       7.911  28.979  58.115  1.00  0.00     0.017 A 
HETATM   13  C   UNL     1       8.265  27.941  57.257  1.00  0.00     0.020 A 
HETATM   14  C   UNL     1       7.677  27.903  56.013  1.00  0.00     0.117 A 
ENDBRANCH   1   5
BRANCH   2  15
HETATM   15  C   UNL     1       8.485  31.879  61.713  1.00  0.00     0.141 C 
BRANCH  15  16
HETATM   16  C   UNL     1       7.677  32.801  62.598  1.00  0.00    -0.049 A 
HETATM   17  C   UNL     1       7.936  32.817  63.980  1.00  0.00     0.010 A 
HETATM   18  C   UNL     1       7.259  33.700  64.826  1.00  0.00     0.037 A 
HETATM   19  C   UNL     1       6.323  34.577  64.290  1.00  0.00     0.065 A 
HETATM   20  C   UNL     1       6.059  34.585  62.927  1.00  0.00     0.037 A 
HETATM   21  C   UNL     1       6.741  33.709  62.081  1.00  0.00     0.010 A 
BRANCH  19  22
HETATM   22  O   UNL     1       5.647  35.463  65.074  1.00  0.00    -0.361 OA
HETATM   23  H   UNL     1       4.720  35.176  65.140  1.00  0.00     0.217 HD
ENDBRANCH  19  22
ENDBRANCH  15  16
ENDBRANCH   2  15
TORSDOF 4
ENDMDL
MODEL 7
REMARK VINA RESULT:      -8.5      3.507      8.009
REMARK  4 active torsions:
REMARK  status: ('A' for Active; 'I' for Inactive)
REMARK    1  A    between atoms: C_3  and  N_4 
REMARK       I    between atoms: N_4  and  C_5 
REMARK    2  A    between atoms: C_5  and  C_6 
REMARK    3  A    between atoms: C_6  and  C_7 
REMARK    4  A    between atoms: C_10  and  O_11 
ROOT
HETATM    1  N   UNL     1       7.156  26.613  54.464  1.00  0.00    -0.326 N 
HETATM    2  C   UNL     1       6.789  25.316  54.137  1.00  0.00     0.226 C 
HETATM    3  O   UNL     1       5.744  24.750  54.442  1.00  0.00    -0.273 OA
HETATM    4  H   UNL     1       8.038  26.922  54.083  1.00  0.00     0.169 HD
ENDROOT
BRANCH   1   5
HETATM    5  C   UNL     1       6.434  27.560  55.243  1.00  0.00     0.047 A 
HETATM    6  C   UNL     1       6.628  27.664  56.625  1.00  0.00     0.030 A 
HETATM    7  C   UNL     1       5.917  28.594  57.376  1.00  0.00     0.005 A 
HETATM    8  C   UNL     1       5.005  29.435  56.749  1.00  0.00     0.032 A 
HETATM    9  C   UNL     1       4.779  29.374  55.386  1.00  0.00     0.069 A 
HETATM   10  C   UNL     1       5.490  28.430  54.604  1.00  0.00     0.019 A 
HETATM   11  N   UNL     1       3.881  30.236  54.878  1.00  0.00    -0.260 NA
HETATM   12  C   UNL     1       5.196  28.446  53.218  1.00  0.00     0.017 A 
HETATM   13  C   UNL     1       4.268  29.339  52.688  1.00  0.00     0.020 A 
HETATM   14  C   UNL     1       3.642  30.207  53.553  1.00  0.00     0.117 A 
ENDBRANCH   1   5
BRANCH   2  15
HETATM   15  C   UNL     1       7.849  24.588  53.323  1.00  0.00     0.141 C 
BRANCH  15  16
HETATM   16  C   UNL     1       8.134  23.167  53.757  1.00  0.00    -0.049 A 
HETATM   17  C   UNL     1       7.847  22.114  52.871  1.00  0.00     0.010 A 
HETATM   18  C   UNL     1       8.155  20.792  53.205  1.00  0.00     0.037 A 
HETATM   19  C   UNL     1       8.759  20.519  54.426  1.00  0.00     0.065 A 
HETATM   20  C   UNL     1       9.062  21.544  55.312  1.00  0.00     0.037 A 
HETATM   21  C   UNL     1       8.762  22.866  54.975  1.00  0.00     0.010 A 
BRANCH  19  22
HETATM   22  O   UNL     1       9.088  19.248  54.790  1.00  0.00    -0.361 OA
HETATM   23  H   UNL     1       9.296  18.738  53.989  1.00  0.00     0.217 HD
ENDBRANCH  19  22
ENDBRANCH  15  16
ENDBRANCH   2  15
TORSDOF 4
ENDMDL
MODEL 8
REMARK VINA RESULT:      -8.5      5.085      8.272
REMARK  4 active torsions:
REMARK  status: ('A' for Active; 'I' for Inactive)
REMARK    1  A    between atoms: C_3  and  N_4 
REMARK       I    between atoms: N_4  and  C_5 
REMARK    2  A    between atoms: C_5  and  C_6 
REMARK    3  A    between atoms: C_6  and  C_7 
REMARK    4  A    between atoms: C_10  and  O_11 
ROOT
HETATM    1  N   UNL     1       6.137  26.459  51.277  1.00  0.00    -0.326 N 
HETATM    2  C   UNL     1       6.183  25.294  52.029  1.00  0.00     0.226 C 
HETATM    3  O   UNL     1       5.243  24.755  52.606  1.00  0.00    -0.273 OA
HETATM    4  H   UNL     1       7.007  26.724  50.838  1.00  0.00     0.169 HD
ENDROOT
BRANCH   1   5
HETATM    5  C   UNL     1       5.018  27.302  51.032  1.00  0.00     0.047 A 
HETATM    6  C   UNL     1       4.549  28.189  52.008  1.00  0.00     0.030 A 
HETATM    7  C   UNL     1       3.454  29.010  51.756  1.00  0.00     0.005 A 
HETATM    8  C   UNL     1       2.819  28.953  50.521  1.00  0.00     0.032 A 
HETATM    9  C   UNL     1       3.246  28.097  49.522  1.00  0.00     0.069 A 
HETATM   10  C   UNL     1       4.357  27.249  49.761  1.00  0.00     0.019 A 
HETATM   11  N   UNL     1       2.567  28.125  48.362  1.00  0.00    -0.260 NA
HETATM   12  C   UNL     1       4.724  26.412  48.678  1.00  0.00     0.017 A 
HETATM   13  C   UNL     1       4.023  26.440  47.475  1.00  0.00     0.020 A 
HETATM   14  C   UNL     1       2.961  27.308  47.368  1.00  0.00     0.117 A 
ENDBRANCH   1   5
BRANCH   2  15
HETATM   15  C   UNL     1       7.578  24.689  52.102  1.00  0.00     0.141 C 
BRANCH  15  16
HETATM   16  C   UNL     1       7.770  23.634  53.169  1.00  0.00    -0.049 A 
HETATM   17  C   UNL     1       7.818  24.030  54.516  1.00  0.00     0.010 A 
HETATM   18  C   UNL     1       7.928  23.083  55.538  1.00  0.00     0.037 A 
HETATM   19  C   UNL     1       7.983  21.733  55.215  1.00  0.00     0.065 A 
HETATM   20  C   UNL     1       7.927  21.318  53.891  1.00  0.00     0.037 A 
HETATM   21  C   UNL     1       7.809  22.264  52.870  1.00  0.00     0.010 A 
BRANCH  19  22
HETATM   22  O   UNL     1       8.080  20.773  56.178  1.00  0.00    -0.361 OA
HETATM   23  H   UNL     1       7.470  20.049  55.958  1.00  0.00     0.217 HD
ENDBRANCH  19  22
ENDBRANCH  15  16
ENDBRANCH   2  15
TORSDOF 4
ENDMDL
MODEL 9
REMARK VINA RESULT:      -8.4      3.665      6.272
REMARK  4 active torsions:
REMARK  status: ('A' for Active; 'I' for Inactive)
REMARK    1  A    between atoms: C_3  and  N_4 
REMARK       I    between atoms: N_4  and  C_5 
REMARK    2  A    between atoms: C_5  and  C_6 
REMARK    3  A    between atoms: C_6  and  C_7 
REMARK    4  A    between atoms: C_10  and  O_11 
ROOT
HETATM    1  N   UNL     1       6.334  26.528  54.336  1.00  0.00    -0.326 N 
HETATM    2  C   UNL     1       6.663  27.666  53.616  1.00  0.00     0.226 C 
HETATM    3  O   UNL     1       7.772  28.182  53.524  1.00  0.00    -0.273 OA
HETATM    4  H   UNL     1       5.374  26.226  54.254  1.00  0.00     0.169 HD
ENDROOT
BRANCH   1   5
HETATM    5  C   UNL     1       7.185  25.727  55.149  1.00  0.00     0.047 A 
HETATM    6  C   UNL     1       7.527  26.118  56.448  1.00  0.00     0.030 A 
HETATM    7  C   UNL     1       8.358  25.326  57.234  1.00  0.00     0.005 A 
HETATM    8  C   UNL     1       8.854  24.131  56.726  1.00  0.00     0.032 A 
HETATM    9  C   UNL     1       8.543  23.698  55.450  1.00  0.00     0.069 A 
HETATM   10  C   UNL     1       7.701  24.493  54.633  1.00  0.00     0.019 A 
HETATM   11  N   UNL     1       9.068  22.524  55.059  1.00  0.00    -0.260 NA
HETATM   12  C   UNL     1       7.434  23.966  53.344  1.00  0.00     0.017 A 
HETATM   13  C   UNL     1       7.975  22.750  52.936  1.00  0.00     0.020 A 
HETATM   14  C   UNL     1       8.780  22.072  53.824  1.00  0.00     0.117 A 
ENDBRANCH   1   5
BRANCH   2  15
HETATM   15  C   UNL     1       5.468  28.281  52.900  1.00  0.00     0.141 C 
BRANCH  15  16
HETATM   16  C   UNL     1       5.340  27.928  51.435  1.00  0.00    -0.049 A 
HETATM   17  C   UNL     1       4.982  26.617  51.080  1.00  0.00     0.010 A 
HETATM   18  C   UNL     1       4.789  26.264  49.741  1.00  0.00     0.037 A 
HETATM   19  C   UNL     1       4.947  27.226  48.752  1.00  0.00     0.065 A 
HETATM   20  C   UNL     1       5.291  28.530  49.080  1.00  0.00     0.037 A 
HETATM   21  C   UNL     1       5.476  28.885  50.418  1.00  0.00     0.010 A 
BRANCH  19  22
HETATM   22  O   UNL     1       4.759  26.931  47.434  1.00  0.00    -0.361 OA
HETATM   23  H   UNL     1       5.286  26.145  47.213  1.00  0.00     0.217 HD
ENDBRANCH  19  22
ENDBRANCH  15  16
ENDBRANCH   2  15
TORSDOF 4
ENDMDL
MODEL 10
REMARK VINA RESULT:      -8.4      3.122      7.700
REMARK  4 active torsions:
REMARK  status: ('A' for Active; 'I' for Inactive)
REMARK    1  A    between atoms: C_3  and  N_4 
REMARK       I    between atoms: N_4  and  C_5 
REMARK    2  A    between atoms: C_5  and  C_6 
REMARK    3  A    between atoms: C_6  and  C_7 
REMARK    4  A    between atoms: C_10  and  O_11 
ROOT
HETATM    1  N   UNL     1       6.879  26.217  55.414  1.00  0.00    -0.326 N 
HETATM    2  C   UNL     1       6.606  25.073  56.149  1.00  0.00     0.226 C 
HETATM    3  O   UNL     1       5.530  24.761  56.650  1.00  0.00    -0.273 OA
HETATM    4  H   UNL     1       7.814  26.278  55.042  1.00  0.00     0.169 HD
ENDROOT
BRANCH   1   5
HETATM    5  C   UNL     1       5.999  27.292  55.105  1.00  0.00     0.047 A 
HETATM    6  C   UNL     1       5.089  27.204  54.045  1.00  0.00     0.030 A 
HETATM    7  C   UNL     1       4.232  28.260  53.753  1.00  0.00     0.005 A 
HETATM    8  C   UNL     1       4.276  29.417  54.522  1.00  0.00     0.032 A 
HETATM    9  C   UNL     1       5.154  29.552  55.581  1.00  0.00     0.069 A 
HETATM   10  C   UNL     1       6.038  28.489  55.893  1.00  0.00     0.019 A 
HETATM   11  N   UNL     1       5.111  30.709  56.266  1.00  0.00    -0.260 NA
HETATM   12  C   UNL     1       6.896  28.717  56.998  1.00  0.00     0.017 A 
HETATM   13  C   UNL     1       6.853  29.913  57.709  1.00  0.00     0.020 A 
HETATM   14  C   UNL     1       5.949  30.870  57.307  1.00  0.00     0.117 A 
ENDBRANCH   1   5
BRANCH   2  15
HETATM   15  C   UNL     1       7.820  24.168  56.310  1.00  0.00     0.141 C 
BRANCH  15  16
HETATM   16  C   UNL     1       7.937  23.056  55.291  1.00  0.00    -0.049 A 
HETATM   17  C   UNL     1       7.883  21.722  55.730  1.00  0.00     0.010 A 
HETATM   18  C   UNL     1       7.921  20.665  54.817  1.00  0.00     0.037 A 
HETATM   19  C   UNL     1       8.006  20.939  53.458  1.00  0.00     0.065 A 
HETATM   20  C   UNL     1       8.051  22.249  53.001  1.00  0.00     0.037 A 
HETATM   21  C   UNL     1       8.004  23.306  53.912  1.00  0.00     0.010 A 
BRANCH  19  22
HETATM   22  O   UNL     1       8.036  19.941  52.530  1.00  0.00    -0.361 OA
HETATM   23  H   UNL     1       7.173  19.494  52.526  1.00  0.00     0.217 HD
ENDBRANCH  19  22
ENDBRANCH  15  16
ENDBRANCH   2  15
TORSDOF 4
ENDMDL
