MODEL 1
REMARK VINA RESULT:      -8.9      0.000      0.000
REMARK  5 active torsions:
REMARK  status: ('A' for Active; 'I' for Inactive)
REMARK    1  A    between atoms: C_3  and  O_4 
REMARK    2  A    between atoms: O_4  and  C_5 
REMARK    3  A    between atoms: C_10  and  N_11 
REMARK       I    between atoms: N_11  and  C_12 
REMARK       I    between atoms: C_12  and  N_13 
REMARK    4  A    between atoms: N_13  and  C_14 
REMARK    5  A    between atoms: C_14  and  C_15 
ROOT
HETATM    1  N   UNL     1       6.858  28.805  54.526  1.00  0.00    -0.309 N 
HETATM    2  C   UNL     1       6.978  27.773  53.659  1.00  0.00     0.321 C 
HETATM    3  N   UNL     1       7.591  26.631  54.051  1.00  0.00    -0.337 N 
HETATM    4  O   UNL     1       6.497  27.904  52.533  1.00  0.00    -0.247 OA
HETATM    5  H   UNL     1       6.278  29.521  54.108  1.00  0.00     0.170 HD
HETATM    6  H   UNL     1       7.504  26.377  55.023  1.00  0.00     0.164 HD
ENDROOT
BRANCH   1   7
HETATM    7  C   UNL     1       7.371  29.110  55.798  1.00  0.00     0.037 A 
HETATM    8  C   UNL     1       6.634  29.214  56.973  1.00  0.00     0.032 A 
HETATM    9  C   UNL     1       7.269  29.531  58.187  1.00  0.00     0.039 A 
HETATM   10  C   UNL     1       8.652  29.721  58.245  1.00  0.00     0.075 A 
HETATM   11  C   UNL     1       9.409  29.581  57.074  1.00  0.00    -0.026 A 
HETATM   12  C   UNL     1      10.903  29.759  57.092  1.00  0.00     0.051 C 
HETATM   13  C   UNL     1       8.761  29.282  55.866  1.00  0.00     0.039 A 
BRANCH  10  14
HETATM   14  O   UNL     1       9.364  30.063  59.361  1.00  0.00    -0.346 OA
BRANCH  14  15
HETATM   15  C   UNL     1       8.727  30.759  60.435  1.00  0.00     0.121 C 
HETATM   16  C   UNL     1       9.359  30.362  61.766  1.00  0.00     0.040 C 
HETATM   17  C   UNL     1       8.955  32.247  60.177  1.00  0.00     0.040 C 
ENDBRANCH  14  15
ENDBRANCH  10  14
ENDBRANCH   1   7
BRANCH   3  18
HETATM   18  C   UNL     1       7.600  25.508  53.135  1.00  0.00     0.183 C 
BRANCH  18  19
HETATM   19  C   UNL     1       7.716  24.162  53.814  1.00  0.00     0.053 A 
HETATM   20  N   UNL     1       7.546  24.091  55.162  1.00  0.00    -0.264 NA
HETATM   21  C   UNL     1       7.637  22.870  55.736  1.00  0.00     0.118 A 
HETATM   22  C   UNL     1       7.870  21.703  55.036  1.00  0.00     0.043 A 
HETATM   23  C   UNL     1       8.017  21.799  53.661  1.00  0.00     0.037 A 
HETATM   24 CL   UNL     1       8.297  20.382  52.727  1.00  0.00    -0.084 Cl
HETATM   25  C   UNL     1       7.939  23.034  53.031  1.00  0.00     0.052 A 
ENDBRANCH  18  19
ENDBRANCH   3  18
TORSDOF 5
ENDMDL
MODEL 2
REMARK VINA RESULT:      -8.5      3.723      8.175
REMARK  5 active torsions:
REMARK  status: ('A' for Active; 'I' for Inactive)
REMARK    1  A    between atoms: C_3  and  O_4 
REMARK    2  A    between atoms: O_4  and  C_5 
REMARK    3  A    between atoms: C_10  and  N_11 
REMARK       I    between atoms: N_11  and  C_12 
REMARK       I    between atoms: C_12  and  N_13 
REMARK    4  A    between atoms: N_13  and  C_14 
REMARK    5  A    between atoms: C_14  and  C_15 
ROOT
HETATM    1  N   UNL     1       5.026  26.515  55.121  1.00  0.00    -0.309 N 
HETATM    2  C   UNL     1       5.138  27.638  55.868  1.00  0.00     0.321 C 
HETATM    3  N   UNL     1       6.343  27.995  56.371  1.00  0.00    -0.337 N 
HETATM    4  O   UNL     1       4.127  28.318  56.047  1.00  0.00    -0.247 OA
HETATM    5  H   UNL     1       4.092  26.468  54.735  1.00  0.00     0.170 HD
HETATM    6  H   UNL     1       7.156  27.749  55.827  1.00  0.00     0.164 HD
ENDROOT
BRANCH   1   7
HETATM    7  C   UNL     1       5.862  25.430  54.812  1.00  0.00     0.037 A 
HETATM    8  C   UNL     1       6.033  24.861  53.554  1.00  0.00     0.032 A 
HETATM    9  C   UNL     1       6.901  23.769  53.377  1.00  0.00     0.039 A 
HETATM   10  C   UNL     1       7.629  23.249  54.450  1.00  0.00     0.075 A 
HETATM   11  C   UNL     1       7.494  23.839  55.715  1.00  0.00    -0.026 A 
HETATM   12  C   UNL     1       8.270  23.324  56.896  1.00  0.00     0.051 C 
HETATM   13  C   UNL     1       6.610  24.916  55.882  1.00  0.00     0.039 A 
BRANCH  10  14
HETATM   14  O   UNL     1       8.472  22.175  54.396  1.00  0.00    -0.346 OA
BRANCH  14  15
HETATM   15  C   UNL     1       7.953  20.865  54.151  1.00  0.00     0.121 C 
HETATM   16  C   UNL     1       8.372  20.386  52.764  1.00  0.00     0.040 C 
HETATM   17  C   UNL     1       8.558  19.956  55.218  1.00  0.00     0.040 C 
ENDBRANCH  14  15
ENDBRANCH  10  14
ENDBRANCH   1   7
BRANCH   3  18
HETATM   18  C   UNL     1       6.448  29.261  57.069  1.00  0.00     0.183 C 
BRANCH  18  19
HETATM   19  C   UNL     1       7.869  29.735  57.272  1.00  0.00     0.053 A 
HETATM   20  N   UNL     1       8.814  29.385  56.359  1.00  0.00    -0.264 NA
HETATM   21  C   UNL     1      10.072  29.841  56.559  1.00  0.00     0.118 A 
HETATM   22  C   UNL     1      10.441  30.648  57.618  1.00  0.00     0.043 A 
HETATM   23  C   UNL     1       9.455  31.009  58.523  1.00  0.00     0.037 A 
HETATM   24 CL   UNL     1       9.844  32.024  59.856  1.00  0.00    -0.084 Cl
HETATM   25  C   UNL     1       8.152  30.557  58.359  1.00  0.00     0.052 A 
ENDBRANCH  18  19
ENDBRANCH   3  18
TORSDOF 5
ENDMDL
MODEL 3
REMARK VINA RESULT:      -8.3      5.557      8.178
REMARK  5 active torsions:
REMARK  status: ('A' for Active; 'I' for Inactive)
REMARK    1  A    between atoms: C_3  and  O_4 
REMARK    2  A    between atoms: O_4  and  C_5 
REMARK    3  A    between atoms: C_10  and  N_11 
REMARK       I    between atoms: N_11  and  C_12 
REMARK       I    between atoms: C_12  and  N_13 
REMARK    4  A    between atoms: N_13  and  C_14 
REMARK    5  A    between atoms: C_14  and  C_15 
ROOT
HETATM    1  N   UNL     1       4.579  26.490  53.812  1.00  0.00    -0.309 N 
HETATM    2  C   UNL     1       4.172  27.376  52.874  1.00  0.00     0.321 C 
HETATM    3  N   UNL     1       4.571  27.227  51.589  1.00  0.00    -0.337 N 
HETATM    4  O   UNL     1       3.424  28.289  53.226  1.00  0.00    -0.247 OA
HETATM    5  H   UNL     1       4.096  26.684  54.680  1.00  0.00     0.170 HD
HETATM    6  H   UNL     1       4.720  26.284  51.264  1.00  0.00     0.164 HD
ENDROOT
BRANCH   1   7
HETATM    7  C   UNL     1       5.508  25.437  53.861  1.00  0.00     0.037 A 
HETATM    8  C   UNL     1       5.924  24.663  52.782  1.00  0.00     0.032 A 
HETATM    9  C   UNL     1       6.862  23.632  52.965  1.00  0.00     0.039 A 
HETATM   10  C   UNL     1       7.416  23.379  54.223  1.00  0.00     0.075 A 
HETATM   11  C   UNL     1       7.032  24.178  55.310  1.00  0.00    -0.026 A 
HETATM   12  C   UNL     1       7.614  23.954  56.679  1.00  0.00     0.051 C 
HETATM   13  C   UNL     1       6.081  25.192  55.117  1.00  0.00     0.039 A 
BRANCH  10  14
HETATM   14  O   UNL     1       8.306  22.385  54.518  1.00  0.00    -0.346 OA
BRANCH  14  15
HETATM   15  C   UNL     1       7.938  21.015  54.343  1.00  0.00     0.121 C 
HETATM   16  C   UNL     1       8.688  20.418  53.155  1.00  0.00     0.040 C 
HETATM   17  C   UNL     1       8.344  20.294  55.626  1.00  0.00     0.040 C 
ENDBRANCH  14  15
ENDBRANCH  10  14
ENDBRANCH   1   7
BRANCH   3  18
HETATM   18  C   UNL     1       4.026  28.127  50.593  1.00  0.00     0.183 C 
BRANCH  18  19
HETATM   19  C   UNL     1       3.528  27.434  49.345  1.00  0.00     0.053 A 
HETATM   20  N   UNL     1       4.280  26.439  48.803  1.00  0.00    -0.264 NA
HETATM   21  C   UNL     1       3.798  25.825  47.698  1.00  0.00     0.118 A 
HETATM   22  C   UNL     1       2.588  26.138  47.108  1.00  0.00     0.043 A 
HETATM   23  C   UNL     1       1.830  27.140  47.692  1.00  0.00     0.037 A 
HETATM   24 CL   UNL     1       0.307  27.569  47.016  1.00  0.00    -0.084 Cl
HETATM   25  C   UNL     1       2.291  27.801  48.823  1.00  0.00     0.052 A 
ENDBRANCH  18  19
ENDBRANCH   3  18
TORSDOF 5
ENDMDL
MODEL 4
REMARK VINA RESULT:      -8.2      3.284      7.919
REMARK  5 active torsions:
REMARK  status: ('A' for Active; 'I' for Inactive)
REMARK    1  A    between atoms: C_3  and  O_4 
REMARK    2  A    between atoms: O_4  and  C_5 
REMARK    3  A    between atoms: C_10  and  N_11 
REMARK       I    between atoms: N_11  and  C_12 
REMARK       I    between atoms: C_12  and  N_13 
REMARK    4  A    between atoms: N_13  and  C_14 
REMARK    5  A    between atoms: C_14  and  C_15 
ROOT
HETATM    1  N   UNL     1       5.319  26.217  55.657  1.00  0.00    -0.309 N 
HETATM    2  C   UNL     1       5.180  27.396  56.306  1.00  0.00     0.321 C 
HETATM    3  N   UNL     1       6.229  27.921  56.983  1.00  0.00    -0.337 N 
HETATM    4  O   UNL     1       4.093  27.970  56.237  1.00  0.00    -0.247 OA
HETATM    5  H   UNL     1       4.483  26.038  55.116  1.00  0.00     0.170 HD
HETATM    6  H   UNL     1       7.150  27.729  56.618  1.00  0.00     0.164 HD
ENDROOT
BRANCH   1   7
HETATM    7  C   UNL     1       6.299  25.212  55.605  1.00  0.00     0.037 A 
HETATM    8  C   UNL     1       6.965  24.660  56.695  1.00  0.00     0.032 A 
HETATM    9  C   UNL     1       7.932  23.657  56.507  1.00  0.00     0.039 A 
HETATM   10  C   UNL     1       8.229  23.176  55.229  1.00  0.00     0.075 A 
HETATM   11  C   UNL     1       7.538  23.698  54.127  1.00  0.00    -0.026 A 
HETATM   12  C   UNL     1       7.811  23.199  52.734  1.00  0.00     0.051 C 
HETATM   13  C   UNL     1       6.587  24.711  54.327  1.00  0.00     0.039 A 
BRANCH  10  14
HETATM   14  O   UNL     1       9.171  22.232  54.931  1.00  0.00    -0.346 OA
BRANCH  14  15
HETATM   15  C   UNL     1       8.925  20.854  55.221  1.00  0.00     0.121 C 
HETATM   16  C   UNL     1       7.581  20.698  55.927  1.00  0.00     0.040 C 
HETATM   17  C   UNL     1       8.891  20.131  53.877  1.00  0.00     0.040 C 
ENDBRANCH  14  15
ENDBRANCH  10  14
ENDBRANCH   1   7
BRANCH   3  18
HETATM   18  C   UNL     1       6.078  29.238  57.569  1.00  0.00     0.183 C 
BRANCH  18  19
HETATM   19  C   UNL     1       7.387  29.923  57.887  1.00  0.00     0.053 A 
HETATM   20  N   UNL     1       7.393  30.942  58.787  1.00  0.00    -0.264 NA
HETATM   21  C   UNL     1       8.584  31.521  59.064  1.00  0.00     0.118 A 
HETATM   22  C   UNL     1       9.783  31.127  58.502  1.00  0.00     0.043 A 
HETATM   23  C   UNL     1       9.754  30.071  57.604  1.00  0.00     0.037 A 
HETATM   24 CL   UNL     1      11.213  29.521  56.878  1.00  0.00    -0.084 Cl
HETATM   25  C   UNL     1       8.552  29.453  57.286  1.00  0.00     0.052 A 
ENDBRANCH  18  19
ENDBRANCH   3  18
TORSDOF 5
ENDMDL
MODEL 5
REMARK VINA RESULT:      -8.1      4.668      7.240
REMARK  5 active torsions:
REMARK  status: ('A' for Active; 'I' for Inactive)
REMARK    1  A    between atoms: C_3  and  O_4 
REMARK    2  A    between atoms: O_4  and  C_5 
REMARK    3  A    between atoms: C_10  and  N_11 
REMARK       I    between atoms: N_11  and  C_12 
REMARK       I    between atoms: C_12  and  N_13 
REMARK    4  A    between atoms: N_13  and  C_14 
REMARK    5  A    between atoms: C_14  and  C_15 
ROOT
HETATM    1  N   UNL     1       4.995  25.943  54.735  1.00  0.00    -0.309 N 
HETATM    2  C   UNL     1       5.863  25.282  55.534  1.00  0.00     0.321 C 
HETATM    3  N   UNL     1       7.089  24.947  55.067  1.00  0.00    -0.337 N 
HETATM    4  O   UNL     1       5.509  25.025  56.686  1.00  0.00    -0.247 OA
HETATM    5  H   UNL     1       4.185  26.213  55.279  1.00  0.00     0.170 HD
HETATM    6  H   UNL     1       7.505  25.568  54.390  1.00  0.00     0.164 HD
ENDROOT
BRANCH   1   7
HETATM    7  C   UNL     1       4.948  26.285  53.373  1.00  0.00     0.037 A 
HETATM    8  C   UNL     1       5.266  25.448  52.308  1.00  0.00     0.032 A 
HETATM    9  C   UNL     1       5.181  25.914  50.984  1.00  0.00     0.039 A 
HETATM   10  C   UNL     1       4.753  27.215  50.708  1.00  0.00     0.075 A 
HETATM   11  C   UNL     1       4.394  28.056  51.771  1.00  0.00    -0.026 A 
HETATM   12  C   UNL     1       3.911  29.458  51.521  1.00  0.00     0.051 C 
HETATM   13  C   UNL     1       4.500  27.583  53.088  1.00  0.00     0.039 A 
BRANCH  10  14
HETATM   14  O   UNL     1       4.666  27.779  49.466  1.00  0.00    -0.346 OA
BRANCH  14  15
HETATM   15  C   UNL     1       4.773  26.964  48.297  1.00  0.00     0.121 C 
HETATM   16  C   UNL     1       3.384  26.593  47.786  1.00  0.00     0.040 C 
HETATM   17  C   UNL     1       5.502  27.806  47.251  1.00  0.00     0.040 C 
ENDBRANCH  14  15
ENDBRANCH  10  14
ENDBRANCH   1   7
BRANCH   3  18
HETATM   18  C   UNL     1       8.032  24.341  55.986  1.00  0.00     0.183 C 
BRANCH  18  19
HETATM   19  C   UNL     1       8.246  22.861  55.760  1.00  0.00     0.053 A 
HETATM   20  N   UNL     1       8.443  22.056  56.838  1.00  0.00    -0.264 NA
HETATM   21  C   UNL     1       8.611  20.734  56.604  1.00  0.00     0.118 A 
HETATM   22  C   UNL     1       8.577  20.162  55.346  1.00  0.00     0.043 A 
HETATM   23  C   UNL     1       8.352  21.002  54.267  1.00  0.00     0.037 A 
HETATM   24 CL   UNL     1       8.283  20.352  52.675  1.00  0.00    -0.084 Cl
HETATM   25  C   UNL     1       8.181  22.366  54.462  1.00  0.00     0.052 A 
ENDBRANCH  18  19
ENDBRANCH   3  18
TORSDOF 5
ENDMDL
MODEL 6
REMARK VINA RESULT:      -8.0      1.780      2.087
REMARK  5 active torsions:
REMARK  status: ('A' for Active; 'I' for Inactive)
REMARK    1  A    between atoms: C_3  and  O_4 
REMARK    2  A    between atoms: O_4  and  C_5 
REMARK    3  A    between atoms: C_10  and  N_11 
REMARK       I    between atoms: N_11  and  C_12 
REMARK       I    between atoms: C_12  and  N_13 
REMARK    4  A    between atoms: N_13  and  C_14 
REMARK    5  A    between atoms: C_14  and  C_15 
ROOT
HETATM    1  N   UNL     1       6.000  27.144  54.373  1.00  0.00    -0.309 N 
HETATM    2  C   UNL     1       6.139  26.090  53.537  1.00  0.00     0.321 C 
HETATM    3  N   UNL     1       7.086  25.154  53.783  1.00  0.00    -0.337 N 
HETATM    4  O   UNL     1       5.371  26.007  52.578  1.00  0.00    -0.247 OA
HETATM    5  H   UNL     1       5.179  27.671  54.106  1.00  0.00     0.170 HD
HETATM    6  H   UNL     1       7.312  24.977  54.750  1.00  0.00     0.164 HD
ENDROOT
BRANCH   1   7
HETATM    7  C   UNL     1       6.730  27.671  55.451  1.00  0.00     0.037 A 
HETATM    8  C   UNL     1       6.396  27.561  56.798  1.00  0.00     0.032 A 
HETATM    9  C   UNL     1       7.213  28.140  57.785  1.00  0.00     0.039 A 
HETATM   10  C   UNL     1       8.388  28.812  57.440  1.00  0.00     0.075 A 
HETATM   11  C   UNL     1       8.755  28.896  56.090  1.00  0.00    -0.026 A 
HETATM   12  C   UNL     1      10.020  29.596  55.673  1.00  0.00     0.051 C 
HETATM   13  C   UNL     1       7.921  28.330  55.113  1.00  0.00     0.039 A 
BRANCH  10  14
HETATM   14  O   UNL     1       9.234  29.437  58.313  1.00  0.00    -0.346 OA
BRANCH  14  15
HETATM   15  C   UNL     1       8.853  30.671  58.926  1.00  0.00     0.121 C 
HETATM   16  C   UNL     1       8.695  30.482  60.432  1.00  0.00     0.040 C 
HETATM   17  C   UNL     1       9.982  31.659  58.644  1.00  0.00     0.040 C 
ENDBRANCH  14  15
ENDBRANCH  10  14
ENDBRANCH   1   7
BRANCH   3  18
HETATM   18  C   UNL     1       7.131  23.982  52.932  1.00  0.00     0.183 C 
BRANCH  18  19
HETATM   19  C   UNL     1       7.549  22.718  53.649  1.00  0.00     0.053 A 
HETATM   20  N   UNL     1       7.839  21.612  52.912  1.00  0.00    -0.264 NA
HETATM   21  C   UNL     1       8.229  20.504  53.582  1.00  0.00     0.118 A 
HETATM   22  C   UNL     1       8.365  20.439  54.955  1.00  0.00     0.043 A 
HETATM   23  C   UNL     1       8.086  21.586  55.681  1.00  0.00     0.037 A 
HETATM   24 CL   UNL     1       8.248  21.579  57.394  1.00  0.00    -0.084 Cl
HETATM   25  C   UNL     1       7.675  22.744  55.034  1.00  0.00     0.052 A 
ENDBRANCH  18  19
ENDBRANCH   3  18
TORSDOF 5
ENDMDL
MODEL 7
REMARK VINA RESULT:      -7.8      4.334      8.631
REMARK  5 active torsions:
REMARK  status: ('A' for Active; 'I' for Inactive)
REMARK    1  A    between atoms: C_3  and  O_4 
REMARK    2  A    between atoms: O_4  and  C_5 
REMARK    3  A    between atoms: C_10  and  N_11 
REMARK       I    between atoms: N_11  and  C_12 
REMARK       I    between atoms: C_12  and  N_13 
REMARK    4  A    between atoms: N_13  and  C_14 
REMARK    5  A    between atoms: C_14  and  C_15 
ROOT
HETATM    1  N   UNL     1       6.572  28.337  57.046  1.00  0.00    -0.309 N 
HETATM    2  C   UNL     1       7.037  29.477  57.605  1.00  0.00     0.321 C 
HETATM    3  N   UNL     1       8.355  29.599  57.891  1.00  0.00    -0.337 N 
HETATM    4  O   UNL     1       6.235  30.388  57.816  1.00  0.00    -0.247 OA
HETATM    5  H   UNL     1       5.600  28.465  56.796  1.00  0.00     0.170 HD
HETATM    6  H   UNL     1       9.000  29.115  57.285  1.00  0.00     0.164 HD
ENDROOT
BRANCH   1   7
HETATM    7  C   UNL     1       7.099  27.060  56.787  1.00  0.00     0.037 A 
HETATM    8  C   UNL     1       7.573  26.162  57.739  1.00  0.00     0.032 A 
HETATM    9  C   UNL     1       8.081  24.911  57.348  1.00  0.00     0.039 A 
HETATM   10  C   UNL     1       8.098  24.531  56.004  1.00  0.00     0.075 A 
HETATM   11  C   UNL     1       7.588  25.412  55.040  1.00  0.00    -0.026 A 
HETATM   12  C   UNL     1       7.570  25.040  53.582  1.00  0.00     0.051 C 
HETATM   13  C   UNL     1       7.100  26.665  55.442  1.00  0.00     0.039 A 
BRANCH  10  14
HETATM   14  O   UNL     1       8.597  23.358  55.513  1.00  0.00    -0.346 OA
BRANCH  14  15
HETATM   15  C   UNL     1       7.822  22.159  55.588  1.00  0.00     0.121 C 
HETATM   16  C   UNL     1       7.880  21.413  54.258  1.00  0.00     0.040 C 
HETATM   17  C   UNL     1       8.454  21.307  56.687  1.00  0.00     0.040 C 
ENDBRANCH  14  15
ENDBRANCH  10  14
ENDBRANCH   1   7
BRANCH   3  18
HETATM   18  C   UNL     1       8.836  30.875  58.382  1.00  0.00     0.183 C 
BRANCH  18  19
HETATM   19  C   UNL     1       8.623  31.081  59.865  1.00  0.00     0.053 A 
HETATM   20  N   UNL     1       9.190  30.204  60.737  1.00  0.00    -0.264 NA
HETATM   21  C   UNL     1       8.997  30.428  62.057  1.00  0.00     0.118 A 
HETATM   22  C   UNL     1       8.280  31.495  62.563  1.00  0.00     0.043 A 
HETATM   23  C   UNL     1       7.732  32.387  61.655  1.00  0.00     0.037 A 
HETATM   24 CL   UNL     1       6.839  33.745  62.218  1.00  0.00    -0.084 Cl
HETATM   25  C   UNL     1       7.899  32.191  60.290  1.00  0.00     0.052 A 
ENDBRANCH  18  19
ENDBRANCH   3  18
TORSDOF 5
ENDMDL
MODEL 8
REMARK VINA RESULT:      -7.5      5.068      7.412
REMARK  5 active torsions:
REMARK  status: ('A' for Active; 'I' for Inactive)
REMARK    1  A    between atoms: C_3  and  O_4 
REMARK    2  A    between atoms: O_4  and  C_5 
REMARK    3  A    between atoms: C_10  and  N_11 
REMARK       I    between atoms: N_11  and  C_12 
REMARK       I    between atoms: C_12  and  N_13 
REMARK    4  A    between atoms: N_13  and  C_14 
REMARK    5  A    between atoms: C_14  and  C_15 
ROOT
HETATM    1  N   UNL     1       6.442  28.228  52.758  1.00  0.00    -0.309 N 
HETATM    2  C   UNL     1       5.619  28.709  51.799  1.00  0.00     0.321 C 
HETATM    3  N   UNL     1       4.484  28.040  51.487  1.00  0.00    -0.337 N 
HETATM    4  O   UNL     1       5.927  29.768  51.249  1.00  0.00    -0.247 OA
HETATM    5  H   UNL     1       7.170  28.908  52.939  1.00  0.00     0.170 HD
HETATM    6  H   UNL     1       4.035  27.532  52.233  1.00  0.00     0.164 HD
ENDROOT
BRANCH   1   7
HETATM    7  C   UNL     1       6.534  27.035  53.494  1.00  0.00     0.037 A 
HETATM    8  C   UNL     1       6.058  26.832  54.786  1.00  0.00     0.032 A 
HETATM    9  C   UNL     1       6.217  25.585  55.416  1.00  0.00     0.039 A 
HETATM   10  C   UNL     1       6.831  24.519  54.754  1.00  0.00     0.075 A 
HETATM   11  C   UNL     1       7.280  24.701  53.439  1.00  0.00    -0.026 A 
HETATM   12  C   UNL     1       7.932  23.577  52.680  1.00  0.00     0.051 C 
HETATM   13  C   UNL     1       7.132  25.956  52.828  1.00  0.00     0.039 A 
BRANCH  10  14
HETATM   14  O   UNL     1       7.065  23.281  55.283  1.00  0.00    -0.346 OA
BRANCH  14  15
HETATM   15  C   UNL     1       8.333  22.978  55.870  1.00  0.00     0.121 C 
HETATM   16  C   UNL     1       8.584  23.883  57.072  1.00  0.00     0.040 C 
HETATM   17  C   UNL     1       8.259  21.522  56.325  1.00  0.00     0.040 C 
ENDBRANCH  14  15
ENDBRANCH  10  14
ENDBRANCH   1   7
BRANCH   3  18
HETATM   18  C   UNL     1       3.571  28.643  50.536  1.00  0.00     0.183 C 
BRANCH  18  19
HETATM   19  C   UNL     1       3.306  27.791  49.315  1.00  0.00     0.053 A 
HETATM   20  N   UNL     1       4.232  26.865  48.948  1.00  0.00    -0.264 NA
HETATM   21  C   UNL     1       3.955  26.106  47.862  1.00  0.00     0.118 A 
HETATM   22  C   UNL     1       2.790  26.207  47.126  1.00  0.00     0.043 A 
HETATM   23  C   UNL     1       1.853  27.143  47.535  1.00  0.00     0.037 A 
HETATM   24 CL   UNL     1       0.375  27.310  46.671  1.00  0.00    -0.084 Cl
HETATM   25  C   UNL     1       2.100  27.948  48.639  1.00  0.00     0.052 A 
ENDBRANCH  18  19
ENDBRANCH   3  18
TORSDOF 5
ENDMDL
MODEL 9
REMARK VINA RESULT:      -7.4      3.759      8.043
REMARK  5 active torsions:
REMARK  status: ('A' for Active; 'I' for Inactive)
REMARK    1  A    between atoms: C_3  and  O_4 
REMARK    2  A    between atoms: O_4  and  C_5 
REMARK    3  A    between atoms: C_10  and  N_11 
REMARK       I    between atoms: N_11  and  C_12 
REMARK       I    between atoms: C_12  and  N_13 
REMARK    4  A    between atoms: N_13  and  C_14 
REMARK    5  A    between atoms: C_14  and  C_15 
ROOT
HETATM    1  N   UNL     1       4.690  26.704  55.859  1.00  0.00    -0.309 N 
HETATM    2  C   UNL     1       4.693  28.053  55.958  1.00  0.00     0.321 C 
HETATM    3  N   UNL     1       5.758  28.760  55.512  1.00  0.00    -0.337 N 
HETATM    4  O   UNL     1       3.699  28.600  56.438  1.00  0.00    -0.247 OA
HETATM    5  H   UNL     1       3.779  26.355  56.128  1.00  0.00     0.170 HD
HETATM    6  H   UNL     1       6.262  28.378  54.725  1.00  0.00     0.164 HD
ENDROOT
BRANCH   1   7
HETATM    7  C   UNL     1       5.637  25.722  55.524  1.00  0.00     0.037 A 
HETATM    8  C   UNL     1       5.713  25.037  54.315  1.00  0.00     0.032 A 
HETATM    9  C   UNL     1       6.712  24.069  54.106  1.00  0.00     0.039 A 
HETATM   10  C   UNL     1       7.662  23.793  55.093  1.00  0.00     0.075 A 
HETATM   11  C   UNL     1       7.618  24.504  56.300  1.00  0.00    -0.026 A 
HETATM   12  C   UNL     1       8.630  24.253  57.385  1.00  0.00     0.051 C 
HETATM   13  C   UNL     1       6.605  25.454  56.503  1.00  0.00     0.039 A 
BRANCH  10  14
HETATM   14  O   UNL     1       8.650  22.853  55.007  1.00  0.00    -0.346 OA
BRANCH  14  15
HETATM   15  C   UNL     1       8.319  21.477  54.810  1.00  0.00     0.121 C 
HETATM   16  C   UNL     1       8.767  21.022  53.424  1.00  0.00     0.040 C 
HETATM   17  C   UNL     1       9.076  20.695  55.881  1.00  0.00     0.040 C 
ENDBRANCH  14  15
ENDBRANCH  10  14
ENDBRANCH   1   7
BRANCH   3  18
HETATM   18  C   UNL     1       5.678  30.207  55.529  1.00  0.00     0.183 C 
BRANCH  18  19
HETATM   19  C   UNL     1       6.000  30.823  56.872  1.00  0.00     0.053 A 
HETATM   20  N   UNL     1       5.197  31.813  57.348  1.00  0.00    -0.264 NA
HETATM   21  C   UNL     1       5.500  32.330  58.560  1.00  0.00     0.118 A 
HETATM   22  C   UNL     1       6.557  31.901  59.340  1.00  0.00     0.043 A 
HETATM   23  C   UNL     1       7.347  30.877  58.842  1.00  0.00     0.037 A 
HETATM   24 CL   UNL     1       8.671  30.286  59.768  1.00  0.00    -0.084 Cl
HETATM   25  C   UNL     1       7.075  30.322  57.599  1.00  0.00     0.052 A 
ENDBRANCH  18  19
ENDBRANCH   3  18
TORSDOF 5
ENDMDL
MODEL 10
REMARK VINA RESULT:      -7.4      4.153      7.964
REMARK  5 active torsions:
REMARK  status: ('A' for Active; 'I' for Inactive)
REMARK    1  A    between atoms: C_3  and  O_4 
REMARK    2  A    between atoms: O_4  and  C_5 
REMARK    3  A    between atoms: C_10  and  N_11 
REMARK       I    between atoms: N_11  and  C_12 
REMARK       I    between atoms: C_12  and  N_13 
REMARK    4  A    between atoms: N_13  and  C_14 
REMARK    5  A    between atoms: C_14  and  C_15 
ROOT
HETATM    1  N   UNL     1       5.995  28.153  53.053  1.00  0.00    -0.309 N 
HETATM    2  C   UNL     1       6.062  27.549  54.262  1.00  0.00     0.321 C 
HETATM    3  N   UNL     1       5.556  26.303  54.421  1.00  0.00    -0.337 N 
HETATM    4  O   UNL     1       6.609  28.156  55.183  1.00  0.00    -0.247 OA
HETATM    5  H   UNL     1       6.520  29.018  53.088  1.00  0.00     0.170 HD
HETATM    6  H   UNL     1       5.597  25.688  53.622  1.00  0.00     0.164 HD
ENDROOT
BRANCH   1   7
HETATM    7  C   UNL     1       5.356  27.884  51.832  1.00  0.00     0.037 A 
HETATM    8  C   UNL     1       5.565  26.768  51.027  1.00  0.00     0.032 A 
HETATM    9  C   UNL     1       4.861  26.617  49.820  1.00  0.00     0.039 A 
HETATM   10  C   UNL     1       3.919  27.567  49.414  1.00  0.00     0.075 A 
HETATM   11  C   UNL     1       3.672  28.676  50.236  1.00  0.00    -0.026 A 
HETATM   12  C   UNL     1       2.656  29.715  49.849  1.00  0.00     0.051 C 
HETATM   13  C   UNL     1       4.396  28.823  51.429  1.00  0.00     0.039 A 
BRANCH  10  14
HETATM   14  O   UNL     1       3.206  27.536  48.249  1.00  0.00    -0.346 OA
BRANCH  14  15
HETATM   15  C   UNL     1       2.220  26.523  48.036  1.00  0.00     0.121 C 
HETATM   16  C   UNL     1       0.900  27.156  47.608  1.00  0.00     0.040 C 
HETATM   17  C   UNL     1       2.755  25.632  46.916  1.00  0.00     0.040 C 
ENDBRANCH  14  15
ENDBRANCH  10  14
ENDBRANCH   1   7
BRANCH   3  18
HETATM   18  C   UNL     1       5.746  25.643  55.697  1.00  0.00     0.183 C 
BRANCH  18  19
HETATM   19  C   UNL     1       6.745  24.509  55.660  1.00  0.00     0.053 A 
HETATM   20  N   UNL     1       7.433  24.203  56.792  1.00  0.00    -0.264 NA
HETATM   21  C   UNL     1       8.305  23.171  56.730  1.00  0.00     0.118 A 
HETATM   22  C   UNL     1       8.519  22.407  55.599  1.00  0.00     0.043 A 
HETATM   23  C   UNL     1       7.788  22.724  54.464  1.00  0.00     0.037 A 
HETATM   24 CL   UNL     1       7.996  21.805  53.026  1.00  0.00    -0.084 Cl
HETATM   25  C   UNL     1       6.888  23.781  54.482  1.00  0.00     0.052 A 
ENDBRANCH  18  19
ENDBRANCH   3  18
TORSDOF 5
ENDMDL
