MODEL 1
REMARK VINA RESULT:      -7.9      0.000      0.000
REMARK  10 active torsions:
REMARK  status: ('A' for Active; 'I' for Inactive)
REMARK    1  A    between atoms: O_2  and  C_3 
REMARK    2  A    between atoms: C_4  and  O_5 
REMARK    3  A    between atoms: O_5  and  C_6 
REMARK    4  A    between atoms: C_6  and  C_7 
REMARK       I    between atoms: C_7  and  N_8 
REMARK    5  A    between atoms: N_8  and  C_9 
REMARK    6  A    between atoms: C_9  and  N_10 
REMARK    7  A    between atoms: N_10  and  N_11 
REMARK    8  A    between atoms: N_11  and  C_12 
REMARK    9  A    between atoms: C_12  and  N_13 
REMARK   10  A    between atoms: N_13  and  C_14 
ROOT
HETATM    1  C   UNL     1       6.153  26.650  55.915  1.00  0.00     0.193 C 
HETATM    2  S   UNL     1       6.050  27.450  54.449  1.00  0.00    -0.039 SA
ENDROOT
BRANCH   1   3
HETATM    3  N   UNL     1       6.860  25.472  56.171  1.00  0.00    -0.301 N 
HETATM    4  C   UNL     1       7.744  25.145  57.206  1.00  0.00     0.248 C 
HETATM    5  O   UNL     1       8.104  25.891  58.111  1.00  0.00    -0.271 OA
HETATM    6  H   UNL     1       6.740  24.752  55.473  1.00  0.00     0.171 HD
BRANCH   4   7
HETATM    7  C   UNL     1       8.274  23.709  57.096  1.00  0.00     0.278 C 
BRANCH   7   8
HETATM    8  O   UNL     1       9.228  23.482  56.061  1.00  0.00    -0.339 OA
BRANCH   8   9
HETATM    9  C   UNL     1       8.777  22.646  55.077  1.00  0.00     0.102 A 
HETATM   10  C   UNL     1       8.255  23.097  53.862  1.00  0.00     0.101 A 
HETATM   11  C   UNL     1       7.862  22.184  52.882  1.00  0.00     0.039 A 
HETATM   12  C   UNL     1       7.937  20.815  53.143  1.00  0.00     0.003 A 
HETATM   13  C   UNL     1       8.409  20.363  54.375  1.00  0.00     0.003 A 
HETATM   14  C   UNL     1       8.824  21.278  55.345  1.00  0.00     0.039 A 
BRANCH  10  15
HETATM   15  O   UNL     1       8.181  24.430  53.556  1.00  0.00    -0.353 OA
HETATM   16  C   UNL     1       7.649  24.595  52.238  1.00  0.00     0.210 C 
ENDBRANCH  10  15
ENDBRANCH   8   9
ENDBRANCH   7   8
ENDBRANCH   4   7
ENDBRANCH   1   3
BRANCH   1  17
HETATM   17  N   UNL     1       5.560  27.128  57.086  1.00  0.00    -0.274 N 
HETATM   18  H   UNL     1       5.219  26.490  57.803  1.00  0.00     0.189 HD
BRANCH  17  19
HETATM   19  N   UNL     1       4.957  28.401  57.115  1.00  0.00    -0.274 N 
HETATM   20  H   UNL     1       4.084  28.474  56.590  1.00  0.00     0.189 HD
BRANCH  19  21
HETATM   21  C   UNL     1       5.703  29.532  57.310  1.00  0.00     0.191 C 
HETATM   22  S   UNL     1       5.324  31.034  56.661  1.00  0.00    -0.039 SA
BRANCH  21  23
HETATM   23  N   UNL     1       6.808  29.441  58.105  1.00  0.00    -0.332 N 
HETATM   24  H   UNL     1       6.597  29.080  59.030  1.00  0.00     0.168 HD
BRANCH  23  25
HETATM   25  C   UNL     1       8.149  29.829  57.900  1.00  0.00     0.034 A 
HETATM   26  C   UNL     1       8.770  30.895  58.555  1.00  0.00     0.029 A 
HETATM   27  C   UNL     1      10.113  31.195  58.305  1.00  0.00     0.002 A 
HETATM   28  C   UNL     1      10.852  30.422  57.414  1.00  0.00     0.000 A 
HETATM   29  C   UNL     1      10.252  29.339  56.778  1.00  0.00     0.002 A 
HETATM   30  C   UNL     1       8.909  29.041  57.026  1.00  0.00     0.029 A 
ENDBRANCH  23  25
ENDBRANCH  21  23
ENDBRANCH  19  21
ENDBRANCH  17  19
ENDBRANCH   1  17
TORSDOF 10
ENDMDL
MODEL 2
REMARK VINA RESULT:      -7.9      3.419      4.650
REMARK  10 active torsions:
REMARK  status: ('A' for Active; 'I' for Inactive)
REMARK    1  A    between atoms: O_2  and  C_3 
REMARK    2  A    between atoms: C_4  and  O_5 
REMARK    3  A    between atoms: O_5  and  C_6 
REMARK    4  A    between atoms: C_6  and  C_7 
REMARK       I    between atoms: C_7  and  N_8 
REMARK    5  A    between atoms: N_8  and  C_9 
REMARK    6  A    between atoms: C_9  and  N_10 
REMARK    7  A    between atoms: N_10  and  N_11 
REMARK    8  A    between atoms: N_11  and  C_12 
REMARK    9  A    between atoms: C_12  and  N_13 
REMARK   10  A    between atoms: N_13  and  C_14 
ROOT
HETATM    1  C   UNL     1       9.020  29.399  57.248  1.00  0.00     0.193 C 
HETATM    2  S   UNL     1      10.589  29.974  57.156  1.00  0.00    -0.039 SA
ENDROOT
BRANCH   1   3
HETATM    3  N   UNL     1       8.498  28.295  56.570  1.00  0.00    -0.301 N 
HETATM    4  C   UNL     1       7.945  27.104  57.056  1.00  0.00     0.248 C 
HETATM    5  O   UNL     1       7.843  26.783  58.235  1.00  0.00    -0.271 OA
HETATM    6  H   UNL     1       8.565  28.351  55.564  1.00  0.00     0.171 HD
BRANCH   4   7
HETATM    7  C   UNL     1       7.474  26.171  55.930  1.00  0.00     0.278 C 
BRANCH   7   8
HETATM    8  O   UNL     1       7.290  24.807  56.298  1.00  0.00    -0.339 OA
BRANCH   8   9
HETATM    9  C   UNL     1       7.554  23.928  55.284  1.00  0.00     0.102 A 
HETATM   10  C   UNL     1       8.207  22.706  55.474  1.00  0.00     0.101 A 
HETATM   11  C   UNL     1       8.397  21.835  54.401  1.00  0.00     0.039 A 
HETATM   12  C   UNL     1       7.985  22.213  53.122  1.00  0.00     0.003 A 
HETATM   13  C   UNL     1       7.380  23.454  52.921  1.00  0.00     0.003 A 
HETATM   14  C   UNL     1       7.169  24.314  54.000  1.00  0.00     0.039 A 
BRANCH  10  15
HETATM   15  O   UNL     1       8.611  22.286  56.714  1.00  0.00    -0.353 OA
HETATM   16  C   UNL     1       8.321  20.895  56.871  1.00  0.00     0.210 C 
ENDBRANCH  10  15
ENDBRANCH   8   9
ENDBRANCH   7   8
ENDBRANCH   4   7
ENDBRANCH   1   3
BRANCH   1  17
HETATM   17  N   UNL     1       8.052  29.960  58.086  1.00  0.00    -0.274 N 
HETATM   18  H   UNL     1       7.498  30.760  57.789  1.00  0.00     0.189 HD
BRANCH  17  19
HETATM   19  N   UNL     1       8.143  29.811  59.485  1.00  0.00    -0.274 N 
HETATM   20  H   UNL     1       7.716  28.961  59.854  1.00  0.00     0.189 HD
BRANCH  19  21
HETATM   21  C   UNL     1       8.253  30.901  60.305  1.00  0.00     0.191 C 
HETATM   22  S   UNL     1       9.466  32.056  60.179  1.00  0.00    -0.039 SA
BRANCH  21  23
HETATM   23  N   UNL     1       7.302  31.076  61.269  1.00  0.00    -0.332 N 
HETATM   24  H   UNL     1       6.561  30.385  61.218  1.00  0.00     0.168 HD
BRANCH  23  25
HETATM   25  C   UNL     1       7.128  32.077  62.247  1.00  0.00     0.034 A 
HETATM   26  C   UNL     1       7.884  32.176  63.416  1.00  0.00     0.029 A 
HETATM   27  C   UNL     1       7.657  33.218  64.322  1.00  0.00     0.002 A 
HETATM   28  C   UNL     1       6.686  34.180  64.057  1.00  0.00     0.000 A 
HETATM   29  C   UNL     1       5.948  34.109  62.880  1.00  0.00     0.002 A 
HETATM   30  C   UNL     1       6.173  33.066  61.977  1.00  0.00     0.029 A 
ENDBRANCH  23  25
ENDBRANCH  21  23
ENDBRANCH  19  21
ENDBRANCH  17  19
ENDBRANCH   1  17
TORSDOF 10
ENDMDL
MODEL 3
REMARK VINA RESULT:      -7.9      1.921      2.570
REMARK  10 active torsions:
REMARK  status: ('A' for Active; 'I' for Inactive)
REMARK    1  A    between atoms: O_2  and  C_3 
REMARK    2  A    between atoms: C_4  and  O_5 
REMARK    3  A    between atoms: O_5  and  C_6 
REMARK    4  A    between atoms: C_6  and  C_7 
REMARK       I    between atoms: C_7  and  N_8 
REMARK    5  A    between atoms: N_8  and  C_9 
REMARK    6  A    between atoms: C_9  and  N_10 
REMARK    7  A    between atoms: N_10  and  N_11 
REMARK    8  A    between atoms: N_11  and  C_12 
REMARK    9  A    between atoms: C_12  and  N_13 
REMARK   10  A    between atoms: N_13  and  C_14 
ROOT
HETATM    1  C   UNL     1       6.749  27.573  55.451  1.00  0.00     0.193 C 
HETATM    2  S   UNL     1       5.879  28.028  54.095  1.00  0.00    -0.039 SA
ENDROOT
BRANCH   1   3
HETATM    3  N   UNL     1       7.222  26.290  55.743  1.00  0.00    -0.301 N 
HETATM    4  C   UNL     1       7.828  25.784  56.898  1.00  0.00     0.248 C 
HETATM    5  O   UNL     1       8.100  26.421  57.910  1.00  0.00    -0.271 OA
HETATM    6  H   UNL     1       7.145  25.633  54.981  1.00  0.00     0.171 HD
BRANCH   4   7
HETATM    7  C   UNL     1       8.167  24.291  56.779  1.00  0.00     0.278 C 
BRANCH   7   8
HETATM    8  O   UNL     1       7.107  23.453  56.326  1.00  0.00    -0.339 OA
BRANCH   8   9
HETATM    9  C   UNL     1       7.462  22.636  55.288  1.00  0.00     0.102 A 
HETATM   10  C   UNL     1       7.465  23.046  53.951  1.00  0.00     0.101 A 
HETATM   11  C   UNL     1       7.888  22.173  52.948  1.00  0.00     0.039 A 
HETATM   12  C   UNL     1       8.254  20.867  53.277  1.00  0.00     0.003 A 
HETATM   13  C   UNL     1       8.203  20.440  54.604  1.00  0.00     0.003 A 
HETATM   14  C   UNL     1       7.801  21.322  55.609  1.00  0.00     0.039 A 
BRANCH  10  15
HETATM   15  O   UNL     1       7.132  24.323  53.585  1.00  0.00    -0.353 OA
HETATM   16  C   UNL     1       8.004  24.769  52.542  1.00  0.00     0.210 C 
ENDBRANCH  10  15
ENDBRANCH   8   9
ENDBRANCH   7   8
ENDBRANCH   4   7
ENDBRANCH   1   3
BRANCH   1  17
HETATM   17  N   UNL     1       7.148  28.477  56.438  1.00  0.00    -0.274 N 
HETATM   18  H   UNL     1       6.480  28.853  57.109  1.00  0.00     0.189 HD
BRANCH  17  19
HETATM   19  N   UNL     1       8.292  29.279  56.254  1.00  0.00    -0.274 N 
HETATM   20  H   UNL     1       8.697  29.240  55.319  1.00  0.00     0.189 HD
BRANCH  19  21
HETATM   21  C   UNL     1       9.101  29.606  57.308  1.00  0.00     0.191 C 
HETATM   22  S   UNL     1      10.692  30.121  57.150  1.00  0.00    -0.039 SA
BRANCH  21  23
HETATM   23  N   UNL     1       8.574  29.537  58.566  1.00  0.00    -0.332 N 
HETATM   24  H   UNL     1       8.219  28.613  58.792  1.00  0.00     0.168 HD
BRANCH  23  25
HETATM   25  C   UNL     1       8.364  30.523  59.552  1.00  0.00     0.034 A 
HETATM   26  C   UNL     1       9.181  30.707  60.670  1.00  0.00     0.029 A 
HETATM   27  C   UNL     1       8.908  31.727  61.587  1.00  0.00     0.002 A 
HETATM   28  C   UNL     1       7.830  32.584  61.386  1.00  0.00     0.000 A 
HETATM   29  C   UNL     1       7.027  32.429  60.259  1.00  0.00     0.002 A 
HETATM   30  C   UNL     1       7.298  31.408  59.345  1.00  0.00     0.029 A 
ENDBRANCH  23  25
ENDBRANCH  21  23
ENDBRANCH  19  21
ENDBRANCH  17  19
ENDBRANCH   1  17
TORSDOF 10
ENDMDL
MODEL 4
REMARK VINA RESULT:      -7.9      3.035      8.421
REMARK  10 active torsions:
REMARK  status: ('A' for Active; 'I' for Inactive)
REMARK    1  A    between atoms: O_2  and  C_3 
REMARK    2  A    between atoms: C_4  and  O_5 
REMARK    3  A    between atoms: O_5  and  C_6 
REMARK    4  A    between atoms: C_6  and  C_7 
REMARK       I    between atoms: C_7  and  N_8 
REMARK    5  A    between atoms: N_8  and  C_9 
REMARK    6  A    between atoms: C_9  and  N_10 
REMARK    7  A    between atoms: N_10  and  N_11 
REMARK    8  A    between atoms: N_11  and  C_12 
REMARK    9  A    between atoms: C_12  and  N_13 
REMARK   10  A    between atoms: N_13  and  C_14 
ROOT
HETATM    1  C   UNL     1       7.254  29.401  55.979  1.00  0.00     0.193 C 
HETATM    2  S   UNL     1       5.595  29.628  55.996  1.00  0.00    -0.039 SA
ENDROOT
BRANCH   1   3
HETATM    3  N   UNL     1       8.161  29.831  56.951  1.00  0.00    -0.301 N 
HETATM    4  C   UNL     1       9.524  30.133  56.856  1.00  0.00     0.248 C 
HETATM    5  O   UNL     1      10.217  30.035  55.848  1.00  0.00    -0.271 OA
HETATM    6  H   UNL     1       7.776  29.900  57.882  1.00  0.00     0.171 HD
BRANCH   4   7
HETATM    7  C   UNL     1      10.120  30.594  58.194  1.00  0.00     0.278 C 
BRANCH   7   8
HETATM    8  O   UNL     1       9.787  31.921  58.591  1.00  0.00    -0.339 OA
BRANCH   8   9
HETATM    9  C   UNL     1       9.008  31.976  59.713  1.00  0.00     0.102 A 
HETATM   10  C   UNL     1       7.616  32.105  59.680  1.00  0.00     0.101 A 
HETATM   11  C   UNL     1       6.880  32.102  60.866  1.00  0.00     0.039 A 
HETATM   12  C   UNL     1       7.544  32.030  62.091  1.00  0.00     0.003 A 
HETATM   13  C   UNL     1       8.936  31.954  62.129  1.00  0.00     0.003 A 
HETATM   14  C   UNL     1       9.669  31.933  60.941  1.00  0.00     0.039 A 
BRANCH  10  15
HETATM   15  O   UNL     1       6.922  32.159  58.501  1.00  0.00    -0.353 OA
HETATM   16  C   UNL     1       5.540  32.414  58.764  1.00  0.00     0.210 C 
ENDBRANCH  10  15
ENDBRANCH   8   9
ENDBRANCH   7   8
ENDBRANCH   4   7
ENDBRANCH   1   3
BRANCH   1  17
HETATM   17  N   UNL     1       7.914  28.687  54.977  1.00  0.00    -0.274 N 
HETATM   18  H   UNL     1       8.929  28.613  54.963  1.00  0.00     0.189 HD
BRANCH  17  19
HETATM   19  N   UNL     1       7.306  28.489  53.720  1.00  0.00    -0.274 N 
HETATM   20  H   UNL     1       6.864  29.318  53.322  1.00  0.00     0.189 HD
BRANCH  19  21
HETATM   21  C   UNL     1       6.848  27.254  53.344  1.00  0.00     0.191 C 
HETATM   22  S   UNL     1       5.237  26.903  53.031  1.00  0.00    -0.039 SA
BRANCH  21  23
HETATM   23  N   UNL     1       7.763  26.253  53.187  1.00  0.00    -0.332 N 
HETATM   24  H   UNL     1       8.541  26.523  52.592  1.00  0.00     0.168 HD
BRANCH  23  25
HETATM   25  C   UNL     1       7.774  24.912  53.625  1.00  0.00     0.034 A 
HETATM   26  C   UNL     1       7.652  24.519  54.959  1.00  0.00     0.029 A 
HETATM   27  C   UNL     1       7.651  23.162  55.301  1.00  0.00     0.002 A 
HETATM   28  C   UNL     1       7.752  22.188  54.312  1.00  0.00     0.000 A 
HETATM   29  C   UNL     1       7.843  22.569  52.976  1.00  0.00     0.002 A 
HETATM   30  C   UNL     1       7.847  23.924  52.635  1.00  0.00     0.029 A 
ENDBRANCH  23  25
ENDBRANCH  21  23
ENDBRANCH  19  21
ENDBRANCH  17  19
ENDBRANCH   1  17
TORSDOF 10
ENDMDL
MODEL 5
REMARK VINA RESULT:      -7.8      1.439      2.475
REMARK  10 active torsions:
REMARK  status: ('A' for Active; 'I' for Inactive)
REMARK    1  A    between atoms: O_2  and  C_3 
REMARK    2  A    between atoms: C_4  and  O_5 
REMARK    3  A    between atoms: O_5  and  C_6 
REMARK    4  A    between atoms: C_6  and  C_7 
REMARK       I    between atoms: C_7  and  N_8 
REMARK    5  A    between atoms: N_8  and  C_9 
REMARK    6  A    between atoms: C_9  and  N_10 
REMARK    7  A    between atoms: N_10  and  N_11 
REMARK    8  A    between atoms: N_11  and  C_12 
REMARK    9  A    between atoms: C_12  and  N_13 
REMARK   10  A    between atoms: N_13  and  C_14 
ROOT
HETATM    1  C   UNL     1       4.296  28.168  54.786  1.00  0.00     0.193 C 
HETATM    2  S   UNL     1       4.218  29.585  53.898  1.00  0.00    -0.039 SA
ENDROOT
BRANCH   1   3
HETATM    3  N   UNL     1       4.783  26.936  54.343  1.00  0.00    -0.301 N 
HETATM    4  C   UNL     1       5.981  26.271  54.635  1.00  0.00     0.248 C 
HETATM    5  O   UNL     1       6.886  26.692  55.347  1.00  0.00    -0.271 OA
HETATM    6  H   UNL     1       4.190  26.466  53.675  1.00  0.00     0.171 HD
BRANCH   4   7
HETATM    7  C   UNL     1       6.085  24.911  53.929  1.00  0.00     0.278 C 
BRANCH   7   8
HETATM    8  O   UNL     1       7.409  24.445  53.684  1.00  0.00    -0.339 OA
BRANCH   8   9
HETATM    9  C   UNL     1       7.602  23.138  54.038  1.00  0.00     0.102 A 
HETATM   10  C   UNL     1       7.664  22.700  55.364  1.00  0.00     0.101 A 
HETATM   11  C   UNL     1       7.812  21.342  55.651  1.00  0.00     0.039 A 
HETATM   12  C   UNL     1       7.958  20.427  54.607  1.00  0.00     0.003 A 
HETATM   13  C   UNL     1       7.949  20.868  53.284  1.00  0.00     0.003 A 
HETATM   14  C   UNL     1       7.777  22.224  52.999  1.00  0.00     0.039 A 
BRANCH  10  15
HETATM   15  O   UNL     1       7.505  23.559  56.419  1.00  0.00    -0.353 OA
HETATM   16  C   UNL     1       8.784  24.016  56.866  1.00  0.00     0.210 C 
ENDBRANCH  10  15
ENDBRANCH   8   9
ENDBRANCH   7   8
ENDBRANCH   4   7
ENDBRANCH   1   3
BRANCH   1  17
HETATM   17  N   UNL     1       3.912  28.089  56.127  1.00  0.00    -0.274 N 
HETATM   18  H   UNL     1       3.037  28.497  56.450  1.00  0.00     0.189 HD
BRANCH  17  19
HETATM   19  N   UNL     1       4.878  27.926  57.140  1.00  0.00    -0.274 N 
HETATM   20  H   UNL     1       4.658  27.208  57.831  1.00  0.00     0.189 HD
BRANCH  19  21
HETATM   21  C   UNL     1       5.702  28.957  57.502  1.00  0.00     0.191 C 
HETATM   22  S   UNL     1       5.256  30.576  57.467  1.00  0.00    -0.039 SA
BRANCH  21  23
HETATM   23  N   UNL     1       6.956  28.649  57.947  1.00  0.00    -0.332 N 
HETATM   24  H   UNL     1       6.960  27.872  58.600  1.00  0.00     0.168 HD
BRANCH  23  25
HETATM   25  C   UNL     1       8.208  29.262  57.730  1.00  0.00     0.034 A 
HETATM   26  C   UNL     1       8.982  29.086  56.582  1.00  0.00     0.029 A 
HETATM   27  C   UNL     1      10.204  29.754  56.441  1.00  0.00     0.002 A 
HETATM   28  C   UNL     1      10.652  30.617  57.437  1.00  0.00     0.000 A 
HETATM   29  C   UNL     1       9.873  30.823  58.572  1.00  0.00     0.002 A 
HETATM   30  C   UNL     1       8.654  30.154  58.713  1.00  0.00     0.029 A 
ENDBRANCH  23  25
ENDBRANCH  21  23
ENDBRANCH  19  21
ENDBRANCH  17  19
ENDBRANCH   1  17
TORSDOF 10
ENDMDL
MODEL 6
REMARK VINA RESULT:      -7.8      2.876      3.885
REMARK  10 active torsions:
REMARK  status: ('A' for Active; 'I' for Inactive)
REMARK    1  A    between atoms: O_2  and  C_3 
REMARK    2  A    between atoms: C_4  and  O_5 
REMARK    3  A    between atoms: O_5  and  C_6 
REMARK    4  A    between atoms: C_6  and  C_7 
REMARK       I    between atoms: C_7  and  N_8 
REMARK    5  A    between atoms: N_8  and  C_9 
REMARK    6  A    between atoms: C_9  and  N_10 
REMARK    7  A    between atoms: N_10  and  N_11 
REMARK    8  A    between atoms: N_11  and  C_12 
REMARK    9  A    between atoms: C_12  and  N_13 
REMARK   10  A    between atoms: N_13  and  C_14 
ROOT
HETATM    1  C   UNL     1       5.852  28.889  57.072  1.00  0.00     0.193 C 
HETATM    2  S   UNL     1       4.950  29.536  55.819  1.00  0.00    -0.039 SA
ENDROOT
BRANCH   1   3
HETATM    3  N   UNL     1       6.260  27.559  57.201  1.00  0.00    -0.301 N 
HETATM    4  C   UNL     1       7.529  27.013  57.429  1.00  0.00     0.248 C 
HETATM    5  O   UNL     1       8.578  27.640  57.527  1.00  0.00    -0.271 OA
HETATM    6  H   UNL     1       5.523  26.880  57.074  1.00  0.00     0.171 HD
BRANCH   4   7
HETATM    7  C   UNL     1       7.502  25.480  57.523  1.00  0.00     0.278 C 
BRANCH   7   8
HETATM    8  O   UNL     1       6.391  24.845  56.896  1.00  0.00    -0.339 OA
BRANCH   8   9
HETATM    9  C   UNL     1       6.657  24.404  55.629  1.00  0.00     0.102 A 
HETATM   10  C   UNL     1       6.165  25.025  54.478  1.00  0.00     0.101 A 
HETATM   11  C   UNL     1       6.521  24.549  53.215  1.00  0.00     0.039 A 
HETATM   12  C   UNL     1       7.323  23.413  53.104  1.00  0.00     0.003 A 
HETATM   13  C   UNL     1       7.773  22.760  54.253  1.00  0.00     0.003 A 
HETATM   14  C   UNL     1       7.436  23.252  55.515  1.00  0.00     0.039 A 
BRANCH  10  15
HETATM   15  O   UNL     1       5.391  26.153  54.538  1.00  0.00    -0.353 OA
HETATM   16  C   UNL     1       4.967  26.519  53.222  1.00  0.00     0.210 C 
ENDBRANCH  10  15
ENDBRANCH   8   9
ENDBRANCH   7   8
ENDBRANCH   4   7
ENDBRANCH   1   3
BRANCH   1  17
HETATM   17  N   UNL     1       6.347  29.657  58.128  1.00  0.00    -0.274 N 
HETATM   18  H   UNL     1       5.744  29.953  58.893  1.00  0.00     0.189 HD
BRANCH  17  19
HETATM   19  N   UNL     1       7.490  30.463  57.953  1.00  0.00    -0.274 N 
HETATM   20  H   UNL     1       7.942  30.374  57.043  1.00  0.00     0.189 HD
BRANCH  19  21
HETATM   21  C   UNL     1       8.243  30.863  59.024  1.00  0.00     0.191 C 
HETATM   22  S   UNL     1       9.751  31.590  58.897  1.00  0.00    -0.039 SA
BRANCH  21  23
HETATM   23  N   UNL     1       7.722  30.687  60.274  1.00  0.00    -0.332 N 
HETATM   24  H   UNL     1       7.364  29.748  60.420  1.00  0.00     0.168 HD
BRANCH  23  25
HETATM   25  C   UNL     1       7.523  31.583  61.345  1.00  0.00     0.034 A 
HETATM   26  C   UNL     1       8.287  31.598  62.513  1.00  0.00     0.029 A 
HETATM   27  C   UNL     1       8.032  32.540  63.516  1.00  0.00     0.002 A 
HETATM   28  C   UNL     1       7.024  33.486  63.351  1.00  0.00     0.000 A 
HETATM   29  C   UNL     1       6.276  33.500  62.177  1.00  0.00     0.002 A 
HETATM   30  C   UNL     1       6.530  32.557  61.177  1.00  0.00     0.029 A 
ENDBRANCH  23  25
ENDBRANCH  21  23
ENDBRANCH  19  21
ENDBRANCH  17  19
ENDBRANCH   1  17
TORSDOF 10
ENDMDL
MODEL 7
REMARK VINA RESULT:      -7.7      2.807      8.188
REMARK  10 active torsions:
REMARK  status: ('A' for Active; 'I' for Inactive)
REMARK    1  A    between atoms: O_2  and  C_3 
REMARK    2  A    between atoms: C_4  and  O_5 
REMARK    3  A    between atoms: O_5  and  C_6 
REMARK    4  A    between atoms: C_6  and  C_7 
REMARK       I    between atoms: C_7  and  N_8 
REMARK    5  A    between atoms: N_8  and  C_9 
REMARK    6  A    between atoms: C_9  and  N_10 
REMARK    7  A    between atoms: N_10  and  N_11 
REMARK    8  A    between atoms: N_11  and  C_12 
REMARK    9  A    between atoms: C_12  and  N_13 
REMARK   10  A    between atoms: N_13  and  C_14 
ROOT
HETATM    1  C   UNL     1       6.322  27.912  57.343  1.00  0.00     0.193 C 
HETATM    2  S   UNL     1       7.763  27.099  57.089  1.00  0.00    -0.039 SA
ENDROOT
BRANCH   1   3
HETATM    3  N   UNL     1       6.174  29.185  57.900  1.00  0.00    -0.301 N 
HETATM    4  C   UNL     1       5.777  30.394  57.317  1.00  0.00     0.248 C 
HETATM    5  O   UNL     1       5.506  30.571  56.134  1.00  0.00    -0.271 OA
HETATM    6  H   UNL     1       6.429  29.248  58.875  1.00  0.00     0.171 HD
BRANCH   4   7
HETATM    7  C   UNL     1       5.735  31.549  58.329  1.00  0.00     0.278 C 
BRANCH   7   8
HETATM    8  O   UNL     1       6.966  32.237  58.529  1.00  0.00    -0.339 OA
BRANCH   8   9
HETATM    9  C   UNL     1       7.582  31.920  59.709  1.00  0.00     0.102 A 
HETATM   10  C   UNL     1       8.548  30.917  59.828  1.00  0.00     0.101 A 
HETATM   11  C   UNL     1       9.173  30.683  61.054  1.00  0.00     0.039 A 
HETATM   12  C   UNL     1       8.787  31.415  62.177  1.00  0.00     0.003 A 
HETATM   13  C   UNL     1       7.786  32.382  62.072  1.00  0.00     0.003 A 
HETATM   14  C   UNL     1       7.180  32.630  60.840  1.00  0.00     0.039 A 
BRANCH  10  15
HETATM   15  O   UNL     1       8.972  30.187  58.749  1.00  0.00    -0.353 OA
HETATM   16  C   UNL     1      10.079  30.844  58.126  1.00  0.00     0.210 C 
ENDBRANCH  10  15
ENDBRANCH   8   9
ENDBRANCH   7   8
ENDBRANCH   4   7
ENDBRANCH   1   3
BRANCH   1  17
HETATM   17  N   UNL     1       5.081  27.397  56.962  1.00  0.00    -0.274 N 
HETATM   18  H   UNL     1       4.682  26.584  57.428  1.00  0.00     0.189 HD
BRANCH  17  19
HETATM   19  N   UNL     1       4.583  27.616  55.662  1.00  0.00    -0.274 N 
HETATM   20  H   UNL     1       3.578  27.780  55.609  1.00  0.00     0.189 HD
BRANCH  19  21
HETATM   21  C   UNL     1       5.224  27.105  54.565  1.00  0.00     0.191 C 
HETATM   22  S   UNL     1       6.151  28.020  53.505  1.00  0.00    -0.039 SA
BRANCH  21  23
HETATM   23  N   UNL     1       5.127  25.764  54.334  1.00  0.00    -0.332 N 
HETATM   24  H   UNL     1       4.171  25.426  54.377  1.00  0.00     0.168 HD
BRANCH  23  25
HETATM   25  C   UNL     1       6.109  24.770  54.135  1.00  0.00     0.034 A 
HETATM   26  C   UNL     1       6.603  24.390  52.886  1.00  0.00     0.029 A 
HETATM   27  C   UNL     1       7.596  23.409  52.785  1.00  0.00     0.002 A 
HETATM   28  C   UNL     1       8.116  22.814  53.931  1.00  0.00     0.000 A 
HETATM   29  C   UNL     1       7.652  23.208  55.183  1.00  0.00     0.002 A 
HETATM   30  C   UNL     1       6.659  24.186  55.284  1.00  0.00     0.029 A 
ENDBRANCH  23  25
ENDBRANCH  21  23
ENDBRANCH  19  21
ENDBRANCH  17  19
ENDBRANCH   1  17
TORSDOF 10
ENDMDL
MODEL 8
REMARK VINA RESULT:      -7.5      1.895      2.471
REMARK  10 active torsions:
REMARK  status: ('A' for Active; 'I' for Inactive)
REMARK    1  A    between atoms: O_2  and  C_3 
REMARK    2  A    between atoms: C_4  and  O_5 
REMARK    3  A    between atoms: O_5  and  C_6 
REMARK    4  A    between atoms: C_6  and  C_7 
REMARK       I    between atoms: C_7  and  N_8 
REMARK    5  A    between atoms: N_8  and  C_9 
REMARK    6  A    between atoms: C_9  and  N_10 
REMARK    7  A    between atoms: N_10  and  N_11 
REMARK    8  A    between atoms: N_11  and  C_12 
REMARK    9  A    between atoms: C_12  and  N_13 
REMARK   10  A    between atoms: N_13  and  C_14 
ROOT
HETATM    1  C   UNL     1       5.104  28.184  56.636  1.00  0.00     0.193 C 
HETATM    2  S   UNL     1       4.269  28.692  55.277  1.00  0.00    -0.039 SA
ENDROOT
BRANCH   1   3
HETATM    3  N   UNL     1       6.028  27.137  56.700  1.00  0.00    -0.301 N 
HETATM    4  C   UNL     1       7.233  27.027  57.404  1.00  0.00     0.248 C 
HETATM    5  O   UNL     1       7.742  27.895  58.106  1.00  0.00    -0.271 OA
HETATM    6  H   UNL     1       5.806  26.346  56.114  1.00  0.00     0.171 HD
BRANCH   4   7
HETATM    7  C   UNL     1       7.916  25.669  57.192  1.00  0.00     0.278 C 
BRANCH   7   8
HETATM    8  O   UNL     1       7.058  24.604  56.791  1.00  0.00    -0.339 OA
BRANCH   8   9
HETATM    9  C   UNL     1       7.418  24.032  55.602  1.00  0.00     0.102 A 
HETATM   10  C   UNL     1       6.871  24.404  54.371  1.00  0.00     0.101 A 
HETATM   11  C   UNL     1       7.323  23.812  53.191  1.00  0.00     0.039 A 
HETATM   12  C   UNL     1       8.284  22.802  53.249  1.00  0.00     0.003 A 
HETATM   13  C   UNL     1       8.794  22.392  54.481  1.00  0.00     0.003 A 
HETATM   14  C   UNL     1       8.357  23.002  55.658  1.00  0.00     0.039 A 
BRANCH  10  15
HETATM   15  O   UNL     1       5.940  25.404  54.265  1.00  0.00    -0.353 OA
HETATM   16  C   UNL     1       4.897  25.000  53.374  1.00  0.00     0.210 C 
ENDBRANCH  10  15
ENDBRANCH   8   9
ENDBRANCH   7   8
ENDBRANCH   4   7
ENDBRANCH   1   3
BRANCH   1  17
HETATM   17  N   UNL     1       4.992  28.814  57.878  1.00  0.00    -0.274 N 
HETATM   18  H   UNL     1       4.875  28.275  58.734  1.00  0.00     0.189 HD
BRANCH  17  19
HETATM   19  N   UNL     1       4.531  30.143  57.967  1.00  0.00    -0.274 N 
HETATM   20  H   UNL     1       3.591  30.296  57.603  1.00  0.00     0.189 HD
BRANCH  19  21
HETATM   21  C   UNL     1       5.408  31.194  57.987  1.00  0.00     0.191 C 
HETATM   22  S   UNL     1       4.962  32.797  57.759  1.00  0.00    -0.039 SA
BRANCH  21  23
HETATM   23  N   UNL     1       6.723  30.927  58.236  1.00  0.00    -0.332 N 
HETATM   24  H   UNL     1       7.113  30.245  57.593  1.00  0.00     0.168 HD
BRANCH  23  25
HETATM   25  C   UNL     1       7.593  31.358  59.260  1.00  0.00     0.034 A 
HETATM   26  C   UNL     1       7.196  31.619  60.573  1.00  0.00     0.029 A 
HETATM   27  C   UNL     1       8.134  32.022  61.530  1.00  0.00     0.002 A 
HETATM   28  C   UNL     1       9.477  32.148  61.188  1.00  0.00     0.000 A 
HETATM   29  C   UNL     1       9.888  31.861  59.890  1.00  0.00     0.002 A 
HETATM   30  C   UNL     1       8.951  31.461  58.933  1.00  0.00     0.029 A 
ENDBRANCH  23  25
ENDBRANCH  21  23
ENDBRANCH  19  21
ENDBRANCH  17  19
ENDBRANCH   1  17
TORSDOF 10
ENDMDL
MODEL 9
REMARK VINA RESULT:      -7.5      4.506      7.222
REMARK  10 active torsions:
REMARK  status: ('A' for Active; 'I' for Inactive)
REMARK    1  A    between atoms: O_2  and  C_3 
REMARK    2  A    between atoms: C_4  and  O_5 
REMARK    3  A    between atoms: O_5  and  C_6 
REMARK    4  A    between atoms: C_6  and  C_7 
REMARK       I    between atoms: C_7  and  N_8 
REMARK    5  A    between atoms: N_8  and  C_9 
REMARK    6  A    between atoms: C_9  and  N_10 
REMARK    7  A    between atoms: N_10  and  N_11 
REMARK    8  A    between atoms: N_11  and  C_12 
REMARK    9  A    between atoms: C_12  and  N_13 
REMARK   10  A    between atoms: N_13  and  C_14 
ROOT
HETATM    1  C   UNL     1       4.083  27.828  53.776  1.00  0.00     0.193 C 
HETATM    2  S   UNL     1       4.622  29.234  54.508  1.00  0.00    -0.039 SA
ENDROOT
BRANCH   1   3
HETATM    3  N   UNL     1       4.642  26.555  53.911  1.00  0.00    -0.301 N 
HETATM    4  C   UNL     1       5.292  25.741  52.975  1.00  0.00     0.248 C 
HETATM    5  O   UNL     1       5.467  26.002  51.789  1.00  0.00    -0.271 OA
HETATM    6  H   UNL     1       4.526  26.141  54.824  1.00  0.00     0.171 HD
BRANCH   4   7
HETATM    7  C   UNL     1       5.769  24.413  53.580  1.00  0.00     0.278 C 
BRANCH   7   8
HETATM    8  O   UNL     1       7.181  24.251  53.672  1.00  0.00    -0.339 OA
BRANCH   8   9
HETATM    9  C   UNL     1       7.564  22.979  53.999  1.00  0.00     0.102 A 
HETATM   10  C   UNL     1       7.752  22.545  55.314  1.00  0.00     0.101 A 
HETATM   11  C   UNL     1       8.093  21.217  55.576  1.00  0.00     0.039 A 
HETATM   12  C   UNL     1       8.306  20.336  54.515  1.00  0.00     0.003 A 
HETATM   13  C   UNL     1       8.171  20.781  53.199  1.00  0.00     0.003 A 
HETATM   14  C   UNL     1       7.806  22.103  52.940  1.00  0.00     0.039 A 
BRANCH  10  15
HETATM   15  O   UNL     1       7.534  23.369  56.387  1.00  0.00    -0.353 OA
HETATM   16  C   UNL     1       8.766  23.977  56.786  1.00  0.00     0.210 C 
ENDBRANCH  10  15
ENDBRANCH   8   9
ENDBRANCH   7   8
ENDBRANCH   4   7
ENDBRANCH   1   3
BRANCH   1  17
HETATM   17  N   UNL     1       2.945  27.780  52.968  1.00  0.00    -0.274 N 
HETATM   18  H   UNL     1       2.492  26.895  52.748  1.00  0.00     0.189 HD
BRANCH  17  19
HETATM   19  N   UNL     1       2.682  28.807  52.039  1.00  0.00    -0.274 N 
HETATM   20  H   UNL     1       1.709  29.112  52.001  1.00  0.00     0.189 HD
BRANCH  19  21
HETATM   21  C   UNL     1       3.467  28.973  50.929  1.00  0.00     0.191 C 
HETATM   22  S   UNL     1       4.050  30.457  50.403  1.00  0.00    -0.039 SA
BRANCH  21  23
HETATM   23  N   UNL     1       3.820  27.860  50.223  1.00  0.00    -0.332 N 
HETATM   24  H   UNL     1       4.683  27.442  50.556  1.00  0.00     0.168 HD
BRANCH  23  25
HETATM   25  C   UNL     1       3.256  27.252  49.082  1.00  0.00     0.034 A 
HETATM   26  C   UNL     1       3.788  26.130  48.443  1.00  0.00     0.029 A 
HETATM   27  C   UNL     1       3.147  25.579  47.328  1.00  0.00     0.002 A 
HETATM   28  C   UNL     1       1.960  26.132  46.854  1.00  0.00     0.000 A 
HETATM   29  C   UNL     1       1.405  27.232  47.503  1.00  0.00     0.002 A 
HETATM   30  C   UNL     1       2.047  27.783  48.615  1.00  0.00     0.029 A 
ENDBRANCH  23  25
ENDBRANCH  21  23
ENDBRANCH  19  21
ENDBRANCH  17  19
ENDBRANCH   1  17
TORSDOF 10
ENDMDL
MODEL 10
REMARK VINA RESULT:      -7.5      3.049      8.999
REMARK  10 active torsions:
REMARK  status: ('A' for Active; 'I' for Inactive)
REMARK    1  A    between atoms: O_2  and  C_3 
REMARK    2  A    between atoms: C_4  and  O_5 
REMARK    3  A    between atoms: O_5  and  C_6 
REMARK    4  A    between atoms: C_6  and  C_7 
REMARK       I    between atoms: C_7  and  N_8 
REMARK    5  A    between atoms: N_8  and  C_9 
REMARK    6  A    between atoms: C_9  and  N_10 
REMARK    7  A    between atoms: N_10  and  N_11 
REMARK    8  A    between atoms: N_11  and  C_12 
REMARK    9  A    between atoms: C_12  and  N_13 
REMARK   10  A    between atoms: N_13  and  C_14 
ROOT
HETATM    1  C   UNL     1       6.804  28.273  55.530  1.00  0.00     0.193 C 
HETATM    2  S   UNL     1       5.552  28.504  54.442  1.00  0.00    -0.039 SA
ENDROOT
BRANCH   1   3
HETATM    3  N   UNL     1       7.308  29.216  56.429  1.00  0.00    -0.301 N 
HETATM    4  C   UNL     1       7.829  29.058  57.719  1.00  0.00     0.248 C 
HETATM    5  O   UNL     1       7.909  28.004  58.341  1.00  0.00    -0.271 OA
HETATM    6  H   UNL     1       7.253  30.171  56.108  1.00  0.00     0.171 HD
BRANCH   4   7
HETATM    7  C   UNL     1       8.290  30.387  58.334  1.00  0.00     0.278 C 
BRANCH   7   8
HETATM    8  O   UNL     1       7.272  31.162  58.959  1.00  0.00    -0.339 OA
BRANCH   8   9
HETATM    9  C   UNL     1       7.589  31.559  60.229  1.00  0.00     0.102 A 
HETATM   10  C   UNL     1       6.670  32.139  61.108  1.00  0.00     0.101 A 
HETATM   11  C   UNL     1       7.052  32.472  62.408  1.00  0.00     0.039 A 
HETATM   12  C   UNL     1       8.374  32.278  62.811  1.00  0.00     0.003 A 
HETATM   13  C   UNL     1       9.306  31.748  61.919  1.00  0.00     0.003 A 
HETATM   14  C   UNL     1       8.916  31.393  60.627  1.00  0.00     0.039 A 
BRANCH  10  15
HETATM   15  O   UNL     1       5.358  32.330  60.762  1.00  0.00    -0.353 OA
HETATM   16  C   UNL     1       4.596  32.669  61.923  1.00  0.00     0.210 C 
ENDBRANCH  10  15
ENDBRANCH   8   9
ENDBRANCH   7   8
ENDBRANCH   4   7
ENDBRANCH   1   3
BRANCH   1  17
HETATM   17  N   UNL     1       7.459  27.049  55.686  1.00  0.00    -0.274 N 
HETATM   18  H   UNL     1       8.236  26.786  55.083  1.00  0.00     0.189 HD
BRANCH  17  19
HETATM   19  N   UNL     1       6.801  25.955  56.284  1.00  0.00    -0.274 N 
HETATM   20  H   UNL     1       6.034  26.206  56.909  1.00  0.00     0.189 HD
BRANCH  19  21
HETATM   21  C   UNL     1       7.446  24.764  56.479  1.00  0.00     0.191 C 
HETATM   22  S   UNL     1       8.874  24.597  57.347  1.00  0.00    -0.039 SA
BRANCH  21  23
HETATM   23  N   UNL     1       6.879  23.636  55.960  1.00  0.00    -0.332 N 
HETATM   24  H   UNL     1       5.910  23.520  56.240  1.00  0.00     0.168 HD
BRANCH  23  25
HETATM   25  C   UNL     1       7.415  22.583  55.189  1.00  0.00     0.034 A 
HETATM   26  C   UNL     1       7.770  21.333  55.702  1.00  0.00     0.029 A 
HETATM   27  C   UNL     1       8.274  20.338  54.858  1.00  0.00     0.002 A 
HETATM   28  C   UNL     1       8.410  20.576  53.493  1.00  0.00     0.000 A 
HETATM   29  C   UNL     1       8.030  21.808  52.967  1.00  0.00     0.002 A 
HETATM   30  C   UNL     1       7.530  22.803  53.811  1.00  0.00     0.029 A 
ENDBRANCH  23  25
ENDBRANCH  21  23
ENDBRANCH  19  21
ENDBRANCH  17  19
ENDBRANCH   1  17
TORSDOF 10
ENDMDL
