MODEL 1
REMARK VINA RESULT:     -10.2      0.000      0.000
REMARK  6 active torsions:
REMARK  status: ('A' for Active; 'I' for Inactive)
REMARK    1  A    between atoms: C_5  and  O_6 
REMARK    2  A    between atoms: O_6  and  C_7 
REMARK    3  A    between atoms: C_7  and  C_8 
REMARK       I    between atoms: C_8  and  N_9 
REMARK    4  A    between atoms: N_9  and  C_10 
REMARK    5  A    between atoms: C_10  and  C_11 
REMARK       I    between atoms: C_11  and  N_12 
REMARK    6  A    between atoms: N_12  and  N_13 
ROOT
HETATM    1  C   UNL     1       7.367  28.495  57.555  1.00  0.00     0.255 C 
HETATM    2  N   UNL     1       6.543  27.753  56.723  1.00  0.00    -0.245 N 
HETATM    3  O   UNL     1       8.342  28.059  58.165  1.00  0.00    -0.270 OA
HETATM    4  H   UNL     1       5.802  28.202  56.179  1.00  0.00     0.192 HD
ENDROOT
BRANCH   1   5
HETATM    5  C   UNL     1       6.900  29.943  57.718  1.00  0.00     0.227 C 
BRANCH   5   6
HETATM    6  N   UNL     1       8.021  30.794  58.088  1.00  0.00    -0.350 N 
HETATM    7  C   UNL     1       8.110  31.668  59.133  1.00  0.00     0.242 C 
HETATM    8  O   UNL     1       9.086  32.416  59.212  1.00  0.00    -0.271 OA
HETATM    9  H   UNL     1       8.737  30.924  57.378  1.00  0.00     0.163 HD
BRANCH   7  10
HETATM   10  C   UNL     1       7.032  31.636  60.213  1.00  0.00     0.278 C 
BRANCH  10  11
HETATM   11  O   UNL     1       7.621  31.245  61.451  1.00  0.00    -0.342 OA
BRANCH  11  12
HETATM   12  C   UNL     1       7.202  31.985  62.523  1.00  0.00     0.069 A 
HETATM   13  C   UNL     1       5.827  32.025  62.743  1.00  0.00     0.037 A 
HETATM   14  C   UNL     1       5.307  32.731  63.831  1.00  0.00     0.009 A 
HETATM   15  C   UNL     1       6.163  33.395  64.716  1.00  0.00    -0.062 A 
HETATM   16  C   UNL     1       5.615  34.124  65.907  1.00  0.00     0.048 C 
HETATM   17  C   UNL     1       7.546  33.317  64.511  1.00  0.00     0.009 A 
HETATM   18  C   UNL     1       8.065  32.615  63.420  1.00  0.00     0.037 A 
ENDBRANCH  11  12
ENDBRANCH  10  11
ENDBRANCH   7  10
ENDBRANCH   5   6
ENDBRANCH   1   5
BRANCH   2  19
HETATM   19  N   UNL     1       6.785  26.421  56.530  1.00  0.00    -0.166 NA
HETATM   20  C   UNL     1       7.101  26.059  55.328  1.00  0.00     0.157 A 
HETATM   21  C   UNL     1       7.246  26.933  54.079  1.00  0.00     0.277 A 
HETATM   22  C   UNL     1       7.396  24.698  54.900  1.00  0.00     0.028 A 
HETATM   23  O   UNL     1       7.047  28.129  54.049  1.00  0.00    -0.266 OA
HETATM   24  N   UNL     1       7.621  26.075  53.068  1.00  0.00    -0.321 N 
HETATM   25  C   UNL     1       7.705  24.768  53.542  1.00  0.00     0.048 A 
HETATM   26  H   UNL     1       7.792  26.377  52.120  1.00  0.00     0.169 HD
HETATM   27  C   UNL     1       8.034  23.638  52.824  1.00  0.00     0.032 A 
HETATM   28  C   UNL     1       8.042  22.420  53.515  1.00  0.00     0.021 A 
HETATM   29  C   UNL     1       7.724  22.363  54.889  1.00  0.00     0.012 A 
HETATM   30 BR   UNL     1       7.741  20.690  55.773  1.00  0.00    -0.051 Br
HETATM   31  C   UNL     1       7.396  23.513  55.607  1.00  0.00     0.035 A 
ENDBRANCH   2  19
TORSDOF 6
ENDMDL
MODEL 2
REMARK VINA RESULT:     -10.2      1.817      3.081
REMARK  6 active torsions:
REMARK  status: ('A' for Active; 'I' for Inactive)
REMARK    1  A    between atoms: C_5  and  O_6 
REMARK    2  A    between atoms: O_6  and  C_7 
REMARK    3  A    between atoms: C_7  and  C_8 
REMARK       I    between atoms: C_8  and  N_9 
REMARK    4  A    between atoms: N_9  and  C_10 
REMARK    5  A    between atoms: C_10  and  C_11 
REMARK       I    between atoms: C_11  and  N_12 
REMARK    6  A    between atoms: N_12  and  N_13 
ROOT
HETATM    1  C   UNL     1       7.553  28.031  54.930  1.00  0.00     0.255 C 
HETATM    2  N   UNL     1       7.569  26.901  55.733  1.00  0.00    -0.245 N 
HETATM    3  O   UNL     1       7.623  28.033  53.702  1.00  0.00    -0.270 OA
HETATM    4  H   UNL     1       7.419  26.971  56.742  1.00  0.00     0.192 HD
ENDROOT
BRANCH   1   5
HETATM    5  C   UNL     1       7.519  29.332  55.734  1.00  0.00     0.227 C 
BRANCH   5   6
HETATM    6  N   UNL     1       8.766  29.506  56.461  1.00  0.00    -0.350 N 
HETATM    7  C   UNL     1       8.957  30.076  57.688  1.00  0.00     0.242 C 
HETATM    8  O   UNL     1      10.105  30.269  58.091  1.00  0.00    -0.271 OA
HETATM    9  H   UNL     1       9.620  29.396  55.920  1.00  0.00     0.163 HD
BRANCH   7  10
HETATM   10  C   UNL     1       7.739  30.383  58.554  1.00  0.00     0.278 C 
BRANCH  10  11
HETATM   11  O   UNL     1       7.696  31.783  58.823  1.00  0.00    -0.342 OA
BRANCH  11  12
HETATM   12  C   UNL     1       7.589  32.090  60.152  1.00  0.00     0.069 A 
HETATM   13  C   UNL     1       8.714  31.838  60.933  1.00  0.00     0.037 A 
HETATM   14  C   UNL     1       8.709  32.146  62.296  1.00  0.00     0.009 A 
HETATM   15  C   UNL     1       7.580  32.722  62.886  1.00  0.00    -0.062 A 
HETATM   16  C   UNL     1       7.580  33.091  64.340  1.00  0.00     0.048 C 
HETATM   17  C   UNL     1       6.468  33.010  62.086  1.00  0.00     0.009 A 
HETATM   18  C   UNL     1       6.471  32.697  60.724  1.00  0.00     0.037 A 
ENDBRANCH  11  12
ENDBRANCH  10  11
ENDBRANCH   7  10
ENDBRANCH   5   6
ENDBRANCH   1   5
BRANCH   2  19
HETATM   19  N   UNL     1       7.669  25.660  55.168  1.00  0.00    -0.166 NA
HETATM   20  C   UNL     1       7.937  24.679  55.968  1.00  0.00     0.157 A 
HETATM   21  C   UNL     1       8.154  24.721  57.484  1.00  0.00     0.277 A 
HETATM   22  C   UNL     1       8.090  23.283  55.581  1.00  0.00     0.028 A 
HETATM   23  O   UNL     1       8.129  25.732  58.155  1.00  0.00    -0.266 OA
HETATM   24  N   UNL     1       8.381  23.416  57.862  1.00  0.00    -0.321 N 
HETATM   25  C   UNL     1       8.350  22.573  56.754  1.00  0.00     0.048 A 
HETATM   26  H   UNL     1       8.557  23.138  58.816  1.00  0.00     0.169 HD
HETATM   27  C   UNL     1       8.548  21.209  56.735  1.00  0.00     0.032 A 
HETATM   28  C   UNL     1       8.482  20.569  55.490  1.00  0.00     0.021 A 
HETATM   29  C   UNL     1       8.222  21.300  54.312  1.00  0.00     0.012 A 
HETATM   30 BR   UNL     1       8.151  20.388  52.655  1.00  0.00    -0.051 Br
HETATM   31  C   UNL     1       8.019  22.680  54.343  1.00  0.00     0.035 A 
ENDBRANCH   2  19
TORSDOF 6
ENDMDL
MODEL 3
REMARK VINA RESULT:     -10.0      3.596     10.700
REMARK  6 active torsions:
REMARK  status: ('A' for Active; 'I' for Inactive)
REMARK    1  A    between atoms: C_5  and  O_6 
REMARK    2  A    between atoms: O_6  and  C_7 
REMARK    3  A    between atoms: C_7  and  C_8 
REMARK       I    between atoms: C_8  and  N_9 
REMARK    4  A    between atoms: N_9  and  C_10 
REMARK    5  A    between atoms: C_10  and  C_11 
REMARK       I    between atoms: C_11  and  N_12 
REMARK    6  A    between atoms: N_12  and  N_13 
ROOT
HETATM    1  C   UNL     1       6.062  30.239  57.315  1.00  0.00     0.255 C 
HETATM    2  N   UNL     1       7.017  31.116  57.805  1.00  0.00    -0.245 N 
HETATM    3  O   UNL     1       4.913  30.127  57.741  1.00  0.00    -0.270 OA
HETATM    4  H   UNL     1       7.925  31.215  57.344  1.00  0.00     0.192 HD
ENDROOT
BRANCH   1   5
HETATM    5  C   UNL     1       6.598  29.330  56.208  1.00  0.00     0.227 C 
BRANCH   5   6
HETATM    6  N   UNL     1       7.707  28.531  56.706  1.00  0.00    -0.350 N 
HETATM    7  C   UNL     1       7.798  27.170  56.788  1.00  0.00     0.242 C 
HETATM    8  O   UNL     1       8.757  26.665  57.373  1.00  0.00    -0.271 OA
HETATM    9  H   UNL     1       8.403  29.025  57.258  1.00  0.00     0.163 HD
BRANCH   7  10
HETATM   10  C   UNL     1       6.746  26.319  56.084  1.00  0.00     0.278 C 
BRANCH  10  11
HETATM   11  O   UNL     1       7.138  26.115  54.729  1.00  0.00    -0.342 OA
BRANCH  11  12
HETATM   12  C   UNL     1       7.334  24.803  54.397  1.00  0.00     0.069 A 
HETATM   13  C   UNL     1       7.626  24.544  53.060  1.00  0.00     0.037 A 
HETATM   14  C   UNL     1       7.871  23.236  52.632  1.00  0.00     0.009 A 
HETATM   15  C   UNL     1       7.836  22.176  53.544  1.00  0.00    -0.062 A 
HETATM   16  C   UNL     1       8.134  20.775  53.100  1.00  0.00     0.048 C 
HETATM   17  C   UNL     1       7.581  22.450  54.893  1.00  0.00     0.009 A 
HETATM   18  C   UNL     1       7.331  23.757  55.320  1.00  0.00     0.037 A 
ENDBRANCH  11  12
ENDBRANCH  10  11
ENDBRANCH   7  10
ENDBRANCH   5   6
ENDBRANCH   1   5
BRANCH   2  19
HETATM   19  N   UNL     1       6.714  31.947  58.847  1.00  0.00    -0.166 NA
HETATM   20  C   UNL     1       7.295  31.695  59.976  1.00  0.00     0.157 A 
HETATM   21  C   UNL     1       8.292  30.581  60.304  1.00  0.00     0.277 A 
HETATM   22  C   UNL     1       7.116  32.449  61.210  1.00  0.00     0.028 A 
HETATM   23  O   UNL     1       8.662  29.735  59.518  1.00  0.00    -0.266 OA
HETATM   24  N   UNL     1       8.629  30.763  61.627  1.00  0.00    -0.321 N 
HETATM   25  C   UNL     1       7.941  31.850  62.163  1.00  0.00     0.048 A 
HETATM   26  H   UNL     1       9.279  30.169  62.121  1.00  0.00     0.169 HD
HETATM   27  C   UNL     1       8.006  32.327  63.454  1.00  0.00     0.032 A 
HETATM   28  C   UNL     1       7.207  33.434  63.769  1.00  0.00     0.021 A 
HETATM   29  C   UNL     1       6.375  34.027  62.797  1.00  0.00     0.012 A 
HETATM   30 BR   UNL     1       5.308  35.515  63.277  1.00  0.00    -0.051 Br
HETATM   31  C   UNL     1       6.319  33.538  61.491  1.00  0.00     0.035 A 
ENDBRANCH   2  19
TORSDOF 6
ENDMDL
MODEL 4
REMARK VINA RESULT:      -9.7      3.719     10.968
REMARK  6 active torsions:
REMARK  status: ('A' for Active; 'I' for Inactive)
REMARK    1  A    between atoms: C_5  and  O_6 
REMARK    2  A    between atoms: O_6  and  C_7 
REMARK    3  A    between atoms: C_7  and  C_8 
REMARK       I    between atoms: C_8  and  N_9 
REMARK    4  A    between atoms: N_9  and  C_10 
REMARK    5  A    between atoms: C_10  and  C_11 
REMARK       I    between atoms: C_11  and  N_12 
REMARK    6  A    between atoms: N_12  and  N_13 
ROOT
HETATM    1  C   UNL     1       6.265  30.919  57.669  1.00  0.00     0.255 C 
HETATM    2  N   UNL     1       6.905  31.005  58.895  1.00  0.00    -0.245 N 
HETATM    3  O   UNL     1       5.328  31.627  57.303  1.00  0.00    -0.270 OA
HETATM    4  H   UNL     1       7.735  30.441  59.097  1.00  0.00     0.192 HD
ENDROOT
BRANCH   1   5
HETATM    5  C   UNL     1       6.790  29.773  56.802  1.00  0.00     0.227 C 
BRANCH   5   6
HETATM    6  N   UNL     1       7.264  28.684  57.642  1.00  0.00    -0.350 N 
HETATM    7  C   UNL     1       7.551  27.398  57.278  1.00  0.00     0.242 C 
HETATM    8  O   UNL     1       7.805  26.568  58.151  1.00  0.00    -0.271 OA
HETATM    9  H   UNL     1       7.166  28.816  58.645  1.00  0.00     0.163 HD
BRANCH   7  10
HETATM   10  C   UNL     1       7.625  27.053  55.794  1.00  0.00     0.278 C 
BRANCH  10  11
HETATM   11  O   UNL     1       6.589  26.127  55.476  1.00  0.00    -0.342 OA
BRANCH  11  12
HETATM   12  C   UNL     1       7.030  24.991  54.854  1.00  0.00     0.069 A 
HETATM   13  C   UNL     1       7.087  23.843  55.641  1.00  0.00     0.037 A 
HETATM   14  C   UNL     1       7.498  22.628  55.086  1.00  0.00     0.009 A 
HETATM   15  C   UNL     1       7.845  22.550  53.733  1.00  0.00    -0.062 A 
HETATM   16  C   UNL     1       8.251  21.243  53.121  1.00  0.00     0.048 C 
HETATM   17  C   UNL     1       7.747  23.700  52.940  1.00  0.00     0.009 A 
HETATM   18  C   UNL     1       7.341  24.916  53.497  1.00  0.00     0.037 A 
ENDBRANCH  11  12
ENDBRANCH  10  11
ENDBRANCH   7  10
ENDBRANCH   5   6
ENDBRANCH   1   5
BRANCH   2  19
HETATM   19  N   UNL     1       6.503  31.934  59.814  1.00  0.00    -0.166 NA
HETATM   20  C   UNL     1       7.123  31.931  60.950  1.00  0.00     0.157 A 
HETATM   21  C   UNL     1       8.265  31.019  61.407  1.00  0.00     0.277 A 
HETATM   22  C   UNL     1       6.857  32.829  62.066  1.00  0.00     0.028 A 
HETATM   23  O   UNL     1       8.738  30.122  60.741  1.00  0.00    -0.266 OA
HETATM   24  N   UNL     1       8.588  31.438  62.679  1.00  0.00    -0.321 N 
HETATM   25  C   UNL     1       7.765  32.492  63.071  1.00  0.00     0.048 A 
HETATM   26  H   UNL     1       9.316  31.014  63.235  1.00  0.00     0.169 HD
HETATM   27  C   UNL     1       7.777  33.159  64.277  1.00  0.00     0.032 A 
HETATM   28  C   UNL     1       6.839  34.185  64.451  1.00  0.00     0.021 A 
HETATM   29  C   UNL     1       5.925  34.513  63.428  1.00  0.00     0.012 A 
HETATM   30 BR   UNL     1       4.673  35.902  63.718  1.00  0.00    -0.051 Br
HETATM   31  C   UNL     1       5.923  33.833  62.210  1.00  0.00     0.035 A 
ENDBRANCH   2  19
TORSDOF 6
ENDMDL
MODEL 5
REMARK VINA RESULT:      -9.5      1.930      3.120
REMARK  6 active torsions:
REMARK  status: ('A' for Active; 'I' for Inactive)
REMARK    1  A    between atoms: C_5  and  O_6 
REMARK    2  A    between atoms: O_6  and  C_7 
REMARK    3  A    between atoms: C_7  and  C_8 
REMARK       I    between atoms: C_8  and  N_9 
REMARK    4  A    between atoms: N_9  and  C_10 
REMARK    5  A    between atoms: C_10  and  C_11 
REMARK       I    between atoms: C_11  and  N_12 
REMARK    6  A    between atoms: N_12  and  N_13 
ROOT
HETATM    1  C   UNL     1       6.434  27.947  55.072  1.00  0.00     0.255 C 
HETATM    2  N   UNL     1       7.611  27.236  55.247  1.00  0.00    -0.245 N 
HETATM    3  O   UNL     1       5.404  27.504  54.563  1.00  0.00    -0.270 OA
HETATM    4  H   UNL     1       8.399  27.642  55.758  1.00  0.00     0.192 HD
ENDROOT
BRANCH   1   5
HETATM    5  C   UNL     1       6.548  29.408  55.511  1.00  0.00     0.227 C 
BRANCH   5   6
HETATM    6  N   UNL     1       5.421  29.767  56.358  1.00  0.00    -0.350 N 
HETATM    7  C   UNL     1       5.444  30.299  57.616  1.00  0.00     0.242 C 
HETATM    8  O   UNL     1       4.390  30.408  58.244  1.00  0.00    -0.271 OA
HETATM    9  H   UNL     1       4.518  29.386  56.087  1.00  0.00     0.163 HD
BRANCH   7  10
HETATM   10  C   UNL     1       6.768  30.812  58.173  1.00  0.00     0.278 C 
BRANCH  10  11
HETATM   11  O   UNL     1       6.600  32.154  58.622  1.00  0.00    -0.342 OA
BRANCH  11  12
HETATM   12  C   UNL     1       6.958  32.354  59.927  1.00  0.00     0.069 A 
HETATM   13  C   UNL     1       6.002  32.958  60.741  1.00  0.00     0.037 A 
HETATM   14  C   UNL     1       6.266  33.176  62.095  1.00  0.00     0.009 A 
HETATM   15  C   UNL     1       7.487  32.780  62.651  1.00  0.00    -0.062 A 
HETATM   16  C   UNL     1       7.763  32.977  64.111  1.00  0.00     0.048 C 
HETATM   17  C   UNL     1       8.427  32.137  61.835  1.00  0.00     0.009 A 
HETATM   18  C   UNL     1       8.164  31.924  60.479  1.00  0.00     0.037 A 
ENDBRANCH  11  12
ENDBRANCH  10  11
ENDBRANCH   7  10
ENDBRANCH   5   6
ENDBRANCH   1   5
BRANCH   2  19
HETATM   19  N   UNL     1       7.694  25.935  54.838  1.00  0.00    -0.166 NA
HETATM   20  C   UNL     1       7.922  25.053  55.758  1.00  0.00     0.157 A 
HETATM   21  C   UNL     1       8.110  25.273  57.261  1.00  0.00     0.277 A 
HETATM   22  C   UNL     1       8.049  23.617  55.545  1.00  0.00     0.028 A 
HETATM   23  O   UNL     1       8.095  26.358  57.805  1.00  0.00    -0.266 OA
HETATM   24  N   UNL     1       8.298  24.019  57.799  1.00  0.00    -0.321 N 
HETATM   25  C   UNL     1       8.268  23.048  56.801  1.00  0.00     0.048 A 
HETATM   26  H   UNL     1       8.448  23.855  58.784  1.00  0.00     0.169 HD
HETATM   27  C   UNL     1       8.435  21.689  56.951  1.00  0.00     0.032 A 
HETATM   28  C   UNL     1       8.378  20.904  55.792  1.00  0.00     0.021 A 
HETATM   29  C   UNL     1       8.158  21.492  54.528  1.00  0.00     0.012 A 
HETATM   30 BR   UNL     1       8.099  20.388  52.993  1.00  0.00    -0.051 Br
HETATM   31  C   UNL     1       7.988  22.870  54.388  1.00  0.00     0.035 A 
ENDBRANCH   2  19
TORSDOF 6
ENDMDL
MODEL 6
REMARK VINA RESULT:      -9.3      3.999     10.004
REMARK  6 active torsions:
REMARK  status: ('A' for Active; 'I' for Inactive)
REMARK    1  A    between atoms: C_5  and  O_6 
REMARK    2  A    between atoms: O_6  and  C_7 
REMARK    3  A    between atoms: C_7  and  C_8 
REMARK       I    between atoms: C_8  and  N_9 
REMARK    4  A    between atoms: N_9  and  C_10 
REMARK    5  A    between atoms: C_10  and  C_11 
REMARK       I    between atoms: C_11  and  N_12 
REMARK    6  A    between atoms: N_12  and  N_13 
ROOT
HETATM    1  C   UNL     1       4.796  28.787  54.660  1.00  0.00     0.255 C 
HETATM    2  N   UNL     1       5.700  29.814  54.883  1.00  0.00    -0.245 N 
HETATM    3  O   UNL     1       4.023  28.324  55.499  1.00  0.00    -0.270 OA
HETATM    4  H   UNL     1       6.249  30.207  54.114  1.00  0.00     0.192 HD
ENDROOT
BRANCH   1   5
HETATM    5  C   UNL     1       4.895  28.201  53.250  1.00  0.00     0.227 C 
BRANCH   5   6
HETATM    6  N   UNL     1       4.303  26.873  53.216  1.00  0.00    -0.350 N 
HETATM    7  C   UNL     1       4.938  25.663  53.233  1.00  0.00     0.242 C 
HETATM    8  O   UNL     1       4.283  24.636  53.053  1.00  0.00    -0.271 OA
HETATM    9  H   UNL     1       3.329  26.824  52.929  1.00  0.00     0.163 HD
BRANCH   7  10
HETATM   10  C   UNL     1       6.429  25.620  53.552  1.00  0.00     0.278 C 
BRANCH  10  11
HETATM   11  O   UNL     1       7.044  24.591  52.781  1.00  0.00    -0.342 OA
BRANCH  11  12
HETATM   12  C   UNL     1       7.395  23.486  53.507  1.00  0.00     0.069 A 
HETATM   13  C   UNL     1       7.303  23.607  54.892  1.00  0.00     0.037 A 
HETATM   14  C   UNL     1       7.613  22.522  55.717  1.00  0.00     0.009 A 
HETATM   15  C   UNL     1       8.007  21.301  55.160  1.00  0.00    -0.062 A 
HETATM   16  C   UNL     1       8.305  20.121  56.036  1.00  0.00     0.048 C 
HETATM   17  C   UNL     1       8.058  21.176  53.766  1.00  0.00     0.009 A 
HETATM   18  C   UNL     1       7.752  22.262  52.942  1.00  0.00     0.037 A 
ENDBRANCH  11  12
ENDBRANCH  10  11
ENDBRANCH   7  10
ENDBRANCH   5   6
ENDBRANCH   1   5
BRANCH   2  19
HETATM   19  N   UNL     1       5.785  30.396  56.116  1.00  0.00    -0.166 NA
HETATM   20  C   UNL     1       6.868  30.171  56.789  1.00  0.00     0.157 A 
HETATM   21  C   UNL     1       8.083  29.333  56.382  1.00  0.00     0.277 A 
HETATM   22  C   UNL     1       7.166  30.687  58.119  1.00  0.00     0.028 A 
HETATM   23  O   UNL     1       8.179  28.722  55.338  1.00  0.00    -0.266 OA
HETATM   24  N   UNL     1       8.970  29.432  57.431  1.00  0.00    -0.321 N 
HETATM   25  C   UNL     1       8.437  30.218  58.450  1.00  0.00     0.048 A 
HETATM   26  H   UNL     1       9.871  28.977  57.440  1.00  0.00     0.169 HD
HETATM   27  C   UNL     1       9.022  30.529  59.659  1.00  0.00     0.032 A 
HETATM   28  C   UNL     1       8.285  31.332  60.539  1.00  0.00     0.021 A 
HETATM   29  C   UNL     1       6.999  31.797  60.192  1.00  0.00     0.012 A 
HETATM   30 BR   UNL     1       6.042  32.872  61.421  1.00  0.00    -0.051 Br
HETATM   31  C   UNL     1       6.417  31.479  58.964  1.00  0.00     0.035 A 
ENDBRANCH   2  19
TORSDOF 6
ENDMDL
MODEL 7
REMARK VINA RESULT:      -9.1      3.695     10.089
REMARK  6 active torsions:
REMARK  status: ('A' for Active; 'I' for Inactive)
REMARK    1  A    between atoms: C_5  and  O_6 
REMARK    2  A    between atoms: O_6  and  C_7 
REMARK    3  A    between atoms: C_7  and  C_8 
REMARK       I    between atoms: C_8  and  N_9 
REMARK    4  A    between atoms: N_9  and  C_10 
REMARK    5  A    between atoms: C_10  and  C_11 
REMARK       I    between atoms: C_11  and  N_12 
REMARK    6  A    between atoms: N_12  and  N_13 
ROOT
HETATM    1  C   UNL     1       5.266  28.260  55.003  1.00  0.00     0.255 C 
HETATM    2  N   UNL     1       6.042  29.395  55.180  1.00  0.00    -0.245 N 
HETATM    3  O   UNL     1       5.049  27.404  55.860  1.00  0.00    -0.270 OA
HETATM    4  H   UNL     1       6.106  30.107  54.449  1.00  0.00     0.192 HD
ENDROOT
BRANCH   1   5
HETATM    5  C   UNL     1       4.744  28.112  53.572  1.00  0.00     0.227 C 
BRANCH   5   6
HETATM    6  N   UNL     1       4.325  26.740  53.330  1.00  0.00    -0.350 N 
HETATM    7  C   UNL     1       5.000  25.754  52.667  1.00  0.00     0.242 C 
HETATM    8  O   UNL     1       4.430  24.688  52.431  1.00  0.00    -0.271 OA
HETATM    9  H   UNL     1       3.338  26.542  53.470  1.00  0.00     0.163 HD
BRANCH   7  10
HETATM   10  C   UNL     1       6.465  25.979  52.308  1.00  0.00     0.278 C 
BRANCH  10  11
HETATM   11  O   UNL     1       7.269  25.773  53.468  1.00  0.00    -0.342 OA
BRANCH  11  12
HETATM   12  C   UNL     1       7.514  24.457  53.748  1.00  0.00     0.069 A 
HETATM   13  C   UNL     1       7.292  24.057  55.064  1.00  0.00     0.037 A 
HETATM   14  C   UNL     1       7.488  22.725  55.438  1.00  0.00     0.009 A 
HETATM   15  C   UNL     1       7.896  21.778  54.494  1.00  0.00    -0.062 A 
HETATM   16  C   UNL     1       8.072  20.339  54.880  1.00  0.00     0.048 C 
HETATM   17  C   UNL     1       8.078  22.179  53.165  1.00  0.00     0.009 A 
HETATM   18  C   UNL     1       7.887  23.513  52.791  1.00  0.00     0.037 A 
ENDBRANCH  11  12
ENDBRANCH  10  11
ENDBRANCH   7  10
ENDBRANCH   5   6
ENDBRANCH   1   5
BRANCH   2  19
HETATM   19  N   UNL     1       6.640  29.634  56.386  1.00  0.00    -0.166 NA
HETATM   20  C   UNL     1       6.183  30.633  57.071  1.00  0.00     0.157 A 
HETATM   21  C   UNL     1       5.044  31.591  56.710  1.00  0.00     0.277 A 
HETATM   22  C   UNL     1       6.671  31.065  58.374  1.00  0.00     0.028 A 
HETATM   23  O   UNL     1       4.414  31.552  55.674  1.00  0.00    -0.266 OA
HETATM   24  N   UNL     1       4.934  32.454  57.778  1.00  0.00    -0.321 N 
HETATM   25  C   UNL     1       5.885  32.154  58.750  1.00  0.00     0.048 A 
HETATM   26  H   UNL     1       4.257  33.202  57.819  1.00  0.00     0.169 HD
HETATM   27  C   UNL     1       6.092  32.806  59.947  1.00  0.00     0.032 A 
HETATM   28  C   UNL     1       7.125  32.330  60.765  1.00  0.00     0.021 A 
HETATM   29  C   UNL     1       7.914  31.230  60.370  1.00  0.00     0.012 A 
HETATM   30 BR   UNL     1       9.303  30.633  61.509  1.00  0.00    -0.051 Br
HETATM   31  C   UNL     1       7.694  30.575  59.158  1.00  0.00     0.035 A 
ENDBRANCH   2  19
TORSDOF 6
ENDMDL
MODEL 8
REMARK VINA RESULT:      -9.1      1.705      2.205
REMARK  6 active torsions:
REMARK  status: ('A' for Active; 'I' for Inactive)
REMARK    1  A    between atoms: C_5  and  O_6 
REMARK    2  A    between atoms: O_6  and  C_7 
REMARK    3  A    between atoms: C_7  and  C_8 
REMARK       I    between atoms: C_8  and  N_9 
REMARK    4  A    between atoms: N_9  and  C_10 
REMARK    5  A    between atoms: C_10  and  C_11 
REMARK       I    between atoms: C_11  and  N_12 
REMARK    6  A    between atoms: N_12  and  N_13 
ROOT
HETATM    1  C   UNL     1       7.169  28.483  57.650  1.00  0.00     0.255 C 
HETATM    2  N   UNL     1       6.284  27.692  56.933  1.00  0.00    -0.245 N 
HETATM    3  O   UNL     1       8.242  28.105  58.121  1.00  0.00    -0.270 OA
HETATM    4  H   UNL     1       5.452  28.097  56.498  1.00  0.00     0.192 HD
ENDROOT
BRANCH   1   5
HETATM    5  C   UNL     1       6.645  29.901  57.886  1.00  0.00     0.227 C 
BRANCH   5   6
HETATM    6  N   UNL     1       5.226  29.970  57.576  1.00  0.00    -0.350 N 
HETATM    7  C   UNL     1       4.290  30.826  58.084  1.00  0.00     0.242 C 
HETATM    8  O   UNL     1       3.102  30.649  57.815  1.00  0.00    -0.271 OA
HETATM    9  H   UNL     1       4.831  29.163  57.100  1.00  0.00     0.163 HD
BRANCH   7  10
HETATM   10  C   UNL     1       4.758  32.023  58.906  1.00  0.00     0.278 C 
BRANCH  10  11
HETATM   11  O   UNL     1       4.092  32.015  60.167  1.00  0.00    -0.342 OA
BRANCH  11  12
HETATM   12  C   UNL     1       4.911  32.282  61.229  1.00  0.00     0.069 A 
HETATM   13  C   UNL     1       6.269  32.407  60.943  1.00  0.00     0.037 A 
HETATM   14  C   UNL     1       7.179  32.708  61.959  1.00  0.00     0.009 A 
HETATM   15  C   UNL     1       6.735  32.898  63.272  1.00  0.00    -0.062 A 
HETATM   16  C   UNL     1       7.701  33.258  64.362  1.00  0.00     0.048 C 
HETATM   17  C   UNL     1       5.364  32.810  63.545  1.00  0.00     0.009 A 
HETATM   18  C   UNL     1       4.455  32.505  62.528  1.00  0.00     0.037 A 
ENDBRANCH  11  12
ENDBRANCH  10  11
ENDBRANCH   7  10
ENDBRANCH   5   6
ENDBRANCH   1   5
BRANCH   2  19
HETATM   19  N   UNL     1       6.575  26.377  56.700  1.00  0.00    -0.166 NA
HETATM   20  C   UNL     1       6.897  26.062  55.486  1.00  0.00     0.157 A 
HETATM   21  C   UNL     1       7.002  26.977  54.263  1.00  0.00     0.277 A 
HETATM   22  C   UNL     1       7.241  24.726  55.017  1.00  0.00     0.028 A 
HETATM   23  O   UNL     1       6.759  28.166  54.269  1.00  0.00    -0.266 OA
HETATM   24  N   UNL     1       7.403  26.164  53.226  1.00  0.00    -0.321 N 
HETATM   25  C   UNL     1       7.539  24.847  53.660  1.00  0.00     0.048 A 
HETATM   26  H   UNL     1       7.556  26.499  52.286  1.00  0.00     0.169 HD
HETATM   27  C   UNL     1       7.905  23.752  52.908  1.00  0.00     0.032 A 
HETATM   28  C   UNL     1       7.963  22.515  53.563  1.00  0.00     0.021 A 
HETATM   29  C   UNL     1       7.656  22.407  54.935  1.00  0.00     0.012 A 
HETATM   30 BR   UNL     1       7.741  20.711  55.770  1.00  0.00    -0.051 Br
HETATM   31  C   UNL     1       7.289  23.523  55.688  1.00  0.00     0.035 A 
ENDBRANCH   2  19
TORSDOF 6
ENDMDL
MODEL 9
REMARK VINA RESULT:      -9.0      5.843      9.223
REMARK  6 active torsions:
REMARK  status: ('A' for Active; 'I' for Inactive)
REMARK    1  A    between atoms: C_5  and  O_6 
REMARK    2  A    between atoms: O_6  and  C_7 
REMARK    3  A    between atoms: C_7  and  C_8 
REMARK       I    between atoms: C_8  and  N_9 
REMARK    4  A    between atoms: N_9  and  C_10 
REMARK    5  A    between atoms: C_10  and  C_11 
REMARK       I    between atoms: C_11  and  N_12 
REMARK    6  A    between atoms: N_12  and  N_13 
ROOT
HETATM    1  C   UNL     1       4.667  28.320  55.045  1.00  0.00     0.255 C 
HETATM    2  N   UNL     1       4.009  27.700  53.994  1.00  0.00    -0.245 N 
HETATM    3  O   UNL     1       5.128  29.461  55.022  1.00  0.00    -0.270 OA
HETATM    4  H   UNL     1       3.575  26.782  54.115  1.00  0.00     0.192 HD
ENDROOT
BRANCH   1   5
HETATM    5  C   UNL     1       4.849  27.406  56.258  1.00  0.00     0.227 C 
BRANCH   5   6
HETATM    6  N   UNL     1       6.047  27.780  56.994  1.00  0.00    -0.350 N 
HETATM    7  C   UNL     1       7.270  27.173  56.982  1.00  0.00     0.242 C 
HETATM    8  O   UNL     1       8.133  27.540  57.780  1.00  0.00    -0.271 OA
HETATM    9  H   UNL     1       5.914  28.425  57.768  1.00  0.00     0.163 HD
BRANCH   7  10
HETATM   10  C   UNL     1       7.553  26.109  55.926  1.00  0.00     0.278 C 
BRANCH  10  11
HETATM   11  O   UNL     1       7.928  24.894  56.571  1.00  0.00    -0.342 OA
BRANCH  11  12
HETATM   12  C   UNL     1       7.951  23.807  55.741  1.00  0.00     0.069 A 
HETATM   13  C   UNL     1       7.930  24.077  54.375  1.00  0.00     0.037 A 
HETATM   14  C   UNL     1       7.981  23.032  53.449  1.00  0.00     0.009 A 
HETATM   15  C   UNL     1       8.065  21.706  53.884  1.00  0.00    -0.062 A 
HETATM   16  C   UNL     1       8.157  20.581  52.897  1.00  0.00     0.048 C 
HETATM   17  C   UNL     1       8.125  21.445  55.258  1.00  0.00     0.009 A 
HETATM   18  C   UNL     1       8.070  22.490  56.185  1.00  0.00     0.037 A 
ENDBRANCH  11  12
ENDBRANCH  10  11
ENDBRANCH   7  10
ENDBRANCH   5   6
ENDBRANCH   1   5
BRANCH   2  19
HETATM   19  N   UNL     1       3.830  28.362  52.812  1.00  0.00    -0.166 NA
HETATM   20  C   UNL     1       4.320  27.800  51.754  1.00  0.00     0.157 A 
HETATM   21  C   UNL     1       5.078  26.473  51.647  1.00  0.00     0.277 A 
HETATM   22  C   UNL     1       4.247  28.328  50.398  1.00  0.00     0.028 A 
HETATM   23  O   UNL     1       5.353  25.760  52.589  1.00  0.00    -0.266 OA
HETATM   24  N   UNL     1       5.358  26.313  50.308  1.00  0.00    -0.321 N 
HETATM   25  C   UNL     1       4.879  27.397  49.574  1.00  0.00     0.048 A 
HETATM   26  H   UNL     1       5.855  25.517  49.936  1.00  0.00     0.169 HD
HETATM   27  C   UNL     1       4.984  27.599  48.215  1.00  0.00     0.032 A 
HETATM   28  C   UNL     1       4.434  28.779  47.699  1.00  0.00     0.021 A 
HETATM   29  C   UNL     1       3.800  29.714  48.544  1.00  0.00     0.012 A 
HETATM   30 BR   UNL     1       3.080  31.296  47.795  1.00  0.00    -0.051 Br
HETATM   31  C   UNL     1       3.696  29.498  49.918  1.00  0.00     0.035 A 
ENDBRANCH   2  19
TORSDOF 6
ENDMDL
MODEL 10
REMARK VINA RESULT:      -9.0      6.480      9.988
REMARK  6 active torsions:
REMARK  status: ('A' for Active; 'I' for Inactive)
REMARK    1  A    between atoms: C_5  and  O_6 
REMARK    2  A    between atoms: O_6  and  C_7 
REMARK    3  A    between atoms: C_7  and  C_8 
REMARK       I    between atoms: C_8  and  N_9 
REMARK    4  A    between atoms: N_9  and  C_10 
REMARK    5  A    between atoms: C_10  and  C_11 
REMARK       I    between atoms: C_11  and  N_12 
REMARK    6  A    between atoms: N_12  and  N_13 
ROOT
HETATM    1  C   UNL     1       5.356  28.509  52.861  1.00  0.00     0.255 C 
HETATM    2  N   UNL     1       5.662  28.513  51.509  1.00  0.00    -0.245 N 
HETATM    3  O   UNL     1       4.259  28.789  53.344  1.00  0.00    -0.270 OA
HETATM    4  H   UNL     1       6.571  28.183  51.175  1.00  0.00     0.192 HD
ENDROOT
BRANCH   1   5
HETATM    5  C   UNL     1       6.563  28.189  53.745  1.00  0.00     0.227 C 
BRANCH   5   6
HETATM    6  N   UNL     1       6.178  28.206  55.147  1.00  0.00    -0.350 N 
HETATM    7  C   UNL     1       5.724  27.170  55.913  1.00  0.00     0.242 C 
HETATM    8  O   UNL     1       5.307  27.396  57.049  1.00  0.00    -0.271 OA
HETATM    9  H   UNL     1       6.015  29.123  55.556  1.00  0.00     0.163 HD
BRANCH   7  10
HETATM   10  C   UNL     1       5.822  25.751  55.361  1.00  0.00     0.278 C 
BRANCH  10  11
HETATM   11  O   UNL     1       7.145  25.259  55.563  1.00  0.00    -0.342 OA
BRANCH  11  12
HETATM   12  C   UNL     1       7.392  24.060  54.952  1.00  0.00     0.069 A 
HETATM   13  C   UNL     1       7.601  24.104  53.576  1.00  0.00     0.037 A 
HETATM   14  C   UNL     1       7.889  22.933  52.869  1.00  0.00     0.009 A 
HETATM   15  C   UNL     1       7.982  21.708  53.538  1.00  0.00    -0.062 A 
HETATM   16  C   UNL     1       8.328  20.453  52.793  1.00  0.00     0.048 C 
HETATM   17  C   UNL     1       7.810  21.679  54.928  1.00  0.00     0.009 A 
HETATM   18  C   UNL     1       7.517  22.849  55.633  1.00  0.00     0.037 A 
ENDBRANCH  11  12
ENDBRANCH  10  11
ENDBRANCH   7  10
ENDBRANCH   5   6
ENDBRANCH   1   5
BRANCH   2  19
HETATM   19  N   UNL     1       4.706  28.849  50.591  1.00  0.00    -0.166 NA
HETATM   20  C   UNL     1       4.215  27.881  49.886  1.00  0.00     0.157 A 
HETATM   21  C   UNL     1       4.561  26.391  49.946  1.00  0.00     0.277 A 
HETATM   22  C   UNL     1       3.193  28.014  48.856  1.00  0.00     0.028 A 
HETATM   23  O   UNL     1       5.399  25.908  50.678  1.00  0.00    -0.266 OA
HETATM   24  N   UNL     1       3.745  25.783  49.017  1.00  0.00    -0.321 N 
HETATM   25  C   UNL     1       2.948  26.728  48.373  1.00  0.00     0.048 A 
HETATM   26  H   UNL     1       3.754  24.790  48.836  1.00  0.00     0.169 HD
HETATM   27  C   UNL     1       2.023  26.502  47.377  1.00  0.00     0.032 A 
HETATM   28  C   UNL     1       1.344  27.617  46.868  1.00  0.00     0.021 A 
HETATM   29  C   UNL     1       1.605  28.912  47.363  1.00  0.00     0.012 A 
HETATM   30 BR   UNL     1       0.666  30.385  46.635  1.00  0.00    -0.051 Br
HETATM   31  C   UNL     1       2.541  29.129  48.375  1.00  0.00     0.035 A 
ENDBRANCH   2  19
TORSDOF 6
ENDMDL
