MODEL 1
REMARK VINA RESULT:      -8.9      0.000      0.000
REMARK  5 active torsions:
REMARK  status: ('A' for Active; 'I' for Inactive)
REMARK       I    between atoms: C_2  and  N_3 
REMARK    1  A    between atoms: C_2  and  C_11 
REMARK    2  A    between atoms: N_3  and  C_4 
REMARK    3  A    between atoms: C_4  and  C_5 
REMARK    4  A    between atoms: C_5  and  C_6 
REMARK    5  A    between atoms: C_17  and  C_21 
ROOT
HETATM    1  C   UNL     1       5.432  26.827  54.513  1.00  0.00     0.059 A 
HETATM    2  C   UNL     1       4.947  26.796  53.213  1.00  0.00     0.106 A 
HETATM    3  N   UNL     1       5.341  25.623  52.627  1.00  0.00    -0.364 N 
HETATM    4  H   UNL     1       5.119  25.339  51.683  1.00  0.00     0.165 HD
HETATM    5  C   UNL     1       6.068  24.867  53.515  1.00  0.00     0.044 A 
HETATM    6  C   UNL     1       6.652  23.602  53.352  1.00  0.00     0.042 A 
HETATM    7  C   UNL     1       7.352  23.045  54.437  1.00  0.00    -0.021 A 
HETATM    8  C   UNL     1       7.449  23.760  55.635  1.00  0.00     0.013 A 
HETATM    9  C   UNL     1       6.856  25.023  55.779  1.00  0.00     0.016 A 
HETATM   10  C   UNL     1       6.148  25.593  54.702  1.00  0.00     0.008 A 
ENDROOT
BRANCH   1  11
HETATM   11  C   UNL     1       5.236  27.885  55.508  1.00  0.00     0.253 C 
HETATM   12  O   UNL     1       4.193  28.016  56.142  1.00  0.00    -0.268 OA
HETATM   13  N   UNL     1       6.318  28.722  55.694  1.00  0.00    -0.356 N 
HETATM   14  H   UNL     1       7.213  28.414  55.341  1.00  0.00     0.162 HD
BRANCH  13  15
HETATM   15  C   UNL     1       6.319  29.727  56.739  1.00  0.00     0.128 C 
BRANCH  15  16
HETATM   16  C   UNL     1       7.205  29.344  57.927  1.00  0.00     0.066 C 
BRANCH  16  17
HETATM   17  C   UNL     1       8.656  29.659  57.682  1.00  0.00    -0.016 A 
HETATM   18  C   UNL     1       9.560  28.960  56.907  1.00  0.00     0.015 A 
HETATM   19  C   UNL     1      10.851  29.563  56.906  1.00  0.00     0.008 A 
HETATM   20  C   UNL     1      10.890  30.699  57.682  1.00  0.00     0.050 A 
HETATM   21  S   UNL     1       9.379  31.033  58.408  1.00  0.00    -0.107 SA
ENDBRANCH  16  17
ENDBRANCH  15  16
ENDBRANCH  13  15
ENDBRANCH   1  11
BRANCH   7  22
HETATM   22  C   UNL     1       7.953  21.728  54.301  1.00  0.00     0.010 A 
HETATM   23  C   UNL     1       8.203  20.940  53.153  1.00  0.00     0.152 A 
HETATM   24  N   UNL     1       8.794  19.776  53.441  1.00  0.00    -0.187 NA
HETATM   25  N   UNL     1       8.921  19.814  54.778  1.00  0.00    -0.289 N 
HETATM   26  H   UNL     1       9.353  19.022  55.242  1.00  0.00     0.188 HD
HETATM   27  C   UNL     1       8.438  20.960  55.340  1.00  0.00     0.123 A 
ENDBRANCH   7  22
TORSDOF 5
ENDMDL
MODEL 2
REMARK VINA RESULT:      -8.8      2.175      2.492
REMARK  5 active torsions:
REMARK  status: ('A' for Active; 'I' for Inactive)
REMARK       I    between atoms: C_2  and  N_3 
REMARK    1  A    between atoms: C_2  and  C_11 
REMARK    2  A    between atoms: N_3  and  C_4 
REMARK    3  A    between atoms: C_4  and  C_5 
REMARK    4  A    between atoms: C_5  and  C_6 
REMARK    5  A    between atoms: C_17  and  C_21 
ROOT
HETATM    1  C   UNL     1       7.002  27.298  55.415  1.00  0.00     0.059 A 
HETATM    2  C   UNL     1       7.101  27.652  54.077  1.00  0.00     0.106 A 
HETATM    3  N   UNL     1       7.466  26.546  53.356  1.00  0.00    -0.364 N 
HETATM    4  H   UNL     1       7.603  26.521  52.355  1.00  0.00     0.165 HD
HETATM    5  C   UNL     1       7.600  25.460  54.187  1.00  0.00     0.044 A 
HETATM    6  C   UNL     1       7.941  24.133  53.884  1.00  0.00     0.042 A 
HETATM    7  C   UNL     1       8.009  23.204  54.937  1.00  0.00    -0.021 A 
HETATM    8  C   UNL     1       7.739  23.623  56.245  1.00  0.00     0.013 A 
HETATM    9  C   UNL     1       7.397  24.953  56.526  1.00  0.00     0.016 A 
HETATM   10  C   UNL     1       7.322  25.896  55.481  1.00  0.00     0.008 A 
ENDROOT
BRANCH   1  11
HETATM   11  C   UNL     1       6.623  28.162  56.536  1.00  0.00     0.253 C 
HETATM   12  O   UNL     1       5.610  27.977  57.203  1.00  0.00    -0.268 OA
HETATM   13  N   UNL     1       7.497  29.197  56.800  1.00  0.00    -0.356 N 
HETATM   14  H   UNL     1       8.420  29.144  56.392  1.00  0.00     0.162 HD
BRANCH  13  15
HETATM   15  C   UNL     1       7.324  30.048  57.961  1.00  0.00     0.128 C 
BRANCH  15  16
HETATM   16  C   UNL     1       8.471  29.920  58.965  1.00  0.00     0.066 C 
BRANCH  16  17
HETATM   17  C   UNL     1       8.318  30.858  60.131  1.00  0.00    -0.016 A 
HETATM   18  C   UNL     1       9.038  30.875  61.309  1.00  0.00     0.015 A 
HETATM   19  C   UNL     1       8.616  31.917  62.186  1.00  0.00     0.008 A 
HETATM   20  C   UNL     1       7.586  32.656  61.649  1.00  0.00     0.050 A 
HETATM   21  S   UNL     1       7.132  32.095  60.099  1.00  0.00    -0.107 SA
ENDBRANCH  16  17
ENDBRANCH  15  16
ENDBRANCH  13  15
ENDBRANCH   1  11
BRANCH   7  22
HETATM   22  C   UNL     1       8.345  21.819  54.650  1.00  0.00     0.010 A 
HETATM   23  C   UNL     1       8.302  21.090  53.439  1.00  0.00     0.152 A 
HETATM   24  N   UNL     1       8.708  19.824  53.580  1.00  0.00    -0.187 NA
HETATM   25  N   UNL     1       9.011  19.738  54.886  1.00  0.00    -0.289 N 
HETATM   26  H   UNL     1       9.350  18.851  55.243  1.00  0.00     0.188 HD
HETATM   27  C   UNL     1       8.814  20.903  55.569  1.00  0.00     0.123 A 
ENDBRANCH   7  22
TORSDOF 5
ENDMDL
MODEL 3
REMARK VINA RESULT:      -8.8      4.096      6.393
REMARK  5 active torsions:
REMARK  status: ('A' for Active; 'I' for Inactive)
REMARK       I    between atoms: C_2  and  N_3 
REMARK    1  A    between atoms: C_2  and  C_11 
REMARK    2  A    between atoms: N_3  and  C_4 
REMARK    3  A    between atoms: C_4  and  C_5 
REMARK    4  A    between atoms: C_5  and  C_6 
REMARK    5  A    between atoms: C_17  and  C_21 
ROOT
HETATM    1  C   UNL     1       5.619  26.803  53.621  1.00  0.00     0.059 A 
HETATM    2  C   UNL     1       5.154  26.884  54.925  1.00  0.00     0.106 A 
HETATM    3  N   UNL     1       5.513  25.742  55.590  1.00  0.00    -0.364 N 
HETATM    4  H   UNL     1       5.306  25.541  56.559  1.00  0.00     0.165 HD
HETATM    5  C   UNL     1       6.217  24.907  54.757  1.00  0.00     0.044 A 
HETATM    6  C   UNL     1       6.787  23.651  55.014  1.00  0.00     0.042 A 
HETATM    7  C   UNL     1       7.466  22.999  53.969  1.00  0.00    -0.021 A 
HETATM    8  C   UNL     1       7.553  23.613  52.715  1.00  0.00     0.013 A 
HETATM    9  C   UNL     1       6.979  24.871  52.479  1.00  0.00     0.016 A 
HETATM   10  C   UNL     1       6.298  25.539  53.517  1.00  0.00     0.008 A 
ENDROOT
BRANCH   1  11
HETATM   11  C   UNL     1       5.477  27.808  52.564  1.00  0.00     0.253 C 
HETATM   12  O   UNL     1       6.319  28.678  52.357  1.00  0.00    -0.268 OA
HETATM   13  N   UNL     1       4.331  27.702  51.804  1.00  0.00    -0.356 N 
HETATM   14  H   UNL     1       3.816  26.833  51.854  1.00  0.00     0.162 HD
BRANCH  13  15
HETATM   15  C   UNL     1       4.121  28.540  50.639  1.00  0.00     0.128 C 
BRANCH  15  16
HETATM   16  C   UNL     1       4.841  28.015  49.396  1.00  0.00     0.066 C 
BRANCH  16  17
HETATM   17  C   UNL     1       3.975  27.092  48.581  1.00  0.00    -0.016 A 
HETATM   18  C   UNL     1       3.894  25.715  48.656  1.00  0.00     0.015 A 
HETATM   19  C   UNL     1       2.956  25.178  47.728  1.00  0.00     0.008 A 
HETATM   20  C   UNL     1       2.355  26.161  46.974  1.00  0.00     0.050 A 
HETATM   21  S   UNL     1       2.923  27.720  47.383  1.00  0.00    -0.107 SA
ENDBRANCH  16  17
ENDBRANCH  15  16
ENDBRANCH  13  15
ENDBRANCH   1  11
BRANCH   7  22
HETATM   22  C   UNL     1       8.079  21.704  54.212  1.00  0.00     0.010 A 
HETATM   23  C   UNL     1       8.387  20.646  53.324  1.00  0.00     0.152 A 
HETATM   24  N   UNL     1       8.970  19.610  53.934  1.00  0.00    -0.187 NA
HETATM   25  N   UNL     1       9.035  20.000  55.218  1.00  0.00    -0.289 N 
HETATM   26  H   UNL     1       9.449  19.366  55.893  1.00  0.00     0.188 HD
HETATM   27  C   UNL     1       8.520  21.245  55.436  1.00  0.00     0.123 A 
ENDBRANCH   7  22
TORSDOF 5
ENDMDL
MODEL 4
REMARK VINA RESULT:      -8.5      4.268      6.861
REMARK  5 active torsions:
REMARK  status: ('A' for Active; 'I' for Inactive)
REMARK       I    between atoms: C_2  and  N_3 
REMARK    1  A    between atoms: C_2  and  C_11 
REMARK    2  A    between atoms: N_3  and  C_4 
REMARK    3  A    between atoms: C_4  and  C_5 
REMARK    4  A    between atoms: C_5  and  C_6 
REMARK    5  A    between atoms: C_17  and  C_21 
ROOT
HETATM    1  C   UNL     1       9.239  30.457  58.020  1.00  0.00     0.059 A 
HETATM    2  C   UNL     1      10.368  30.229  57.245  1.00  0.00     0.106 A 
HETATM    3  N   UNL     1      10.002  29.506  56.141  1.00  0.00    -0.364 N 
HETATM    4  H   UNL     1      10.629  29.208  55.406  1.00  0.00     0.165 HD
HETATM    5  C   UNL     1       8.651  29.258  56.159  1.00  0.00     0.044 A 
HETATM    6  C   UNL     1       7.850  28.574  55.233  1.00  0.00     0.042 A 
HETATM    7  C   UNL     1       6.473  28.462  55.496  1.00  0.00    -0.021 A 
HETATM    8  C   UNL     1       5.945  29.029  56.661  1.00  0.00     0.013 A 
HETATM    9  C   UNL     1       6.762  29.712  57.573  1.00  0.00     0.016 A 
HETATM   10  C   UNL     1       8.145  29.835  57.323  1.00  0.00     0.008 A 
ENDROOT
BRANCH   1  11
HETATM   11  C   UNL     1       9.163  31.202  59.279  1.00  0.00     0.253 C 
HETATM   12  O   UNL     1       9.412  32.401  59.357  1.00  0.00    -0.268 OA
HETATM   13  N   UNL     1       8.776  30.460  60.376  1.00  0.00    -0.356 N 
HETATM   14  H   UNL     1       8.347  29.561  60.205  1.00  0.00     0.162 HD
BRANCH  13  15
HETATM   15  C   UNL     1       8.526  31.090  61.658  1.00  0.00     0.128 C 
BRANCH  15  16
HETATM   16  C   UNL     1       7.104  31.642  61.778  1.00  0.00     0.066 C 
BRANCH  16  17
HETATM   17  C   UNL     1       6.899  32.423  63.048  1.00  0.00    -0.016 A 
HETATM   18  C   UNL     1       7.861  32.907  63.913  1.00  0.00     0.015 A 
HETATM   19  C   UNL     1       7.292  33.610  65.015  1.00  0.00     0.008 A 
HETATM   20  C   UNL     1       5.917  33.635  64.956  1.00  0.00     0.050 A 
HETATM   21  S   UNL     1       5.318  32.815  63.581  1.00  0.00    -0.107 SA
ENDBRANCH  16  17
ENDBRANCH  15  16
ENDBRANCH  13  15
ENDBRANCH   1  11
BRANCH   7  22
HETATM   22  C   UNL     1       5.616  27.772  54.545  1.00  0.00     0.010 A 
HETATM   23  C   UNL     1       5.883  26.686  53.679  1.00  0.00     0.152 A 
HETATM   24  N   UNL     1       4.818  26.321  52.960  1.00  0.00    -0.187 NA
HETATM   25  N   UNL     1       3.863  27.176  53.362  1.00  0.00    -0.289 N 
HETATM   26  H   UNL     1       2.940  27.096  52.948  1.00  0.00     0.188 HD
HETATM   27  C   UNL     1       4.288  28.061  54.310  1.00  0.00     0.123 A 
ENDBRANCH   7  22
TORSDOF 5
ENDMDL
MODEL 5
REMARK VINA RESULT:      -8.0      2.163      2.705
REMARK  5 active torsions:
REMARK  status: ('A' for Active; 'I' for Inactive)
REMARK       I    between atoms: C_2  and  N_3 
REMARK    1  A    between atoms: C_2  and  C_11 
REMARK    2  A    between atoms: N_3  and  C_4 
REMARK    3  A    between atoms: C_4  and  C_5 
REMARK    4  A    between atoms: C_5  and  C_6 
REMARK    5  A    between atoms: C_17  and  C_21 
ROOT
HETATM    1  C   UNL     1       5.775  26.844  53.063  1.00  0.00     0.059 A 
HETATM    2  C   UNL     1       6.015  26.799  51.697  1.00  0.00     0.106 A 
HETATM    3  N   UNL     1       6.660  25.626  51.404  1.00  0.00    -0.364 N 
HETATM    4  H   UNL     1       6.948  25.335  50.480  1.00  0.00     0.165 HD
HETATM    5  C   UNL     1       6.844  24.886  52.546  1.00  0.00     0.044 A 
HETATM    6  C   UNL     1       7.439  23.627  52.715  1.00  0.00     0.042 A 
HETATM    7  C   UNL     1       7.499  23.085  54.012  1.00  0.00    -0.021 A 
HETATM    8  C   UNL     1       6.970  23.809  55.086  1.00  0.00     0.013 A 
HETATM    9  C   UNL     1       6.377  25.065  54.896  1.00  0.00     0.016 A 
HETATM   10  C   UNL     1       6.306  25.620  53.602  1.00  0.00     0.008 A 
ENDROOT
BRANCH   1  11
HETATM   11  C   UNL     1       5.096  27.906  53.809  1.00  0.00     0.253 C 
HETATM   12  O   UNL     1       3.876  28.048  53.799  1.00  0.00    -0.268 OA
HETATM   13  N   UNL     1       5.925  28.732  54.540  1.00  0.00    -0.356 N 
HETATM   14  H   UNL     1       6.869  28.414  54.710  1.00  0.00     0.162 HD
BRANCH  13  15
HETATM   15  C   UNL     1       5.385  29.738  55.433  1.00  0.00     0.128 C 
BRANCH  15  16
HETATM   16  C   UNL     1       5.689  29.447  56.904  1.00  0.00     0.066 C 
BRANCH  16  17
HETATM   17  C   UNL     1       5.387  30.623  57.794  1.00  0.00    -0.016 A 
HETATM   18  C   UNL     1       4.154  31.167  58.095  1.00  0.00     0.015 A 
HETATM   19  C   UNL     1       4.256  32.278  58.982  1.00  0.00     0.008 A 
HETATM   20  C   UNL     1       5.562  32.546  59.325  1.00  0.00     0.050 A 
HETATM   21  S   UNL     1       6.656  31.466  58.579  1.00  0.00    -0.107 SA
ENDBRANCH  16  17
ENDBRANCH  15  16
ENDBRANCH  13  15
ENDBRANCH   1  11
BRANCH   7  22
HETATM   22  C   UNL     1       8.095  21.775  54.214  1.00  0.00     0.010 A 
HETATM   23  C   UNL     1       8.257  20.686  53.326  1.00  0.00     0.152 A 
HETATM   24  N   UNL     1       8.877  19.644  53.889  1.00  0.00    -0.187 NA
HETATM   25  N   UNL     1       9.111  20.063  55.143  1.00  0.00    -0.289 N 
HETATM   26  H   UNL     1       9.584  19.430  55.781  1.00  0.00     0.188 HD
HETATM   27  C   UNL     1       8.667  21.330  55.388  1.00  0.00     0.123 A 
ENDBRANCH   7  22
TORSDOF 5
ENDMDL
MODEL 6
REMARK VINA RESULT:      -7.9      6.406     11.247
REMARK  5 active torsions:
REMARK  status: ('A' for Active; 'I' for Inactive)
REMARK       I    between atoms: C_2  and  N_3 
REMARK    1  A    between atoms: C_2  and  C_11 
REMARK    2  A    between atoms: N_3  and  C_4 
REMARK    3  A    between atoms: C_4  and  C_5 
REMARK    4  A    between atoms: C_5  and  C_6 
REMARK    5  A    between atoms: C_17  and  C_21 
ROOT
HETATM    1  C   UNL     1       7.746  31.599  60.268  1.00  0.00     0.059 A 
HETATM    2  C   UNL     1       9.040  31.283  60.655  1.00  0.00     0.106 A 
HETATM    3  N   UNL     1       9.206  31.645  61.965  1.00  0.00    -0.364 N 
HETATM    4  H   UNL     1      10.054  31.521  62.502  1.00  0.00     0.165 HD
HETATM    5  C   UNL     1       8.045  32.186  62.461  1.00  0.00     0.044 A 
HETATM    6  C   UNL     1       7.756  32.674  63.744  1.00  0.00     0.042 A 
HETATM    7  C   UNL     1       6.468  33.181  63.991  1.00  0.00    -0.021 A 
HETATM    8  C   UNL     1       5.519  33.186  62.962  1.00  0.00     0.013 A 
HETATM    9  C   UNL     1       5.827  32.691  61.687  1.00  0.00     0.016 A 
HETATM   10  C   UNL     1       7.113  32.176  61.424  1.00  0.00     0.008 A 
ENDROOT
BRANCH   1  11
HETATM   11  C   UNL     1       7.131  31.371  58.958  1.00  0.00     0.253 C 
HETATM   12  O   UNL     1       6.595  32.266  58.311  1.00  0.00    -0.268 OA
HETATM   13  N   UNL     1       7.208  30.074  58.492  1.00  0.00    -0.356 N 
HETATM   14  H   UNL     1       7.870  29.455  58.940  1.00  0.00     0.162 HD
BRANCH  13  15
HETATM   15  C   UNL     1       6.766  29.729  57.155  1.00  0.00     0.128 C 
BRANCH  15  16
HETATM   16  C   UNL     1       7.873  29.094  56.311  1.00  0.00     0.066 C 
BRANCH  16  17
HETATM   17  C   UNL     1       7.781  27.592  56.284  1.00  0.00    -0.016 A 
HETATM   18  C   UNL     1       8.263  26.694  57.215  1.00  0.00     0.015 A 
HETATM   19  C   UNL     1       7.985  25.342  56.858  1.00  0.00     0.008 A 
HETATM   20  C   UNL     1       7.303  25.255  55.665  1.00  0.00     0.050 A 
HETATM   21  S   UNL     1       7.004  26.793  54.982  1.00  0.00    -0.107 SA
ENDBRANCH  16  17
ENDBRANCH  15  16
ENDBRANCH  13  15
ENDBRANCH   1  11
BRANCH   7  22
HETATM   22  C   UNL     1       6.136  33.679  65.316  1.00  0.00     0.010 A 
HETATM   23  C   UNL     1       4.884  33.851  65.952  1.00  0.00     0.152 A 
HETATM   24  N   UNL     1       4.994  34.327  67.196  1.00  0.00    -0.187 NA
HETATM   25  N   UNL     1       6.320  34.465  67.360  1.00  0.00    -0.289 N 
HETATM   26  H   UNL     1       6.660  34.819  68.248  1.00  0.00     0.188 HD
HETATM   27  C   UNL     1       7.047  34.088  66.268  1.00  0.00     0.123 A 
ENDBRANCH   7  22
TORSDOF 5
ENDMDL
MODEL 7
REMARK VINA RESULT:      -7.7      8.797     13.199
REMARK  5 active torsions:
REMARK  status: ('A' for Active; 'I' for Inactive)
REMARK       I    between atoms: C_2  and  N_3 
REMARK    1  A    between atoms: C_2  and  C_11 
REMARK    2  A    between atoms: N_3  and  C_4 
REMARK    3  A    between atoms: C_4  and  C_5 
REMARK    4  A    between atoms: C_5  and  C_6 
REMARK    5  A    between atoms: C_17  and  C_21 
ROOT
HETATM    1  C   UNL     1       4.458  33.787  62.928  1.00  0.00     0.059 A 
HETATM    2  C   UNL     1       3.126  34.017  63.241  1.00  0.00     0.106 A 
HETATM    3  N   UNL     1       3.020  34.208  64.593  1.00  0.00    -0.364 N 
HETATM    4  H   UNL     1       2.161  34.402  65.089  1.00  0.00     0.165 HD
HETATM    5  C   UNL     1       4.257  34.120  65.185  1.00  0.00     0.044 A 
HETATM    6  C   UNL     1       4.622  34.262  66.532  1.00  0.00     0.042 A 
HETATM    7  C   UNL     1       5.978  34.122  66.875  1.00  0.00    -0.021 A 
HETATM    8  C   UNL     1       6.917  33.848  65.875  1.00  0.00     0.013 A 
HETATM    9  C   UNL     1       6.533  33.713  64.533  1.00  0.00     0.016 A 
HETATM   10  C   UNL     1       5.177  33.853  64.173  1.00  0.00     0.008 A 
ENDROOT
BRANCH   1  11
HETATM   11  C   UNL     1       5.029  33.550  61.600  1.00  0.00     0.253 C 
HETATM   12  O   UNL     1       4.948  34.366  60.687  1.00  0.00    -0.268 OA
HETATM   13  N   UNL     1       5.681  32.343  61.449  1.00  0.00    -0.356 N 
HETATM   14  H   UNL     1       5.931  31.838  62.288  1.00  0.00     0.162 HD
BRANCH  13  15
HETATM   15  C   UNL     1       6.410  32.030  60.236  1.00  0.00     0.128 C 
BRANCH  15  16
HETATM   16  C   UNL     1       7.921  32.220  60.388  1.00  0.00     0.066 C 
BRANCH  16  17
HETATM   17  C   UNL     1       8.700  31.465  59.346  1.00  0.00    -0.016 A 
HETATM   18  C   UNL     1       9.940  31.773  58.821  1.00  0.00     0.015 A 
HETATM   19  C   UNL     1      10.369  30.820  57.853  1.00  0.00     0.008 A 
HETATM   20  C   UNL     1       9.442  29.819  57.668  1.00  0.00     0.050 A 
HETATM   21  S   UNL     1       8.064  30.031  58.656  1.00  0.00    -0.107 SA
ENDBRANCH  16  17
ENDBRANCH  15  16
ENDBRANCH  13  15
ENDBRANCH   1  11
BRANCH   7  22
HETATM   22  C   UNL     1       6.386  34.280  68.262  1.00  0.00     0.010 A 
HETATM   23  C   UNL     1       5.708  33.977  69.465  1.00  0.00     0.152 A 
HETATM   24  N   UNL     1       6.431  34.256  70.554  1.00  0.00    -0.187 NA
HETATM   25  N   UNL     1       7.577  34.742  70.049  1.00  0.00    -0.289 N 
HETATM   26  H   UNL     1       8.303  35.030  70.697  1.00  0.00     0.188 HD
HETATM   27  C   UNL     1       7.603  34.774  68.685  1.00  0.00     0.123 A 
ENDBRANCH   7  22
TORSDOF 5
ENDMDL
MODEL 8
REMARK VINA RESULT:      -7.6      6.745     11.568
REMARK  5 active torsions:
REMARK  status: ('A' for Active; 'I' for Inactive)
REMARK       I    between atoms: C_2  and  N_3 
REMARK    1  A    between atoms: C_2  and  C_11 
REMARK    2  A    between atoms: N_3  and  C_4 
REMARK    3  A    between atoms: C_4  and  C_5 
REMARK    4  A    between atoms: C_5  and  C_6 
REMARK    5  A    between atoms: C_17  and  C_21 
ROOT
HETATM    1  C   UNL     1       6.491  32.207  60.330  1.00  0.00     0.059 A 
HETATM    2  C   UNL     1       5.190  32.541  59.981  1.00  0.00     0.106 A 
HETATM    3  N   UNL     1       4.565  33.071  61.078  1.00  0.00    -0.364 N 
HETATM    4  H   UNL     1       3.611  33.405  61.101  1.00  0.00     0.165 HD
HETATM    5  C   UNL     1       5.427  33.107  62.147  1.00  0.00     0.044 A 
HETATM    6  C   UNL     1       5.222  33.577  63.453  1.00  0.00     0.042 A 
HETATM    7  C   UNL     1       6.287  33.496  64.367  1.00  0.00    -0.021 A 
HETATM    8  C   UNL     1       7.510  32.955  63.955  1.00  0.00     0.013 A 
HETATM    9  C   UNL     1       7.696  32.493  62.644  1.00  0.00     0.016 A 
HETATM   10  C   UNL     1       6.638  32.569  61.715  1.00  0.00     0.008 A 
ENDROOT
BRANCH   1  11
HETATM   11  C   UNL     1       7.521  31.627  59.464  1.00  0.00     0.253 C 
HETATM   12  O   UNL     1       8.591  32.186  59.239  1.00  0.00    -0.268 OA
HETATM   13  N   UNL     1       7.209  30.395  58.926  1.00  0.00    -0.356 N 
HETATM   14  H   UNL     1       6.444  29.883  59.343  1.00  0.00     0.162 HD
BRANCH  13  15
HETATM   15  C   UNL     1       8.184  29.641  58.163  1.00  0.00     0.128 C 
BRANCH  15  16
HETATM   16  C   UNL     1       7.646  29.183  56.805  1.00  0.00     0.066 C 
BRANCH  16  17
HETATM   17  C   UNL     1       6.947  27.853  56.886  1.00  0.00    -0.016 A 
HETATM   18  C   UNL     1       5.637  27.560  56.560  1.00  0.00     0.015 A 
HETATM   19  C   UNL     1       5.326  26.183  56.760  1.00  0.00     0.008 A 
HETATM   20  C   UNL     1       6.406  25.474  57.236  1.00  0.00     0.050 A 
HETATM   21  S   UNL     1       7.785  26.464  57.440  1.00  0.00    -0.107 SA
ENDBRANCH  16  17
ENDBRANCH  15  16
ENDBRANCH  13  15
ENDBRANCH   1  11
BRANCH   7  22
HETATM   22  C   UNL     1       6.107  33.991  65.722  1.00  0.00     0.010 A 
HETATM   23  C   UNL     1       4.942  34.411  66.406  1.00  0.00     0.152 A 
HETATM   24  N   UNL     1       5.186  34.788  67.664  1.00  0.00    -0.187 NA
HETATM   25  N   UNL     1       6.512  34.612  67.790  1.00  0.00    -0.289 N 
HETATM   26  H   UNL     1       6.944  34.837  68.681  1.00  0.00     0.188 HD
HETATM   27  C   UNL     1       7.109  34.135  66.660  1.00  0.00     0.123 A 
ENDBRANCH   7  22
TORSDOF 5
ENDMDL
MODEL 9
REMARK VINA RESULT:      -7.3      6.706     10.171
REMARK  5 active torsions:
REMARK  status: ('A' for Active; 'I' for Inactive)
REMARK       I    between atoms: C_2  and  N_3 
REMARK    1  A    between atoms: C_2  and  C_11 
REMARK    2  A    between atoms: N_3  and  C_4 
REMARK    3  A    between atoms: C_4  and  C_5 
REMARK    4  A    between atoms: C_5  and  C_6 
REMARK    5  A    between atoms: C_17  and  C_21 
ROOT
HETATM    1  C   UNL     1       3.613  26.435  48.629  1.00  0.00     0.059 A 
HETATM    2  C   UNL     1       3.549  25.310  47.820  1.00  0.00     0.106 A 
HETATM    3  N   UNL     1       2.525  25.473  46.924  1.00  0.00    -0.364 N 
HETATM    4  H   UNL     1       2.261  24.805  46.213  1.00  0.00     0.165 HD
HETATM    5  C   UNL     1       1.915  26.688  47.114  1.00  0.00     0.044 A 
HETATM    6  C   UNL     1       0.843  27.275  46.425  1.00  0.00     0.042 A 
HETATM    7  C   UNL     1       0.406  28.549  46.828  1.00  0.00    -0.021 A 
HETATM    8  C   UNL     1       1.044  29.191  47.895  1.00  0.00     0.013 A 
HETATM    9  C   UNL     1       2.116  28.589  48.570  1.00  0.00     0.016 A 
HETATM   10  C   UNL     1       2.567  27.313  48.176  1.00  0.00     0.008 A 
ENDROOT
BRANCH   1  11
HETATM   11  C   UNL     1       4.567  26.696  49.711  1.00  0.00     0.253 C 
HETATM   12  O   UNL     1       5.271  27.700  49.746  1.00  0.00    -0.268 OA
HETATM   13  N   UNL     1       4.608  25.735  50.700  1.00  0.00    -0.356 N 
HETATM   14  H   UNL     1       3.841  25.078  50.747  1.00  0.00     0.162 HD
BRANCH  13  15
HETATM   15  C   UNL     1       5.402  25.924  51.899  1.00  0.00     0.128 C 
BRANCH  15  16
HETATM   16  C   UNL     1       5.114  24.872  52.971  1.00  0.00     0.066 C 
BRANCH  16  17
HETATM   17  C   UNL     1       6.373  24.275  53.538  1.00  0.00    -0.016 A 
HETATM   18  C   UNL     1       7.268  23.427  52.916  1.00  0.00     0.015 A 
HETATM   19  C   UNL     1       8.354  23.068  53.765  1.00  0.00     0.008 A 
HETATM   20  C   UNL     1       8.250  23.651  55.009  1.00  0.00     0.050 A 
HETATM   21  S   UNL     1       6.851  24.622  55.147  1.00  0.00    -0.107 SA
ENDBRANCH  16  17
ENDBRANCH  15  16
ENDBRANCH  13  15
ENDBRANCH   1  11
BRANCH   7  22
HETATM   22  C   UNL     1      -0.692  29.187  46.120  1.00  0.00     0.010 A 
HETATM   23  C   UNL     1      -1.523  30.270  46.488  1.00  0.00     0.152 A 
HETATM   24  N   UNL     1      -2.422  30.578  45.549  1.00  0.00    -0.187 NA
HETATM   25  N   UNL     1      -2.170  29.689  44.574  1.00  0.00    -0.289 N 
HETATM   26  H   UNL     1      -2.738  29.723  43.734  1.00  0.00     0.188 HD
HETATM   27  C   UNL     1      -1.144  28.837  44.865  1.00  0.00     0.123 A 
ENDBRANCH   7  22
TORSDOF 5
ENDMDL
MODEL 10
REMARK VINA RESULT:      -7.3      3.311      7.987
REMARK  5 active torsions:
REMARK  status: ('A' for Active; 'I' for Inactive)
REMARK       I    between atoms: C_2  and  N_3 
REMARK    1  A    between atoms: C_2  and  C_11 
REMARK    2  A    between atoms: N_3  and  C_4 
REMARK    3  A    between atoms: C_4  and  C_5 
REMARK    4  A    between atoms: C_5  and  C_6 
REMARK    5  A    between atoms: C_17  and  C_21 
ROOT
HETATM    1  C   UNL     1       7.786  27.427  56.885  1.00  0.00     0.059 A 
HETATM    2  C   UNL     1       8.655  28.461  57.201  1.00  0.00     0.106 A 
HETATM    3  N   UNL     1       8.031  29.653  56.944  1.00  0.00    -0.364 N 
HETATM    4  H   UNL     1       8.435  30.567  57.091  1.00  0.00     0.165 HD
HETATM    5  C   UNL     1       6.759  29.432  56.474  1.00  0.00     0.044 A 
HETATM    6  C   UNL     1       5.766  30.350  56.100  1.00  0.00     0.042 A 
HETATM    7  C   UNL     1       4.533  29.852  55.646  1.00  0.00    -0.021 A 
HETATM    8  C   UNL     1       4.330  28.469  55.579  1.00  0.00     0.013 A 
HETATM    9  C   UNL     1       5.334  27.567  55.960  1.00  0.00     0.016 A 
HETATM   10  C   UNL     1       6.576  28.051  56.420  1.00  0.00     0.008 A 
ENDROOT
BRANCH   1  11
HETATM   11  C   UNL     1       8.032  25.989  57.019  1.00  0.00     0.253 C 
HETATM   12  O   UNL     1       8.217  25.446  58.104  1.00  0.00    -0.268 OA
HETATM   13  N   UNL     1       8.027  25.280  55.835  1.00  0.00    -0.356 N 
HETATM   14  H   UNL     1       7.623  25.728  55.024  1.00  0.00     0.162 HD
BRANCH  13  15
HETATM   15  C   UNL     1       8.120  23.833  55.825  1.00  0.00     0.128 C 
BRANCH  15  16
HETATM   16  C   UNL     1       7.826  23.231  54.450  1.00  0.00     0.066 C 
BRANCH  16  17
HETATM   17  C   UNL     1       7.041  24.167  53.572  1.00  0.00    -0.016 A 
HETATM   18  C   UNL     1       5.714  24.530  53.688  1.00  0.00     0.015 A 
HETATM   19  C   UNL     1       5.313  25.447  52.674  1.00  0.00     0.008 A 
HETATM   20  C   UNL     1       6.346  25.751  51.816  1.00  0.00     0.050 A 
HETATM   21  S   UNL     1       7.788  24.932  52.233  1.00  0.00    -0.107 SA
ENDBRANCH  16  17
ENDBRANCH  15  16
ENDBRANCH  13  15
ENDBRANCH   1  11
BRANCH   7  22
HETATM   22  C   UNL     1       3.480  30.781  55.267  1.00  0.00     0.010 A 
HETATM   23  C   UNL     1       2.522  31.462  56.053  1.00  0.00     0.152 A 
HETATM   24  N   UNL     1       1.723  32.252  55.330  1.00  0.00    -0.187 NA
HETATM   25  N   UNL     1       2.166  32.076  54.074  1.00  0.00    -0.289 N 
HETATM   26  H   UNL     1       1.705  32.584  53.326  1.00  0.00     0.188 HD
HETATM   27  C   UNL     1       3.217  31.210  53.983  1.00  0.00     0.123 A 
ENDBRANCH   7  22
TORSDOF 5
ENDMDL
