MODEL 1
REMARK VINA RESULT:      -9.9      0.000      0.000
REMARK  3 active torsions:
REMARK  status: ('A' for Active; 'I' for Inactive)
REMARK    1  A    between atoms: C_3  and  C_4 
REMARK    2  A    between atoms: C_11  and  N_12 
REMARK       I    between atoms: N_12  and  C_13 
REMARK       I    between atoms: C_13  and  N_14 
REMARK    3  A    between atoms: N_14  and  C_15 
ROOT
HETATM    1  C   UNL     1       5.133  25.833  52.423  1.00  0.00     0.001 A 
HETATM    2  C   UNL     1       5.897  24.710  52.735  1.00  0.00     0.016 A 
HETATM    3  C   UNL     1       6.464  24.583  54.010  1.00  0.00     0.021 A 
HETATM    4  C   UNL     1       6.283  25.587  54.981  1.00  0.00     0.049 A 
HETATM    5  C   UNL     1       5.529  26.718  54.645  1.00  0.00     0.030 A 
HETATM    6  C   UNL     1       4.949  26.834  53.377  1.00  0.00     0.002 A 
ENDROOT
BRANCH   4   7
HETATM    7  N   UNL     1       6.946  25.487  56.219  1.00  0.00    -0.308 N 
HETATM    8  C   UNL     1       7.844  26.306  56.847  1.00  0.00     0.325 C 
HETATM    9  N   UNL     1       7.985  27.566  56.341  1.00  0.00    -0.306 N 
HETATM   10  O   UNL     1       8.361  25.889  57.882  1.00  0.00    -0.247 OA
HETATM   11  H   UNL     1       7.484  27.788  55.492  1.00  0.00     0.171 HD
HETATM   12  H   UNL     1       6.680  24.716  56.824  1.00  0.00     0.170 HD
BRANCH   9  13
HETATM   13  C   UNL     1       8.665  28.661  56.918  1.00  0.00     0.075 A 
HETATM   14  C   UNL     1       7.956  29.426  57.857  1.00  0.00     0.146 A 
HETATM   15  F   UNL     1       6.680  29.111  58.132  1.00  0.00    -0.204 F 
HETATM   16  C   UNL     1       8.539  30.499  58.518  1.00  0.00     0.086 A 
HETATM   17  C   UNL     1       9.861  30.811  58.241  1.00  0.00     0.119 A 
HETATM   18  F   UNL     1      10.446  31.832  58.880  1.00  0.00    -0.206 F 
HETATM   19  C   UNL     1      10.592  30.075  57.313  1.00  0.00     0.044 A 
HETATM   20  C   UNL     1       9.992  29.001  56.646  1.00  0.00     0.036 A 
ENDBRANCH   9  13
ENDBRANCH   4   7
BRANCH   3  21
HETATM   21  C   UNL     1       7.192  23.325  54.303  1.00  0.00     0.089 A 
HETATM   22  N   UNL     1       7.236  22.880  55.521  1.00  0.00    -0.171 NA
HETATM   23  N   UNL     1       7.914  21.711  55.717  1.00  0.00    -0.243 N 
HETATM   24  C   UNL     1       8.542  20.970  54.748  1.00  0.00     0.261 A 
HETATM   25  H   UNL     1       7.937  21.351  56.666  1.00  0.00     0.192 HD
HETATM   26  O   UNL     1       9.122  19.914  54.973  1.00  0.00    -0.267 OA
HETATM   27  C   UNL     1       8.492  21.525  53.382  1.00  0.00     0.078 A 
HETATM   28  C   UNL     1       7.853  22.672  53.146  1.00  0.00     0.040 A 
ENDBRANCH   3  21
TORSDOF 3
ENDMDL
MODEL 2
REMARK VINA RESULT:      -9.7      2.006      2.555
REMARK  3 active torsions:
REMARK  status: ('A' for Active; 'I' for Inactive)
REMARK    1  A    between atoms: C_3  and  C_4 
REMARK    2  A    between atoms: C_11  and  N_12 
REMARK       I    between atoms: N_12  and  C_13 
REMARK       I    between atoms: C_13  and  N_14 
REMARK    3  A    between atoms: N_14  and  C_15 
ROOT
HETATM    1  C   UNL     1       7.573  24.777  51.727  1.00  0.00     0.001 A 
HETATM    2  C   UNL     1       7.936  24.109  52.894  1.00  0.00     0.016 A 
HETATM    3  C   UNL     1       7.153  24.244  54.048  1.00  0.00     0.021 A 
HETATM    4  C   UNL     1       6.007  25.062  54.048  1.00  0.00     0.049 A 
HETATM    5  C   UNL     1       5.667  25.742  52.872  1.00  0.00     0.030 A 
HETATM    6  C   UNL     1       6.441  25.591  51.717  1.00  0.00     0.002 A 
ENDROOT
BRANCH   4   7
HETATM    7  N   UNL     1       5.294  25.264  55.246  1.00  0.00    -0.308 N 
HETATM    8  C   UNL     1       5.480  26.130  56.289  1.00  0.00     0.325 C 
HETATM    9  N   UNL     1       6.355  27.159  56.085  1.00  0.00    -0.306 N 
HETATM   10  O   UNL     1       4.762  25.986  57.277  1.00  0.00    -0.247 OA
HETATM   11  H   UNL     1       6.868  27.170  55.215  1.00  0.00     0.171 HD
HETATM   12  H   UNL     1       4.431  24.742  55.363  1.00  0.00     0.170 HD
BRANCH   9  13
HETATM   13  C   UNL     1       6.561  28.295  56.898  1.00  0.00     0.075 A 
HETATM   14  C   UNL     1       7.764  28.352  57.617  1.00  0.00     0.146 A 
HETATM   15  F   UNL     1       8.631  27.330  57.530  1.00  0.00    -0.204 F 
HETATM   16  C   UNL     1       8.090  29.442  58.414  1.00  0.00     0.086 A 
HETATM   17  C   UNL     1       7.199  30.501  58.489  1.00  0.00     0.119 A 
HETATM   18  F   UNL     1       7.502  31.568  59.238  1.00  0.00    -0.206 F 
HETATM   19  C   UNL     1       5.995  30.475  57.789  1.00  0.00     0.044 A 
HETATM   20  C   UNL     1       5.672  29.368  56.997  1.00  0.00     0.036 A 
ENDBRANCH   9  13
ENDBRANCH   4   7
BRANCH   3  21
HETATM   21  C   UNL     1       7.547  23.439  55.230  1.00  0.00     0.089 A 
HETATM   22  N   UNL     1       7.858  24.038  56.338  1.00  0.00    -0.171 NA
HETATM   23  N   UNL     1       8.200  23.235  57.389  1.00  0.00    -0.243 N 
HETATM   24  C   UNL     1       8.237  21.863  57.376  1.00  0.00     0.261 A 
HETATM   25  H   UNL     1       8.428  23.699  58.262  1.00  0.00     0.192 HD
HETATM   26  O   UNL     1       8.532  21.186  58.355  1.00  0.00    -0.267 OA
HETATM   27  C   UNL     1       7.904  21.223  56.090  1.00  0.00     0.078 A 
HETATM   28  C   UNL     1       7.577  21.969  55.033  1.00  0.00     0.040 A 
ENDBRANCH   3  21
TORSDOF 3
ENDMDL
MODEL 3
REMARK VINA RESULT:      -9.5      3.190      7.419
REMARK  3 active torsions:
REMARK  status: ('A' for Active; 'I' for Inactive)
REMARK    1  A    between atoms: C_3  and  C_4 
REMARK    2  A    between atoms: C_11  and  N_12 
REMARK       I    between atoms: N_12  and  C_13 
REMARK       I    between atoms: C_13  and  N_14 
REMARK    3  A    between atoms: N_14  and  C_15 
ROOT
HETATM    1  C   UNL     1       4.564  29.019  56.363  1.00  0.00     0.001 A 
HETATM    2  C   UNL     1       5.847  29.505  56.605  1.00  0.00     0.016 A 
HETATM    3  C   UNL     1       6.900  28.610  56.837  1.00  0.00     0.021 A 
HETATM    4  C   UNL     1       6.675  27.220  56.844  1.00  0.00     0.049 A 
HETATM    5  C   UNL     1       5.376  26.750  56.618  1.00  0.00     0.030 A 
HETATM    6  C   UNL     1       4.330  27.645  56.369  1.00  0.00     0.002 A 
ENDROOT
BRANCH   4   7
HETATM    7  N   UNL     1       7.725  26.345  57.181  1.00  0.00    -0.308 N 
HETATM    8  C   UNL     1       8.004  25.059  56.805  1.00  0.00     0.325 C 
HETATM    9  N   UNL     1       7.306  24.565  55.740  1.00  0.00    -0.306 N 
HETATM   10  O   UNL     1       8.937  24.495  57.372  1.00  0.00    -0.247 OA
HETATM   11  H   UNL     1       6.576  25.144  55.351  1.00  0.00     0.171 HD
HETATM   12  H   UNL     1       8.477  26.724  57.748  1.00  0.00     0.170 HD
BRANCH   9  13
HETATM   13  C   UNL     1       7.549  23.373  55.023  1.00  0.00     0.075 A 
HETATM   14  C   UNL     1       7.854  23.503  53.659  1.00  0.00     0.146 A 
HETATM   15  F   UNL     1       7.867  24.725  53.102  1.00  0.00    -0.204 F 
HETATM   16  C   UNL     1       8.151  22.401  52.867  1.00  0.00     0.086 A 
HETATM   17  C   UNL     1       8.151  21.144  53.450  1.00  0.00     0.119 A 
HETATM   18  F   UNL     1       8.450  20.071  52.708  1.00  0.00    -0.206 F 
HETATM   19  C   UNL     1       7.849  20.980  54.799  1.00  0.00     0.044 A 
HETATM   20  C   UNL     1       7.542  22.096  55.587  1.00  0.00     0.036 A 
ENDBRANCH   9  13
ENDBRANCH   4   7
BRANCH   3  21
HETATM   21  C   UNL     1       8.255  29.190  57.003  1.00  0.00     0.089 A 
HETATM   22  N   UNL     1       9.106  29.115  56.027  1.00  0.00    -0.171 NA
HETATM   23  N   UNL     1      10.332  29.679  56.244  1.00  0.00    -0.243 N 
HETATM   24  C   UNL     1      10.734  30.317  57.390  1.00  0.00     0.261 A 
HETATM   25  H   UNL     1      10.995  29.638  55.476  1.00  0.00     0.192 HD
HETATM   26  O   UNL     1      11.841  30.825  57.528  1.00  0.00    -0.267 OA
HETATM   27  C   UNL     1       9.747  30.355  58.485  1.00  0.00     0.078 A 
HETATM   28  C   UNL     1       8.542  29.804  58.323  1.00  0.00     0.040 A 
ENDBRANCH   3  21
TORSDOF 3
ENDMDL
MODEL 4
REMARK VINA RESULT:      -9.4      2.502      4.273
REMARK  3 active torsions:
REMARK  status: ('A' for Active; 'I' for Inactive)
REMARK    1  A    between atoms: C_3  and  C_4 
REMARK    2  A    between atoms: C_11  and  N_12 
REMARK       I    between atoms: N_12  and  C_13 
REMARK       I    between atoms: C_13  and  N_14 
REMARK    3  A    between atoms: N_14  and  C_15 
ROOT
HETATM    1  C   UNL     1       8.819  22.218  53.444  1.00  0.00     0.001 A 
HETATM    2  C   UNL     1       7.946  23.179  52.939  1.00  0.00     0.016 A 
HETATM    3  C   UNL     1       7.058  23.837  53.801  1.00  0.00     0.021 A 
HETATM    4  C   UNL     1       7.026  23.528  55.174  1.00  0.00     0.049 A 
HETATM    5  C   UNL     1       7.897  22.546  55.662  1.00  0.00     0.030 A 
HETATM    6  C   UNL     1       8.795  21.904  54.803  1.00  0.00     0.002 A 
ENDROOT
BRANCH   4   7
HETATM    7  N   UNL     1       6.057  24.128  56.002  1.00  0.00    -0.308 N 
HETATM    8  C   UNL     1       6.054  25.297  56.713  1.00  0.00     0.325 C 
HETATM    9  N   UNL     1       7.043  26.193  56.426  1.00  0.00    -0.306 N 
HETATM   10  O   UNL     1       5.100  25.499  57.462  1.00  0.00    -0.247 OA
HETATM   11  H   UNL     1       7.758  25.907  55.772  1.00  0.00     0.171 HD
HETATM   12  H   UNL     1       5.148  23.678  56.047  1.00  0.00     0.170 HD
BRANCH   9  13
HETATM   13  C   UNL     1       7.142  27.538  56.845  1.00  0.00     0.075 A 
HETATM   14  C   UNL     1       6.416  28.488  56.111  1.00  0.00     0.146 A 
HETATM   15  F   UNL     1       5.703  28.089  55.044  1.00  0.00    -0.204 F 
HETATM   16  C   UNL     1       6.407  29.832  56.459  1.00  0.00     0.086 A 
HETATM   17  C   UNL     1       7.132  30.236  57.569  1.00  0.00     0.119 A 
HETATM   18  F   UNL     1       7.123  31.525  57.931  1.00  0.00    -0.206 F 
HETATM   19  C   UNL     1       7.865  29.320  58.318  1.00  0.00     0.044 A 
HETATM   20  C   UNL     1       7.876  27.969  57.952  1.00  0.00     0.036 A 
ENDBRANCH   9  13
ENDBRANCH   4   7
BRANCH   3  21
HETATM   21  C   UNL     1       6.217  24.909  53.214  1.00  0.00     0.089 A 
HETATM   22  N   UNL     1       4.938  24.906  53.426  1.00  0.00    -0.171 NA
HETATM   23  N   UNL     1       4.225  25.928  52.865  1.00  0.00    -0.243 N 
HETATM   24  C   UNL     1       4.742  26.951  52.110  1.00  0.00     0.261 A 
HETATM   25  H   UNL     1       3.226  25.939  53.043  1.00  0.00     0.192 HD
HETATM   26  O   UNL     1       4.061  27.857  51.644  1.00  0.00    -0.267 OA
HETATM   27  C   UNL     1       6.196  26.901  51.869  1.00  0.00     0.078 A 
HETATM   28  C   UNL     1       6.929  25.913  52.386  1.00  0.00     0.040 A 
ENDBRANCH   3  21
TORSDOF 3
ENDMDL
MODEL 5
REMARK VINA RESULT:      -9.3      2.772      4.716
REMARK  3 active torsions:
REMARK  status: ('A' for Active; 'I' for Inactive)
REMARK    1  A    between atoms: C_3  and  C_4 
REMARK    2  A    between atoms: C_11  and  N_12 
REMARK       I    between atoms: N_12  and  C_13 
REMARK       I    between atoms: C_13  and  N_14 
REMARK    3  A    between atoms: N_14  and  C_15 
ROOT
HETATM    1  C   UNL     1       8.143  23.510  52.971  1.00  0.00     0.001 A 
HETATM    2  C   UNL     1       7.616  24.667  52.403  1.00  0.00     0.016 A 
HETATM    3  C   UNL     1       6.729  25.464  53.139  1.00  0.00     0.021 A 
HETATM    4  C   UNL     1       6.350  25.101  54.446  1.00  0.00     0.049 A 
HETATM    5  C   UNL     1       6.875  23.924  54.994  1.00  0.00     0.030 A 
HETATM    6  C   UNL     1       7.773  23.140  54.264  1.00  0.00     0.002 A 
ENDROOT
BRANCH   4   7
HETATM    7  N   UNL     1       5.379  25.860  55.128  1.00  0.00    -0.308 N 
HETATM    8  C   UNL     1       5.483  26.841  56.077  1.00  0.00     0.325 C 
HETATM    9  N   UNL     1       6.721  27.383  56.268  1.00  0.00    -0.306 N 
HETATM   10  O   UNL     1       4.440  27.238  56.593  1.00  0.00    -0.247 OA
HETATM   11  H   UNL     1       7.494  26.974  55.762  1.00  0.00     0.171 HD
HETATM   12  H   UNL     1       4.414  25.742  54.837  1.00  0.00     0.170 HD
BRANCH   9  13
HETATM   13  C   UNL     1       7.057  28.536  57.011  1.00  0.00     0.075 A 
HETATM   14  C   UNL     1       8.381  28.637  57.465  1.00  0.00     0.146 A 
HETATM   15  F   UNL     1       9.241  27.637  57.208  1.00  0.00    -0.204 F 
HETATM   16  C   UNL     1       8.832  29.746  58.168  1.00  0.00     0.086 A 
HETATM   17  C   UNL     1       7.944  30.781  58.417  1.00  0.00     0.119 A 
HETATM   18  F   UNL     1       8.364  31.866  59.079  1.00  0.00    -0.206 F 
HETATM   19  C   UNL     1       6.623  30.712  57.983  1.00  0.00     0.044 A 
HETATM   20  C   UNL     1       6.176  29.585  57.284  1.00  0.00     0.036 A 
ENDBRANCH   9  13
ENDBRANCH   4   7
BRANCH   3  21
HETATM   21  C   UNL     1       6.272  26.726  52.509  1.00  0.00     0.089 A 
HETATM   22  N   UNL     1       6.502  27.857  53.101  1.00  0.00    -0.171 NA
HETATM   23  N   UNL     1       6.063  28.981  52.459  1.00  0.00    -0.243 N 
HETATM   24  C   UNL     1       5.414  29.017  51.251  1.00  0.00     0.261 A 
HETATM   25  H   UNL     1       6.256  29.868  52.912  1.00  0.00     0.192 HD
HETATM   26  O   UNL     1       5.058  30.056  50.706  1.00  0.00    -0.267 OA
HETATM   27  C   UNL     1       5.149  27.709  50.625  1.00  0.00     0.078 A 
HETATM   28  C   UNL     1       5.546  26.584  51.223  1.00  0.00     0.040 A 
ENDBRANCH   3  21
TORSDOF 3
ENDMDL
MODEL 6
REMARK VINA RESULT:      -9.2      3.571      8.475
REMARK  3 active torsions:
REMARK  status: ('A' for Active; 'I' for Inactive)
REMARK    1  A    between atoms: C_3  and  C_4 
REMARK    2  A    between atoms: C_11  and  N_12 
REMARK       I    between atoms: N_12  and  C_13 
REMARK       I    between atoms: C_13  and  N_14 
REMARK    3  A    between atoms: N_14  and  C_15 
ROOT
HETATM    1  C   UNL     1      11.109  30.492  57.405  1.00  0.00     0.001 A 
HETATM    2  C   UNL     1      10.299  30.950  58.442  1.00  0.00     0.016 A 
HETATM    3  C   UNL     1       9.039  30.374  58.649  1.00  0.00     0.021 A 
HETATM    4  C   UNL     1       8.572  29.344  57.810  1.00  0.00     0.049 A 
HETATM    5  C   UNL     1       9.391  28.909  56.761  1.00  0.00     0.030 A 
HETATM    6  C   UNL     1      10.656  29.473  56.567  1.00  0.00     0.002 A 
ENDROOT
BRANCH   4   7
HETATM    7  N   UNL     1       7.262  28.851  57.973  1.00  0.00    -0.308 N 
HETATM    8  C   UNL     1       6.383  28.276  57.096  1.00  0.00     0.325 C 
HETATM    9  N   UNL     1       6.890  27.870  55.895  1.00  0.00    -0.306 N 
HETATM   10  O   UNL     1       5.242  28.061  57.501  1.00  0.00    -0.247 OA
HETATM   11  H   UNL     1       7.855  28.092  55.696  1.00  0.00     0.171 HD
HETATM   12  H   UNL     1       6.891  28.833  58.918  1.00  0.00     0.170 HD
BRANCH   9  13
HETATM   13  C   UNL     1       6.264  27.066  54.917  1.00  0.00     0.075 A 
HETATM   14  C   UNL     1       6.655  25.720  54.856  1.00  0.00     0.146 A 
HETATM   15  F   UNL     1       7.611  25.275  55.688  1.00  0.00    -0.204 F 
HETATM   16  C   UNL     1       6.076  24.829  53.963  1.00  0.00     0.086 A 
HETATM   17  C   UNL     1       5.079  25.290  53.116  1.00  0.00     0.119 A 
HETATM   18  F   UNL     1       4.497  24.443  52.259  1.00  0.00    -0.206 F 
HETATM   19  C   UNL     1       4.670  26.620  53.150  1.00  0.00     0.044 A 
HETATM   20  C   UNL     1       5.267  27.512  54.047  1.00  0.00     0.036 A 
ENDBRANCH   9  13
ENDBRANCH   4   7
BRANCH   3  21
HETATM   21  C   UNL     1       8.264  30.848  59.821  1.00  0.00     0.089 A 
HETATM   22  N   UNL     1       7.088  31.367  59.644  1.00  0.00    -0.171 NA
HETATM   23  N   UNL     1       6.426  31.773  60.768  1.00  0.00    -0.243 N 
HETATM   24  C   UNL     1       6.889  31.674  62.056  1.00  0.00     0.261 A 
HETATM   25  H   UNL     1       5.499  32.163  60.635  1.00  0.00     0.192 HD
HETATM   26  O   UNL     1       6.246  32.036  63.034  1.00  0.00    -0.267 OA
HETATM   27  C   UNL     1       8.241  31.105  62.211  1.00  0.00     0.078 A 
HETATM   28  C   UNL     1       8.930  30.709  61.139  1.00  0.00     0.040 A 
ENDBRANCH   3  21
TORSDOF 3
ENDMDL
MODEL 7
REMARK VINA RESULT:      -9.1      8.122     12.534
REMARK  3 active torsions:
REMARK  status: ('A' for Active; 'I' for Inactive)
REMARK    1  A    between atoms: C_3  and  C_4 
REMARK    2  A    between atoms: C_11  and  N_12 
REMARK       I    between atoms: N_12  and  C_13 
REMARK       I    between atoms: C_13  and  N_14 
REMARK    3  A    between atoms: N_14  and  C_15 
ROOT
HETATM    1  C   UNL     1       3.443  37.087  63.000  1.00  0.00     0.001 A 
HETATM    2  C   UNL     1       4.073  36.678  64.173  1.00  0.00     0.016 A 
HETATM    3  C   UNL     1       4.413  35.330  64.348  1.00  0.00     0.021 A 
HETATM    4  C   UNL     1       4.114  34.377  63.355  1.00  0.00     0.049 A 
HETATM    5  C   UNL     1       3.464  34.803  62.191  1.00  0.00     0.030 A 
HETATM    6  C   UNL     1       3.140  36.152  62.011  1.00  0.00     0.002 A 
ENDROOT
BRANCH   4   7
HETATM    7  N   UNL     1       4.373  33.014  63.596  1.00  0.00    -0.308 N 
HETATM    8  C   UNL     1       5.121  32.089  62.920  1.00  0.00     0.325 C 
HETATM    9  N   UNL     1       5.976  32.567  61.969  1.00  0.00    -0.306 N 
HETATM   10  O   UNL     1       5.055  30.922  63.301  1.00  0.00    -0.247 OA
HETATM   11  H   UNL     1       5.945  33.557  61.767  1.00  0.00     0.171 HD
HETATM   12  H   UNL     1       4.017  32.623  64.463  1.00  0.00     0.170 HD
BRANCH   9  13
HETATM   13  C   UNL     1       7.001  31.868  61.294  1.00  0.00     0.075 A 
HETATM   14  C   UNL     1       6.906  31.795  59.896  1.00  0.00     0.146 A 
HETATM   15  F   UNL     1       5.850  32.352  59.279  1.00  0.00    -0.204 F 
HETATM   16  C   UNL     1       7.879  31.169  59.127  1.00  0.00     0.086 A 
HETATM   17  C   UNL     1       8.973  30.610  59.767  1.00  0.00     0.119 A 
HETATM   18  F   UNL     1       9.929  30.016  59.043  1.00  0.00    -0.206 F 
HETATM   19  C   UNL     1       9.096  30.662  61.153  1.00  0.00     0.044 A 
HETATM   20  C   UNL     1       8.106  31.286  61.919  1.00  0.00     0.036 A 
ENDBRANCH   9  13
ENDBRANCH   4   7
BRANCH   3  21
HETATM   21  C   UNL     1       5.158  34.976  65.581  1.00  0.00     0.089 A 
HETATM   22  N   UNL     1       6.250  34.281  65.492  1.00  0.00    -0.171 NA
HETATM   23  N   UNL     1       6.890  34.000  66.666  1.00  0.00    -0.243 N 
HETATM   24  C   UNL     1       6.486  34.391  67.918  1.00  0.00     0.261 A 
HETATM   25  H   UNL     1       7.753  33.471  66.599  1.00  0.00     0.192 HD
HETATM   26  O   UNL     1       7.108  34.129  68.941  1.00  0.00    -0.267 OA
HETATM   27  C   UNL     1       5.226  35.155  67.977  1.00  0.00     0.078 A 
HETATM   28  C   UNL     1       4.559  35.440  66.857  1.00  0.00     0.040 A 
ENDBRANCH   3  21
TORSDOF 3
ENDMDL
MODEL 8
REMARK VINA RESULT:      -9.0      3.415      8.439
REMARK  3 active torsions:
REMARK  status: ('A' for Active; 'I' for Inactive)
REMARK    1  A    between atoms: C_3  and  C_4 
REMARK    2  A    between atoms: C_11  and  N_12 
REMARK       I    between atoms: N_12  and  C_13 
REMARK       I    between atoms: C_13  and  N_14 
REMARK    3  A    between atoms: N_14  and  C_15 
ROOT
HETATM    1  C   UNL     1      11.156  30.826  57.548  1.00  0.00     0.001 A 
HETATM    2  C   UNL     1      10.190  31.236  58.464  1.00  0.00     0.016 A 
HETATM    3  C   UNL     1       9.008  30.498  58.608  1.00  0.00     0.021 A 
HETATM    4  C   UNL     1       8.776  29.351  57.826  1.00  0.00     0.049 A 
HETATM    5  C   UNL     1       9.749  28.964  56.897  1.00  0.00     0.030 A 
HETATM    6  C   UNL     1      10.936  29.692  56.767  1.00  0.00     0.002 A 
ENDROOT
BRANCH   4   7
HETATM    7  N   UNL     1       7.538  28.684  57.915  1.00  0.00    -0.308 N 
HETATM    8  C   UNL     1       7.085  27.514  57.368  1.00  0.00     0.325 C 
HETATM    9  N   UNL     1       8.024  26.688  56.821  1.00  0.00    -0.306 N 
HETATM   10  O   UNL     1       5.895  27.245  57.518  1.00  0.00    -0.247 OA
HETATM   11  H   UNL     1       8.976  27.024  56.780  1.00  0.00     0.171 HD
HETATM   12  H   UNL     1       6.851  29.072  58.553  1.00  0.00     0.170 HD
BRANCH   9  13
HETATM   13  C   UNL     1       7.860  25.351  56.397  1.00  0.00     0.075 A 
HETATM   14  C   UNL     1       7.313  25.151  55.121  1.00  0.00     0.146 A 
HETATM   15  F   UNL     1       6.945  26.216  54.390  1.00  0.00    -0.204 F 
HETATM   16  C   UNL     1       7.147  23.880  54.586  1.00  0.00     0.086 A 
HETATM   17  C   UNL     1       7.542  22.786  55.338  1.00  0.00     0.119 A 
HETATM   18  F   UNL     1       7.404  21.553  54.834  1.00  0.00    -0.206 F 
HETATM   19  C   UNL     1       8.086  22.948  56.609  1.00  0.00     0.044 A 
HETATM   20  C   UNL     1       8.240  24.233  57.143  1.00  0.00     0.036 A 
ENDBRANCH   9  13
ENDBRANCH   4   7
BRANCH   3  21
HETATM   21  C   UNL     1       8.060  30.940  59.660  1.00  0.00     0.089 A 
HETATM   22  N   UNL     1       6.884  31.369  59.323  1.00  0.00    -0.171 NA
HETATM   23  N   UNL     1       6.059  31.749  60.343  1.00  0.00    -0.243 N 
HETATM   24  C   UNL     1       6.361  31.710  61.681  1.00  0.00     0.261 A 
HETATM   25  H   UNL     1       5.132  32.070  60.084  1.00  0.00     0.192 HD
HETATM   26  O   UNL     1       5.576  32.044  62.561  1.00  0.00    -0.267 OA
HETATM   27  C   UNL     1       7.717  31.241  62.020  1.00  0.00     0.078 A 
HETATM   28  C   UNL     1       8.562  30.874  61.055  1.00  0.00     0.040 A 
ENDBRANCH   3  21
TORSDOF 3
ENDMDL
MODEL 9
REMARK VINA RESULT:      -8.9      9.024     12.251
REMARK  3 active torsions:
REMARK  status: ('A' for Active; 'I' for Inactive)
REMARK    1  A    between atoms: C_3  and  C_4 
REMARK    2  A    between atoms: C_11  and  N_12 
REMARK       I    between atoms: N_12  and  C_13 
REMARK       I    between atoms: C_13  and  N_14 
REMARK    3  A    between atoms: N_14  and  C_15 
ROOT
HETATM    1  C   UNL     1       4.629  36.629  66.179  1.00  0.00     0.001 A 
HETATM    2  C   UNL     1       4.041  36.428  64.933  1.00  0.00     0.016 A 
HETATM    3  C   UNL     1       3.976  35.137  64.391  1.00  0.00     0.021 A 
HETATM    4  C   UNL     1       4.514  34.037  65.087  1.00  0.00     0.049 A 
HETATM    5  C   UNL     1       5.119  34.260  66.330  1.00  0.00     0.030 A 
HETATM    6  C   UNL     1       5.166  35.547  66.876  1.00  0.00     0.002 A 
ENDROOT
BRANCH   4   7
HETATM    7  N   UNL     1       4.530  32.767  64.479  1.00  0.00    -0.308 N 
HETATM    8  C   UNL     1       5.258  32.258  63.438  1.00  0.00     0.325 C 
HETATM    9  N   UNL     1       6.336  32.987  63.027  1.00  0.00    -0.306 N 
HETATM   10  O   UNL     1       4.958  31.135  63.036  1.00  0.00    -0.247 OA
HETATM   11  H   UNL     1       6.481  33.890  63.457  1.00  0.00     0.171 HD
HETATM   12  H   UNL     1       3.965  32.042  64.910  1.00  0.00     0.170 HD
BRANCH   9  13
HETATM   13  C   UNL     1       7.363  32.593  62.141  1.00  0.00     0.075 A 
HETATM   14  C   UNL     1       7.087  32.684  60.768  1.00  0.00     0.146 A 
HETATM   15  F   UNL     1       5.874  33.099  60.368  1.00  0.00    -0.204 F 
HETATM   16  C   UNL     1       8.038  32.363  59.808  1.00  0.00     0.086 A 
HETATM   17  C   UNL     1       9.292  31.949  60.226  1.00  0.00     0.119 A 
HETATM   18  F   UNL     1      10.227  31.651  59.316  1.00  0.00    -0.206 F 
HETATM   19  C   UNL     1       9.597  31.846  61.581  1.00  0.00     0.044 A 
HETATM   20  C   UNL     1       8.630  32.162  62.541  1.00  0.00     0.036 A 
ENDBRANCH   9  13
ENDBRANCH   4   7
BRANCH   3  21
HETATM   21  C   UNL     1       3.261  34.981  63.101  1.00  0.00     0.089 A 
HETATM   22  N   UNL     1       2.183  34.262  63.051  1.00  0.00    -0.171 NA
HETATM   23  N   UNL     1       1.570  34.169  61.833  1.00  0.00    -0.243 N 
HETATM   24  C   UNL     1       1.988  34.770  60.672  1.00  0.00     0.261 A 
HETATM   25  H   UNL     1       0.717  33.622  61.793  1.00  0.00     0.192 HD
HETATM   26  O   UNL     1       1.389  34.672  59.607  1.00  0.00    -0.267 OA
HETATM   27  C   UNL     1       3.233  35.555  60.767  1.00  0.00     0.078 A 
HETATM   28  C   UNL     1       3.873  35.661  61.933  1.00  0.00     0.040 A 
ENDBRANCH   3  21
TORSDOF 3
ENDMDL
MODEL 10
REMARK VINA RESULT:      -8.8      4.478      7.534
REMARK  3 active torsions:
REMARK  status: ('A' for Active; 'I' for Inactive)
REMARK    1  A    between atoms: C_3  and  C_4 
REMARK    2  A    between atoms: C_11  and  N_12 
REMARK       I    between atoms: N_12  and  C_13 
REMARK       I    between atoms: C_13  and  N_14 
REMARK    3  A    between atoms: N_14  and  C_15 
ROOT
HETATM    1  C   UNL     1       7.952  24.166  55.381  1.00  0.00     0.001 A 
HETATM    2  C   UNL     1       7.736  25.417  55.954  1.00  0.00     0.016 A 
HETATM    3  C   UNL     1       6.602  26.160  55.601  1.00  0.00     0.021 A 
HETATM    4  C   UNL     1       5.680  25.663  54.659  1.00  0.00     0.049 A 
HETATM    5  C   UNL     1       5.923  24.412  54.078  1.00  0.00     0.030 A 
HETATM    6  C   UNL     1       7.046  23.665  54.445  1.00  0.00     0.002 A 
ENDROOT
BRANCH   4   7
HETATM    7  N   UNL     1       4.603  26.471  54.243  1.00  0.00    -0.308 N 
HETATM    8  C   UNL     1       4.448  27.314  53.177  1.00  0.00     0.325 C 
HETATM    9  N   UNL     1       5.377  27.222  52.180  1.00  0.00    -0.306 N 
HETATM   10  O   UNL     1       3.427  27.997  53.143  1.00  0.00    -0.247 OA
HETATM   11  H   UNL     1       6.161  26.602  52.328  1.00  0.00     0.171 HD
HETATM   12  H   UNL     1       3.735  26.383  54.762  1.00  0.00     0.170 HD
BRANCH   9  13
HETATM   13  C   UNL     1       5.330  27.807  50.896  1.00  0.00     0.075 A 
HETATM   14  C   UNL     1       4.914  26.984  49.838  1.00  0.00     0.146 A 
HETATM   15  F   UNL     1       4.620  25.696  50.084  1.00  0.00    -0.204 F 
HETATM   16  C   UNL     1       4.790  27.465  48.541  1.00  0.00     0.086 A 
HETATM   17  C   UNL     1       5.081  28.797  48.296  1.00  0.00     0.119 A 
HETATM   18  F   UNL     1       4.952  29.284  47.055  1.00  0.00    -0.206 F 
HETATM   19  C   UNL     1       5.499  29.640  49.322  1.00  0.00     0.044 A 
HETATM   20  C   UNL     1       5.630  29.143  50.624  1.00  0.00     0.036 A 
ENDBRANCH   9  13
ENDBRANCH   4   7
BRANCH   3  21
HETATM   21  C   UNL     1       6.388  27.444  56.311  1.00  0.00     0.089 A 
HETATM   22  N   UNL     1       5.286  27.635  56.969  1.00  0.00    -0.171 NA
HETATM   23  N   UNL     1       5.160  28.836  57.608  1.00  0.00    -0.243 N 
HETATM   24  C   UNL     1       6.090  29.844  57.621  1.00  0.00     0.261 A 
HETATM   25  H   UNL     1       4.307  28.983  58.138  1.00  0.00     0.192 HD
HETATM   26  O   UNL     1       5.937  30.898  58.228  1.00  0.00    -0.267 OA
HETATM   27  C   UNL     1       7.316  29.598  56.838  1.00  0.00     0.078 A 
HETATM   28  C   UNL     1       7.475  28.445  56.186  1.00  0.00     0.040 A 
ENDBRANCH   3  21
TORSDOF 3
ENDMDL
