MODEL 1
REMARK VINA RESULT:     -11.1      0.000      0.000
REMARK  8 active torsions:
REMARK  status: ('A' for Active; 'I' for Inactive)
REMARK    1  A    between atoms: C_4  and  N_5 
REMARK       I    between atoms: N_5  and  C_6 
REMARK    2  A    between atoms: C_6  and  C_7 
REMARK    3  A    between atoms: C_10  and  N_11 
REMARK       I    between atoms: N_11  and  C_12 
REMARK       I    between atoms: C_12  and  N_21 
REMARK    4  A    between atoms: N_21  and  CA_22 
REMARK    5  A    between atoms: CA_22  and  C_23 
REMARK    6  A    between atoms: CA_22  and  CB_25 
REMARK    7  A    between atoms: C_23  and  O_24 
REMARK    8  A    between atoms: CB_25  and  CG_26 
ROOT
HETATM    1  N   UNK A   0       8.042  30.624  57.944  1.00  0.00    -0.309 N 
HETATM    2  C   UNK A   0       8.162  31.181  59.176  1.00  0.00     0.321 C 
HETATM    3  O   UNK A   0       8.732  32.268  59.273  1.00  0.00    -0.247 OA
HETATM    4  H   UNK A   0       8.406  31.269  57.252  1.00  0.00     0.170 HD
ATOM      5  N   TRP A   1       7.620  30.539  60.243  1.00  0.00    -0.336 N 
ATOM      6  H   TRP A   1       6.722  30.123  60.036  1.00  0.00     0.164 HD
ENDROOT
BRANCH   1   7
HETATM    7  C   UNK A   0       7.641  29.369  57.455  1.00  0.00     0.036 A 
HETATM    8  C   UNK A   0       6.334  28.995  57.149  1.00  0.00     0.030 A 
HETATM    9  C   UNK A   0       6.038  27.692  56.706  1.00  0.00     0.019 A 
HETATM   10  C   UNK A   0       7.049  26.732  56.588  1.00  0.00     0.032 A 
HETATM   11  C   UNK A   0       8.365  27.113  56.882  1.00  0.00     0.019 A 
HETATM   12  C   UNK A   0       8.654  28.412  57.310  1.00  0.00     0.030 A 
BRANCH  10  13
HETATM   13  C   UNK A   0       6.819  25.306  56.184  1.00  0.00     0.256 C 
HETATM   14  N   UNK A   0       7.915  24.619  55.686  1.00  0.00    -0.323 N 
HETATM   15  H   UNK A   0       8.807  25.087  55.678  1.00  0.00     0.169 HD
HETATM   16  O   UNK A   0       5.684  24.856  56.300  1.00  0.00    -0.267 OA
BRANCH  14  17
HETATM   17  C   UNK A   0       7.920  23.324  55.117  1.00  0.00     0.035 A 
HETATM   18  C   UNK A   0       7.912  22.142  55.861  1.00  0.00     0.029 A 
HETATM   19  C   UNK A   0       7.876  20.899  55.220  1.00  0.00     0.002 A 
HETATM   20  C   UNK A   0       7.856  20.825  53.830  1.00  0.00     0.000 A 
HETATM   21  C   UNK A   0       7.871  21.996  53.077  1.00  0.00     0.002 A 
HETATM   22  C   UNK A   0       7.897  23.239  53.718  1.00  0.00     0.029 A 
ENDBRANCH  14  17
ENDBRANCH  10  13
ENDBRANCH   1   7
BRANCH   5  23
ATOM     23  CA  TRP A   1       7.671  31.165  61.575  1.00  0.00     0.114 C 
BRANCH  23  24
ATOM     24  C   TRP A   1       9.100  31.057  62.139  1.00  0.00     0.189 C 
BRANCH  24  25
ATOM     25  O   TRP A   1       9.471  29.683  62.273  1.00  0.00    -0.399 OA
ATOM     26  H   TRP A   1       8.658  29.200  62.501  1.00  0.00     0.209 HD
ENDBRANCH  24  25
ENDBRANCH  23  24
BRANCH  23  27
ATOM     27  CB  TRP A   1       7.210  32.637  61.524  1.00  0.00     0.068 C 
BRANCH  27  28
ATOM     28  CG  TRP A   1       6.082  32.922  62.475  1.00  0.00    -0.028 A 
ATOM     29  CD2 TRP A   1       6.176  33.294  63.855  1.00  0.00    -0.002 A 
ATOM     30  CE2 TRP A   1       4.878  33.499  64.324  1.00  0.00     0.042 A 
ATOM     31  CE3 TRP A   1       7.246  33.483  64.752  1.00  0.00     0.014 A 
ATOM     32  CZ2 TRP A   1       4.598  33.904  65.635  1.00  0.00     0.030 A 
ATOM     33  NE1 TRP A   1       4.024  33.232  63.281  1.00  0.00    -0.365 N 
ATOM     34  CH2 TRP A   1       5.681  34.105  66.495  1.00  0.00     0.002 A 
ATOM     35  CZ3 TRP A   1       6.988  33.895  66.064  1.00  0.00     0.001 A 
ATOM     36  HE1 TRP A   1       3.017  33.297  63.335  1.00  0.00     0.165 HD
ATOM     37  CD1 TRP A   1       4.734  32.877  62.167  1.00  0.00     0.096 A 
ENDBRANCH  27  28
ENDBRANCH  23  27
ENDBRANCH   5  23
TORSDOF 8
ENDMDL
MODEL 2
REMARK VINA RESULT:     -11.0      1.896     11.500
REMARK  8 active torsions:
REMARK  status: ('A' for Active; 'I' for Inactive)
REMARK    1  A    between atoms: C_4  and  N_5 
REMARK       I    between atoms: N_5  and  C_6 
REMARK    2  A    between atoms: C_6  and  C_7 
REMARK    3  A    between atoms: C_10  and  N_11 
REMARK       I    between atoms: N_11  and  C_12 
REMARK       I    between atoms: C_12  and  N_21 
REMARK    4  A    between atoms: N_21  and  CA_22 
REMARK    5  A    between atoms: CA_22  and  C_23 
REMARK    6  A    between atoms: CA_22  and  CB_25 
REMARK    7  A    between atoms: C_23  and  O_24 
REMARK    8  A    between atoms: CB_25  and  CG_26 
ROOT
HETATM    1  N   UNK A   0       8.138  28.842  55.184  1.00  0.00    -0.309 N 
HETATM    2  C   UNK A   0       7.507  27.800  54.584  1.00  0.00     0.321 C 
HETATM    3  O   UNK A   0       7.779  27.550  53.410  1.00  0.00    -0.247 OA
HETATM    4  H   UNK A   0       8.825  29.225  54.545  1.00  0.00     0.170 HD
ATOM      5  N   TRP A   1       6.631  27.057  55.309  1.00  0.00    -0.336 N 
ATOM      6  H   TRP A   1       6.945  26.891  56.255  1.00  0.00     0.164 HD
ENDROOT
BRANCH   1   7
HETATM    7  C   UNK A   0       7.980  29.535  56.396  1.00  0.00     0.036 A 
HETATM    8  C   UNK A   0       6.784  30.061  56.884  1.00  0.00     0.030 A 
HETATM    9  C   UNK A   0       6.749  30.780  58.093  1.00  0.00     0.019 A 
HETATM   10  C   UNK A   0       7.921  31.007  58.822  1.00  0.00     0.032 A 
HETATM   11  C   UNK A   0       9.120  30.467  58.339  1.00  0.00     0.019 A 
HETATM   12  C   UNK A   0       9.147  29.744  57.143  1.00  0.00     0.030 A 
BRANCH  10  13
HETATM   13  C   UNK A   0       7.989  31.812  60.086  1.00  0.00     0.256 C 
HETATM   14  N   UNK A   0       7.197  31.381  61.138  1.00  0.00    -0.323 N 
HETATM   15  H   UNK A   0       6.672  30.529  61.022  1.00  0.00     0.169 HD
HETATM   16  O   UNK A   0       8.716  32.800  60.095  1.00  0.00    -0.267 OA
BRANCH  14  17
HETATM   17  C   UNK A   0       6.986  32.042  62.370  1.00  0.00     0.035 A 
HETATM   18  C   UNK A   0       8.010  32.546  63.175  1.00  0.00     0.029 A 
HETATM   19  C   UNK A   0       7.714  33.225  64.362  1.00  0.00     0.002 A 
HETATM   20  C   UNK A   0       6.392  33.400  64.760  1.00  0.00     0.000 A 
HETATM   21  C   UNK A   0       5.362  32.896  63.971  1.00  0.00     0.002 A 
HETATM   22  C   UNK A   0       5.657  32.226  62.780  1.00  0.00     0.029 A 
ENDBRANCH  14  17
ENDBRANCH  10  13
ENDBRANCH   1   7
BRANCH   5  23
ATOM     23  CA  TRP A   1       5.996  25.876  54.700  1.00  0.00     0.114 C 
BRANCH  23  24
ATOM     24  C   TRP A   1       4.887  26.331  53.733  1.00  0.00     0.189 C 
BRANCH  24  25
ATOM     25  O   TRP A   1       4.218  25.194  53.184  1.00  0.00    -0.399 OA
ATOM     26  H   TRP A   1       4.478  25.148  52.247  1.00  0.00     0.209 HD
ENDBRANCH  24  25
ENDBRANCH  23  24
BRANCH  23  27
ATOM     27  CB  TRP A   1       7.031  24.992  53.971  1.00  0.00     0.068 C 
BRANCH  27  28
ATOM     28  CG  TRP A   1       7.497  23.838  54.812  1.00  0.00    -0.028 A 
ATOM     29  CD2 TRP A   1       7.856  22.524  54.370  1.00  0.00    -0.002 A 
ATOM     30  CE2 TRP A   1       8.268  21.802  55.490  1.00  0.00     0.042 A 
ATOM     31  CE3 TRP A   1       7.876  21.880  53.117  1.00  0.00     0.014 A 
ATOM     32  CZ2 TRP A   1       8.719  20.478  55.417  1.00  0.00     0.030 A 
ATOM     33  NE1 TRP A   1       8.136  22.631  56.577  1.00  0.00    -0.365 N 
ATOM     34  CH2 TRP A   1       8.749  19.872  54.159  1.00  0.00     0.002 A 
ATOM     35  CZ3 TRP A   1       8.331  20.559  53.022  1.00  0.00     0.001 A 
ATOM     36  HE1 TRP A   1       8.361  22.370  57.527  1.00  0.00     0.165 HD
ATOM     37  CD1 TRP A   1       7.667  23.855  56.185  1.00  0.00     0.096 A 
ENDBRANCH  27  28
ENDBRANCH  23  27
ENDBRANCH   5  23
TORSDOF 8
ENDMDL
MODEL 3
REMARK VINA RESULT:     -10.4      0.952      1.550
REMARK  8 active torsions:
REMARK  status: ('A' for Active; 'I' for Inactive)
REMARK    1  A    between atoms: C_4  and  N_5 
REMARK       I    between atoms: N_5  and  C_6 
REMARK    2  A    between atoms: C_6  and  C_7 
REMARK    3  A    between atoms: C_10  and  N_11 
REMARK       I    between atoms: N_11  and  C_12 
REMARK       I    between atoms: C_12  and  N_21 
REMARK    4  A    between atoms: N_21  and  CA_22 
REMARK    5  A    between atoms: CA_22  and  C_23 
REMARK    6  A    between atoms: CA_22  and  CB_25 
REMARK    7  A    between atoms: C_23  and  O_24 
REMARK    8  A    between atoms: CB_25  and  CG_26 
ROOT
HETATM    1  N   UNK A   0       6.753  30.395  57.753  1.00  0.00    -0.309 N 
HETATM    2  C   UNK A   0       7.156  31.165  58.795  1.00  0.00     0.321 C 
HETATM    3  O   UNK A   0       7.105  32.389  58.671  1.00  0.00    -0.247 OA
HETATM    4  H   UNK A   0       6.389  30.993  57.020  1.00  0.00     0.170 HD
ATOM      5  N   TRP A   1       7.563  30.560  59.941  1.00  0.00    -0.336 N 
ATOM      6  H   TRP A   1       6.998  29.757  60.183  1.00  0.00     0.164 HD
ENDROOT
BRANCH   1   7
HETATM    7  C   UNK A   0       6.824  29.026  57.441  1.00  0.00     0.036 A 
HETATM    8  C   UNK A   0       7.963  28.228  57.538  1.00  0.00     0.030 A 
HETATM    9  C   UNK A   0       7.933  26.874  57.155  1.00  0.00     0.019 A 
HETATM   10  C   UNK A   0       6.763  26.304  56.642  1.00  0.00     0.032 A 
HETATM   11  C   UNK A   0       5.616  27.102  56.557  1.00  0.00     0.019 A 
HETATM   12  C   UNK A   0       5.649  28.444  56.951  1.00  0.00     0.030 A 
BRANCH  10  13
HETATM   13  C   UNK A   0       6.655  24.890  56.153  1.00  0.00     0.256 C 
HETATM   14  N   UNK A   0       7.837  24.171  56.070  1.00  0.00    -0.323 N 
HETATM   15  H   UNK A   0       8.685  24.608  56.394  1.00  0.00     0.169 HD
HETATM   16  O   UNK A   0       5.543  24.477  55.843  1.00  0.00    -0.267 OA
BRANCH  14  17
HETATM   17  C   UNK A   0       8.011  22.882  55.515  1.00  0.00     0.035 A 
HETATM   18  C   UNK A   0       8.032  22.614  54.145  1.00  0.00     0.029 A 
HETATM   19  C   UNK A   0       8.251  21.313  53.678  1.00  0.00     0.002 A 
HETATM   20  C   UNK A   0       8.441  20.267  54.575  1.00  0.00     0.000 A 
HETATM   21  C   UNK A   0       8.414  20.519  55.944  1.00  0.00     0.002 A 
HETATM   22  C   UNK A   0       8.206  21.820  56.411  1.00  0.00     0.029 A 
ENDBRANCH  14  17
ENDBRANCH  10  13
ENDBRANCH   1   7
BRANCH   5  23
ATOM     23  CA  TRP A   1       7.929  31.378  61.109  1.00  0.00     0.114 C 
BRANCH  23  24
ATOM     24  C   TRP A   1       9.452  31.605  61.119  1.00  0.00     0.189 C 
BRANCH  24  25
ATOM     25  O   TRP A   1       9.828  32.456  60.034  1.00  0.00    -0.399 OA
ATOM     26  H   TRP A   1       9.352  32.128  59.250  1.00  0.00     0.209 HD
ENDBRANCH  24  25
ENDBRANCH  23  24
BRANCH  23  27
ATOM     27  CB  TRP A   1       7.172  32.723  61.114  1.00  0.00     0.068 C 
BRANCH  27  28
ATOM     28  CG  TRP A   1       6.147  32.804  62.210  1.00  0.00    -0.028 A 
ATOM     29  CD2 TRP A   1       6.347  33.222  63.564  1.00  0.00    -0.002 A 
ATOM     30  CE2 TRP A   1       5.108  33.179  64.204  1.00  0.00     0.042 A 
ATOM     31  CE3 TRP A   1       7.468  33.642  64.308  1.00  0.00     0.014 A 
ATOM     32  CZ2 TRP A   1       4.930  33.555  65.541  1.00  0.00     0.030 A 
ATOM     33  NE1 TRP A   1       4.194  32.722  63.286  1.00  0.00    -0.365 N 
ATOM     34  CH2 TRP A   1       6.055  33.988  66.248  1.00  0.00     0.002 A 
ATOM     35  CZ3 TRP A   1       7.308  34.029  65.644  1.00  0.00     0.001 A 
ATOM     36  HE1 TRP A   1       3.210  32.588  63.476  1.00  0.00     0.165 HD
ATOM     37  CD1 TRP A   1       4.806  32.486  62.086  1.00  0.00     0.096 A 
ENDBRANCH  27  28
ENDBRANCH  23  27
ENDBRANCH   5  23
TORSDOF 8
ENDMDL
MODEL 4
REMARK VINA RESULT:     -10.3      2.153     11.574
REMARK  8 active torsions:
REMARK  status: ('A' for Active; 'I' for Inactive)
REMARK    1  A    between atoms: C_4  and  N_5 
REMARK       I    between atoms: N_5  and  C_6 
REMARK    2  A    between atoms: C_6  and  C_7 
REMARK    3  A    between atoms: C_10  and  N_11 
REMARK       I    between atoms: N_11  and  C_12 
REMARK       I    between atoms: C_12  and  N_21 
REMARK    4  A    between atoms: N_21  and  CA_22 
REMARK    5  A    between atoms: CA_22  and  C_23 
REMARK    6  A    between atoms: CA_22  and  CB_25 
REMARK    7  A    between atoms: C_23  and  O_24 
REMARK    8  A    between atoms: CB_25  and  CG_26 
ROOT
HETATM    1  N   UNK A   0       7.550  29.261  55.714  1.00  0.00    -0.309 N 
HETATM    2  C   UNK A   0       7.706  27.937  55.463  1.00  0.00     0.321 C 
HETATM    3  O   UNK A   0       7.696  27.559  54.291  1.00  0.00    -0.247 OA
HETATM    4  H   UNK A   0       7.518  29.763  54.834  1.00  0.00     0.170 HD
ATOM      5  N   TRP A   1       7.901  27.088  56.506  1.00  0.00    -0.336 N 
ATOM      6  H   TRP A   1       8.508  27.474  57.217  1.00  0.00     0.164 HD
ENDROOT
BRANCH   1   7
HETATM    7  C   UNK A   0       7.330  30.036  56.865  1.00  0.00     0.036 A 
HETATM    8  C   UNK A   0       8.271  30.303  57.859  1.00  0.00     0.030 A 
HETATM    9  C   UNK A   0       7.928  31.057  58.997  1.00  0.00     0.019 A 
HETATM   10  C   UNK A   0       6.625  31.535  59.170  1.00  0.00     0.032 A 
HETATM   11  C   UNK A   0       5.683  31.278  58.164  1.00  0.00     0.019 A 
HETATM   12  C   UNK A   0       6.033  30.539  57.031  1.00  0.00     0.030 A 
BRANCH  10  13
HETATM   13  C   UNK A   0       6.154  32.293  60.375  1.00  0.00     0.256 C 
HETATM   14  N   UNK A   0       7.130  32.702  61.270  1.00  0.00    -0.323 N 
HETATM   15  H   UNK A   0       8.094  32.524  61.037  1.00  0.00     0.169 HD
HETATM   16  O   UNK A   0       4.948  32.479  60.498  1.00  0.00    -0.267 OA
BRANCH  14  17
HETATM   17  C   UNK A   0       6.927  33.304  62.534  1.00  0.00     0.035 A 
HETATM   18  C   UNK A   0       7.471  32.824  63.727  1.00  0.00     0.029 A 
HETATM   19  C   UNK A   0       7.255  33.503  64.931  1.00  0.00     0.002 A 
HETATM   20  C   UNK A   0       6.486  34.664  64.955  1.00  0.00     0.000 A 
HETATM   21  C   UNK A   0       5.932  35.148  63.774  1.00  0.00     0.002 A 
HETATM   22  C   UNK A   0       6.156  34.475  62.569  1.00  0.00     0.029 A 
ENDBRANCH  14  17
ENDBRANCH  10  13
ENDBRANCH   1   7
BRANCH   5  23
ATOM     23  CA  TRP A   1       8.150  25.660  56.249  1.00  0.00     0.114 C 
BRANCH  23  24
ATOM     24  C   TRP A   1       8.593  24.974  57.555  1.00  0.00     0.189 C 
BRANCH  24  25
ATOM     25  O   TRP A   1       7.899  25.542  58.667  1.00  0.00    -0.399 OA
ATOM     26  H   TRP A   1       7.154  26.048  58.297  1.00  0.00     0.209 HD
ENDBRANCH  24  25
ENDBRANCH  23  24
BRANCH  23  27
ATOM     27  CB  TRP A   1       6.902  24.968  55.660  1.00  0.00     0.068 C 
BRANCH  27  28
ATOM     28  CG  TRP A   1       7.240  24.026  54.540  1.00  0.00    -0.028 A 
ATOM     29  CD2 TRP A   1       7.678  22.667  54.644  1.00  0.00    -0.002 A 
ATOM     30  CE2 TRP A   1       7.828  22.173  53.347  1.00  0.00     0.042 A 
ATOM     31  CE3 TRP A   1       7.958  21.803  55.722  1.00  0.00     0.014 A 
ATOM     32  CZ2 TRP A   1       8.219  20.857  53.075  1.00  0.00     0.030 A 
ATOM     33  NE1 TRP A   1       7.523  23.200  52.486  1.00  0.00    -0.365 N 
ATOM     34  CH2 TRP A   1       8.468  20.017  54.164  1.00  0.00     0.002 A 
ATOM     35  CZ3 TRP A   1       8.343  20.481  55.470  1.00  0.00     0.001 A 
ATOM     36  HE1 TRP A   1       7.549  23.128  51.478  1.00  0.00     0.165 HD
ATOM     37  CD1 TRP A   1       7.176  24.320  53.190  1.00  0.00     0.096 A 
ENDBRANCH  27  28
ENDBRANCH  23  27
ENDBRANCH   5  23
TORSDOF 8
ENDMDL
MODEL 5
REMARK VINA RESULT:     -10.3      2.027     11.554
REMARK  8 active torsions:
REMARK  status: ('A' for Active; 'I' for Inactive)
REMARK    1  A    between atoms: C_4  and  N_5 
REMARK       I    between atoms: N_5  and  C_6 
REMARK    2  A    between atoms: C_6  and  C_7 
REMARK    3  A    between atoms: C_10  and  N_11 
REMARK       I    between atoms: N_11  and  C_12 
REMARK       I    between atoms: C_12  and  N_21 
REMARK    4  A    between atoms: N_21  and  CA_22 
REMARK    5  A    between atoms: CA_22  and  C_23 
REMARK    6  A    between atoms: CA_22  and  CB_25 
REMARK    7  A    between atoms: C_23  and  O_24 
REMARK    8  A    between atoms: CB_25  and  CG_26 
ROOT
HETATM    1  N   UNK A   0       9.177  30.363  58.297  1.00  0.00    -0.309 N 
HETATM    2  C   UNK A   0       8.895  29.273  57.539  1.00  0.00     0.321 C 
HETATM    3  O   UNK A   0       9.526  29.109  56.495  1.00  0.00    -0.247 OA
HETATM    4  H   UNK A   0       9.959  30.860  57.885  1.00  0.00     0.170 HD
ATOM      5  N   TRP A   1       7.960  28.392  57.977  1.00  0.00    -0.336 N 
ATOM      6  H   TRP A   1       8.008  28.231  58.974  1.00  0.00     0.164 HD
ENDROOT
BRANCH   1   7
HETATM    7  C   UNK A   0       8.583  30.980  59.412  1.00  0.00     0.036 A 
HETATM    8  C   UNK A   0       7.414  31.739  59.395  1.00  0.00     0.030 A 
HETATM    9  C   UNK A   0       6.931  32.351  60.567  1.00  0.00     0.019 A 
HETATM   10  C   UNK A   0       7.630  32.233  61.773  1.00  0.00     0.032 A 
HETATM   11  C   UNK A   0       8.797  31.458  61.792  1.00  0.00     0.019 A 
HETATM   12  C   UNK A   0       9.265  30.843  60.627  1.00  0.00     0.030 A 
BRANCH  10  13
HETATM   13  C   UNK A   0       7.225  32.899  63.055  1.00  0.00     0.256 C 
HETATM   14  N   UNK A   0       5.972  33.490  63.076  1.00  0.00    -0.323 N 
HETATM   15  H   UNK A   0       5.384  33.391  62.264  1.00  0.00     0.169 HD
HETATM   16  O   UNK A   0       8.030  32.894  63.980  1.00  0.00    -0.267 OA
BRANCH  14  17
HETATM   17  C   UNK A   0       5.426  34.288  64.109  1.00  0.00     0.035 A 
HETATM   18  C   UNK A   0       5.330  35.680  64.056  1.00  0.00     0.029 A 
HETATM   19  C   UNK A   0       4.737  36.392  65.105  1.00  0.00     0.002 A 
HETATM   20  C   UNK A   0       4.243  35.721  66.220  1.00  0.00     0.000 A 
HETATM   21  C   UNK A   0       4.340  34.334  66.288  1.00  0.00     0.002 A 
HETATM   22  C   UNK A   0       4.923  33.621  65.235  1.00  0.00     0.029 A 
ENDBRANCH  14  17
ENDBRANCH  10  13
ENDBRANCH   1   7
BRANCH   5  23
ATOM     23  CA  TRP A   1       7.696  27.164  57.209  1.00  0.00     0.114 C 
BRANCH  23  24
ATOM     24  C   TRP A   1       7.392  26.006  58.179  1.00  0.00     0.189 C 
BRANCH  24  25
ATOM     25  O   TRP A   1       8.496  25.098  58.219  1.00  0.00    -0.399 OA
ATOM     26  H   TRP A   1       8.115  24.208  58.321  1.00  0.00     0.209 HD
ENDBRANCH  24  25
ENDBRANCH  23  24
BRANCH  23  27
ATOM     27  CB  TRP A   1       6.536  27.362  56.210  1.00  0.00     0.068 C 
BRANCH  27  28
ATOM     28  CG  TRP A   1       6.906  26.965  54.809  1.00  0.00    -0.028 A 
ATOM     29  CD2 TRP A   1       7.232  25.655  54.331  1.00  0.00    -0.002 A 
ATOM     30  CE2 TRP A   1       7.465  25.755  52.959  1.00  0.00     0.042 A 
ATOM     31  CE3 TRP A   1       7.346  24.387  54.936  1.00  0.00     0.014 A 
ATOM     32  CZ2 TRP A   1       7.782  24.650  52.159  1.00  0.00     0.030 A 
ATOM     33  NE1 TRP A   1       7.318  27.078  52.619  1.00  0.00    -0.365 N 
ATOM     34  CH2 TRP A   1       7.866  23.402  52.782  1.00  0.00     0.002 A 
ATOM     35  CZ3 TRP A   1       7.655  23.269  54.152  1.00  0.00     0.001 A 
ATOM     36  HE1 TRP A   1       7.431  27.445  51.684  1.00  0.00     0.165 HD
ATOM     37  CD1 TRP A   1       6.989  27.816  53.722  1.00  0.00     0.096 A 
ENDBRANCH  27  28
ENDBRANCH  23  27
ENDBRANCH   5  23
TORSDOF 8
ENDMDL
MODEL 6
REMARK VINA RESULT:     -10.2      1.651      2.426
REMARK  8 active torsions:
REMARK  status: ('A' for Active; 'I' for Inactive)
REMARK    1  A    between atoms: C_4  and  N_5 
REMARK       I    between atoms: N_5  and  C_6 
REMARK    2  A    between atoms: C_6  and  C_7 
REMARK    3  A    between atoms: C_10  and  N_11 
REMARK       I    between atoms: N_11  and  C_12 
REMARK       I    between atoms: C_12  and  N_21 
REMARK    4  A    between atoms: N_21  and  CA_22 
REMARK    5  A    between atoms: CA_22  and  C_23 
REMARK    6  A    between atoms: CA_22  and  CB_25 
REMARK    7  A    between atoms: C_23  and  O_24 
REMARK    8  A    between atoms: CB_25  and  CG_26 
ROOT
HETATM    1  N   UNK A   0       7.999  30.298  58.228  1.00  0.00    -0.309 N 
HETATM    2  C   UNK A   0       7.376  31.381  58.756  1.00  0.00     0.321 C 
HETATM    3  O   UNK A   0       8.054  32.202  59.374  1.00  0.00    -0.247 OA
HETATM    4  H   UNK A   0       8.998  30.383  58.381  1.00  0.00     0.170 HD
ATOM      5  N   TRP A   1       6.042  31.536  58.554  1.00  0.00    -0.336 N 
ATOM      6  H   TRP A   1       5.754  31.278  57.620  1.00  0.00     0.164 HD
ENDROOT
BRANCH   1   7
HETATM    7  C   UNK A   0       7.574  29.095  57.639  1.00  0.00     0.036 A 
HETATM    8  C   UNK A   0       6.250  28.720  57.418  1.00  0.00     0.030 A 
HETATM    9  C   UNK A   0       5.935  27.467  56.860  1.00  0.00     0.019 A 
HETATM   10  C   UNK A   0       6.946  26.556  56.538  1.00  0.00     0.032 A 
HETATM   11  C   UNK A   0       8.278  26.938  56.747  1.00  0.00     0.019 A 
HETATM   12  C   UNK A   0       8.584  28.189  57.291  1.00  0.00     0.030 A 
BRANCH  10  13
HETATM   13  C   UNK A   0       6.703  25.178  55.997  1.00  0.00     0.256 C 
HETATM   14  N   UNK A   0       7.823  24.396  55.767  1.00  0.00    -0.323 N 
HETATM   15  H   UNK A   0       8.724  24.765  56.028  1.00  0.00     0.169 HD
HETATM   16  O   UNK A   0       5.542  24.848  55.777  1.00  0.00    -0.267 OA
BRANCH  14  17
HETATM   17  C   UNK A   0       7.861  23.128  55.140  1.00  0.00     0.035 A 
HETATM   18  C   UNK A   0       7.849  21.913  55.827  1.00  0.00     0.029 A 
HETATM   19  C   UNK A   0       7.848  20.701  55.129  1.00  0.00     0.002 A 
HETATM   20  C   UNK A   0       7.867  20.691  53.737  1.00  0.00     0.000 A 
HETATM   21  C   UNK A   0       7.887  21.896  53.040  1.00  0.00     0.002 A 
HETATM   22  C   UNK A   0       7.878  23.108  53.738  1.00  0.00     0.029 A 
ENDBRANCH  14  17
ENDBRANCH  10  13
ENDBRANCH   1   7
BRANCH   5  23
ATOM     23  CA  TRP A   1       5.362  32.744  59.052  1.00  0.00     0.114 C 
BRANCH  23  24
ATOM     24  C   TRP A   1       4.559  33.390  57.907  1.00  0.00     0.189 C 
BRANCH  24  25
ATOM     25  O   TRP A   1       3.160  33.181  58.111  1.00  0.00    -0.399 OA
ATOM     26  H   TRP A   1       2.768  34.062  58.247  1.00  0.00     0.209 HD
ENDBRANCH  24  25
ENDBRANCH  23  24
BRANCH  23  27
ATOM     27  CB  TRP A   1       4.446  32.420  60.251  1.00  0.00     0.068 C 
BRANCH  27  28
ATOM     28  CG  TRP A   1       4.713  33.305  61.436  1.00  0.00    -0.028 A 
ATOM     29  CD2 TRP A   1       5.764  33.179  62.400  1.00  0.00    -0.002 A 
ATOM     30  CE2 TRP A   1       5.646  34.246  63.291  1.00  0.00     0.042 A 
ATOM     31  CE3 TRP A   1       6.813  32.259  62.597  1.00  0.00     0.014 A 
ATOM     32  CZ2 TRP A   1       6.535  34.452  64.353  1.00  0.00     0.030 A 
ATOM     33  NE1 TRP A   1       4.548  34.977  62.905  1.00  0.00    -0.365 N 
ATOM     34  CH2 TRP A   1       7.579  33.536  64.511  1.00  0.00     0.002 A 
ATOM     35  CZ3 TRP A   1       7.717  32.451  63.649  1.00  0.00     0.001 A 
ATOM     36  HE1 TRP A   1       4.221  35.810  63.374  1.00  0.00     0.165 HD
ATOM     37  CD1 TRP A   1       3.974  34.418  61.796  1.00  0.00     0.096 A 
ENDBRANCH  27  28
ENDBRANCH  23  27
ENDBRANCH   5  23
TORSDOF 8
ENDMDL
MODEL 7
REMARK VINA RESULT:     -10.1      2.532      3.669
REMARK  8 active torsions:
REMARK  status: ('A' for Active; 'I' for Inactive)
REMARK    1  A    between atoms: C_4  and  N_5 
REMARK       I    between atoms: N_5  and  C_6 
REMARK    2  A    between atoms: C_6  and  C_7 
REMARK    3  A    between atoms: C_10  and  N_11 
REMARK       I    between atoms: N_11  and  C_12 
REMARK       I    between atoms: C_12  and  N_21 
REMARK    4  A    between atoms: N_21  and  CA_22 
REMARK    5  A    between atoms: CA_22  and  C_23 
REMARK    6  A    between atoms: CA_22  and  CB_25 
REMARK    7  A    between atoms: C_23  and  O_24 
REMARK    8  A    between atoms: CB_25  and  CG_26 
ROOT
HETATM    1  N   UNK A   0       5.258  30.252  55.024  1.00  0.00    -0.309 N 
HETATM    2  C   UNK A   0       4.898  31.277  55.837  1.00  0.00     0.321 C 
HETATM    3  O   UNK A   0       4.606  32.356  55.322  1.00  0.00    -0.247 OA
HETATM    4  H   UNK A   0       5.154  30.542  54.059  1.00  0.00     0.170 HD
ATOM      5  N   TRP A   1       4.840  31.064  57.178  1.00  0.00    -0.336 N 
ATOM      6  H   TRP A   1       4.453  30.161  57.415  1.00  0.00     0.164 HD
ENDROOT
BRANCH   1   7
HETATM    7  C   UNK A   0       5.814  28.976  55.219  1.00  0.00     0.036 A 
HETATM    8  C   UNK A   0       7.170  28.661  55.149  1.00  0.00     0.030 A 
HETATM    9  C   UNK A   0       7.616  27.336  55.317  1.00  0.00     0.019 A 
HETATM   10  C   UNK A   0       6.702  26.299  55.533  1.00  0.00     0.032 A 
HETATM   11  C   UNK A   0       5.341  26.618  55.617  1.00  0.00     0.019 A 
HETATM   12  C   UNK A   0       4.906  27.938  55.461  1.00  0.00     0.030 A 
BRANCH  10  13
HETATM   13  C   UNK A   0       7.079  24.853  55.662  1.00  0.00     0.256 C 
HETATM   14  N   UNK A   0       7.810  24.307  54.618  1.00  0.00    -0.323 N 
HETATM   15  H   UNK A   0       8.097  24.916  53.868  1.00  0.00     0.169 HD
HETATM   16  O   UNK A   0       6.701  24.251  56.662  1.00  0.00    -0.267 OA
BRANCH  14  17
HETATM   17  C   UNK A   0       8.162  22.949  54.446  1.00  0.00     0.035 A 
HETATM   18  C   UNK A   0       8.832  22.185  55.403  1.00  0.00     0.029 A 
HETATM   19  C   UNK A   0       9.107  20.833  55.170  1.00  0.00     0.002 A 
HETATM   20  C   UNK A   0       8.723  20.234  53.974  1.00  0.00     0.000 A 
HETATM   21  C   UNK A   0       8.060  20.986  53.008  1.00  0.00     0.002 A 
HETATM   22  C   UNK A   0       7.776  22.334  53.245  1.00  0.00     0.029 A 
ENDBRANCH  14  17
ENDBRANCH  10  13
ENDBRANCH   1   7
BRANCH   5  23
ATOM     23  CA  TRP A   1       4.377  32.141  58.069  1.00  0.00     0.114 C 
BRANCH  23  24
ATOM     24  C   TRP A   1       3.573  31.533  59.234  1.00  0.00     0.189 C 
BRANCH  24  25
ATOM     25  O   TRP A   1       3.311  30.151  58.979  1.00  0.00    -0.399 OA
ATOM     26  H   TRP A   1       3.870  29.647  59.596  1.00  0.00     0.209 HD
ENDBRANCH  24  25
ENDBRANCH  23  24
BRANCH  23  27
ATOM     27  CB  TRP A   1       5.559  32.983  58.597  1.00  0.00     0.068 C 
BRANCH  27  28
ATOM     28  CG  TRP A   1       6.504  32.181  59.446  1.00  0.00    -0.028 A 
ATOM     29  CD2 TRP A   1       6.873  32.423  60.808  1.00  0.00    -0.002 A 
ATOM     30  CE2 TRP A   1       7.738  31.400  61.197  1.00  0.00     0.042 A 
ATOM     31  CE3 TRP A   1       6.549  33.417  61.753  1.00  0.00     0.014 A 
ATOM     32  CZ2 TRP A   1       8.275  31.308  62.487  1.00  0.00     0.030 A 
ATOM     33  NE1 TRP A   1       7.914  30.582  60.107  1.00  0.00    -0.365 N 
ATOM     34  CH2 TRP A   1       7.919  32.294  63.410  1.00  0.00     0.002 A 
ATOM     35  CZ3 TRP A   1       7.070  33.338  63.050  1.00  0.00     0.001 A 
ATOM     36  HE1 TRP A   1       8.496  29.756  60.099  1.00  0.00     0.165 HD
ATOM     37  CD1 TRP A   1       7.184  31.044  59.046  1.00  0.00     0.096 A 
ENDBRANCH  27  28
ENDBRANCH  23  27
ENDBRANCH   5  23
TORSDOF 8
ENDMDL
MODEL 8
REMARK VINA RESULT:     -10.1      1.922     11.710
REMARK  8 active torsions:
REMARK  status: ('A' for Active; 'I' for Inactive)
REMARK    1  A    between atoms: C_4  and  N_5 
REMARK       I    between atoms: N_5  and  C_6 
REMARK    2  A    between atoms: C_6  and  C_7 
REMARK    3  A    between atoms: C_10  and  N_11 
REMARK       I    between atoms: N_11  and  C_12 
REMARK       I    between atoms: C_12  and  N_21 
REMARK    4  A    between atoms: N_21  and  CA_22 
REMARK    5  A    between atoms: CA_22  and  C_23 
REMARK    6  A    between atoms: CA_22  and  CB_25 
REMARK    7  A    between atoms: C_23  and  O_24 
REMARK    8  A    between atoms: CB_25  and  CG_26 
ROOT
HETATM    1  N   UNK A   0       8.949  30.460  59.005  1.00  0.00    -0.309 N 
HETATM    2  C   UNK A   0       8.569  29.594  58.033  1.00  0.00     0.321 C 
HETATM    3  O   UNK A   0       9.273  29.497  57.028  1.00  0.00    -0.247 OA
HETATM    4  H   UNK A   0       9.846  30.862  58.758  1.00  0.00     0.170 HD
ATOM      5  N   TRP A   1       7.451  28.845  58.220  1.00  0.00    -0.336 N 
ATOM      6  H   TRP A   1       7.360  28.506  59.168  1.00  0.00     0.164 HD
ENDROOT
BRANCH   1   7
HETATM    7  C   UNK A   0       8.351  30.975  60.168  1.00  0.00     0.036 A 
HETATM    8  C   UNK A   0       8.746  30.700  61.476  1.00  0.00     0.030 A 
HETATM    9  C   UNK A   0       8.045  31.236  62.573  1.00  0.00     0.019 A 
HETATM   10  C   UNK A   0       6.916  32.038  62.374  1.00  0.00     0.032 A 
HETATM   11  C   UNK A   0       6.528  32.326  61.059  1.00  0.00     0.019 A 
HETATM   12  C   UNK A   0       7.236  31.800  59.974  1.00  0.00     0.030 A 
BRANCH  10  13
HETATM   13  C   UNK A   0       6.073  32.602  63.479  1.00  0.00     0.256 C 
HETATM   14  N   UNK A   0       6.546  33.749  64.096  1.00  0.00    -0.323 N 
HETATM   15  H   UNK A   0       7.387  34.171  63.736  1.00  0.00     0.169 HD
HETATM   16  O   UNK A   0       5.044  32.003  63.774  1.00  0.00    -0.267 OA
BRANCH  14  17
HETATM   17  C   UNK A   0       6.007  34.383  65.240  1.00  0.00     0.035 A 
HETATM   18  C   UNK A   0       5.002  35.351  65.199  1.00  0.00     0.029 A 
HETATM   19  C   UNK A   0       4.495  35.901  66.381  1.00  0.00     0.002 A 
HETATM   20  C   UNK A   0       4.993  35.494  67.616  1.00  0.00     0.000 A 
HETATM   21  C   UNK A   0       6.001  34.535  67.670  1.00  0.00     0.002 A 
HETATM   22  C   UNK A   0       6.501  33.978  66.489  1.00  0.00     0.029 A 
ENDBRANCH  14  17
ENDBRANCH  10  13
ENDBRANCH   1   7
BRANCH   5  23
ATOM     23  CA  TRP A   1       7.066  27.843  57.212  1.00  0.00     0.114 C 
BRANCH  23  24
ATOM     24  C   TRP A   1       6.242  28.523  56.102  1.00  0.00     0.189 C 
BRANCH  24  25
ATOM     25  O   TRP A   1       7.099  28.918  55.028  1.00  0.00    -0.399 OA
ATOM     26  H   TRP A   1       6.730  29.747  54.674  1.00  0.00     0.209 HD
ENDBRANCH  24  25
ENDBRANCH  23  24
BRANCH  23  27
ATOM     27  CB  TRP A   1       8.303  27.133  56.622  1.00  0.00     0.068 C 
BRANCH  27  28
ATOM     28  CG  TRP A   1       8.188  25.635  56.676  1.00  0.00    -0.028 A 
ATOM     29  CD2 TRP A   1       7.920  24.741  55.591  1.00  0.00    -0.002 A 
ATOM     30  CE2 TRP A   1       7.949  23.442  56.100  1.00  0.00     0.042 A 
ATOM     31  CE3 TRP A   1       7.659  24.912  54.216  1.00  0.00     0.014 A 
ATOM     32  CZ2 TRP A   1       7.755  22.308  55.302  1.00  0.00     0.030 A 
ATOM     33  NE1 TRP A   1       8.195  23.542  57.448  1.00  0.00    -0.365 N 
ATOM     34  CH2 TRP A   1       7.520  22.507  53.939  1.00  0.00     0.002 A 
ATOM     35  CZ3 TRP A   1       7.469  23.790  53.401  1.00  0.00     0.001 A 
ATOM     36  HE1 TRP A   1       8.269  22.754  58.076  1.00  0.00     0.165 HD
ATOM     37  CD1 TRP A   1       8.334  24.854  57.808  1.00  0.00     0.096 A 
ENDBRANCH  27  28
ENDBRANCH  23  27
ENDBRANCH   5  23
TORSDOF 8
ENDMDL
MODEL 9
REMARK VINA RESULT:     -10.0      1.936      2.864
REMARK  8 active torsions:
REMARK  status: ('A' for Active; 'I' for Inactive)
REMARK    1  A    between atoms: C_4  and  N_5 
REMARK       I    between atoms: N_5  and  C_6 
REMARK    2  A    between atoms: C_6  and  C_7 
REMARK    3  A    between atoms: C_10  and  N_11 
REMARK       I    between atoms: N_11  and  C_12 
REMARK       I    between atoms: C_12  and  N_21 
REMARK    4  A    between atoms: N_21  and  CA_22 
REMARK    5  A    between atoms: CA_22  and  C_23 
REMARK    6  A    between atoms: CA_22  and  CB_25 
REMARK    7  A    between atoms: C_23  and  O_24 
REMARK    8  A    between atoms: CB_25  and  CG_26 
ROOT
HETATM    1  N   UNK A   0       6.046  31.399  57.606  1.00  0.00    -0.309 N 
HETATM    2  C   UNK A   0       5.592  32.183  58.616  1.00  0.00     0.321 C 
HETATM    3  O   UNK A   0       5.667  33.405  58.486  1.00  0.00    -0.247 OA
HETATM    4  H   UNK A   0       6.329  31.989  56.831  1.00  0.00     0.170 HD
ATOM      5  N   TRP A   1       5.042  31.594  59.709  1.00  0.00    -0.336 N 
ATOM      6  H   TRP A   1       4.462  30.799  59.477  1.00  0.00     0.164 HD
ENDROOT
BRANCH   1   7
HETATM    7  C   UNK A   0       6.297  30.026  57.448  1.00  0.00     0.036 A 
HETATM    8  C   UNK A   0       7.452  29.358  57.849  1.00  0.00     0.030 A 
HETATM    9  C   UNK A   0       7.618  27.982  57.601  1.00  0.00     0.019 A 
HETATM   10  C   UNK A   0       6.634  27.258  56.919  1.00  0.00     0.032 A 
HETATM   11  C   UNK A   0       5.467  27.926  56.528  1.00  0.00     0.019 A 
HETATM   12  C   UNK A   0       5.304  29.290  56.789  1.00  0.00     0.030 A 
BRANCH  10  13
HETATM   13  C   UNK A   0       6.750  25.807  56.557  1.00  0.00     0.256 C 
HETATM   14  N   UNK A   0       7.716  25.478  55.619  1.00  0.00    -0.323 N 
HETATM   15  H   UNK A   0       8.320  26.210  55.280  1.00  0.00     0.169 HD
HETATM   16  O   UNK A   0       5.977  25.021  57.094  1.00  0.00    -0.267 OA
BRANCH  14  17
HETATM   17  C   UNK A   0       7.924  24.214  55.021  1.00  0.00     0.035 A 
HETATM   18  C   UNK A   0       7.280  23.781  53.859  1.00  0.00     0.029 A 
HETATM   19  C   UNK A   0       7.574  22.529  53.308  1.00  0.00     0.002 A 
HETATM   20  C   UNK A   0       8.507  21.694  53.916  1.00  0.00     0.000 A 
HETATM   21  C   UNK A   0       9.150  22.110  55.079  1.00  0.00     0.002 A 
HETATM   22  C   UNK A   0       8.864  23.366  55.624  1.00  0.00     0.029 A 
ENDBRANCH  14  17
ENDBRANCH  10  13
ENDBRANCH   1   7
BRANCH   5  23
ATOM     23  CA  TRP A   1       4.473  32.428  60.780  1.00  0.00     0.114 C 
BRANCH  23  24
ATOM     24  C   TRP A   1       3.002  32.748  60.455  1.00  0.00     0.189 C 
BRANCH  24  25
ATOM     25  O   TRP A   1       2.392  33.426  61.556  1.00  0.00    -0.399 OA
ATOM     26  H   TRP A   1       2.612  34.369  61.454  1.00  0.00     0.209 HD
ENDBRANCH  24  25
ENDBRANCH  23  24
BRANCH  23  27
ATOM     27  CB  TRP A   1       4.593  31.738  62.156  1.00  0.00     0.068 C 
BRANCH  27  28
ATOM     28  CG  TRP A   1       5.705  32.307  62.991  1.00  0.00    -0.028 A 
ATOM     29  CD2 TRP A   1       5.592  33.017  64.229  1.00  0.00    -0.002 A 
ATOM     30  CE2 TRP A   1       6.885  33.314  64.663  1.00  0.00     0.042 A 
ATOM     31  CE3 TRP A   1       4.509  33.432  65.029  1.00  0.00     0.014 A 
ATOM     32  CZ2 TRP A   1       7.149  33.983  65.864  1.00  0.00     0.030 A 
ATOM     33  NE1 TRP A   1       7.751  32.831  63.712  1.00  0.00    -0.365 N 
ATOM     34  CH2 TRP A   1       6.056  34.363  66.648  1.00  0.00     0.002 A 
ATOM     35  CZ3 TRP A   1       4.753  34.096  66.238  1.00  0.00     0.001 A 
ATOM     36  HE1 TRP A   1       8.757  32.908  63.763  1.00  0.00     0.165 HD
ATOM     37  CD1 TRP A   1       7.055  32.231  62.699  1.00  0.00     0.096 A 
ENDBRANCH  27  28
ENDBRANCH  23  27
ENDBRANCH   5  23
TORSDOF 8
ENDMDL
MODEL 10
REMARK VINA RESULT:      -9.7      6.636     10.748
REMARK  8 active torsions:
REMARK  status: ('A' for Active; 'I' for Inactive)
REMARK    1  A    between atoms: C_4  and  N_5 
REMARK       I    between atoms: N_5  and  C_6 
REMARK    2  A    between atoms: C_6  and  C_7 
REMARK    3  A    between atoms: C_10  and  N_11 
REMARK       I    between atoms: N_11  and  C_12 
REMARK       I    between atoms: C_12  and  N_21 
REMARK    4  A    between atoms: N_21  and  CA_22 
REMARK    5  A    between atoms: CA_22  and  C_23 
REMARK    6  A    between atoms: CA_22  and  CB_25 
REMARK    7  A    between atoms: C_23  and  O_24 
REMARK    8  A    between atoms: CB_25  and  CG_26 
ROOT
HETATM    1  N   UNK A   0       6.935  28.475  53.689  1.00  0.00    -0.309 N 
HETATM    2  C   UNK A   0       7.260  27.955  54.900  1.00  0.00     0.321 C 
HETATM    3  O   UNK A   0       8.167  28.485  55.540  1.00  0.00    -0.247 OA
HETATM    4  H   UNK A   0       7.484  29.312  53.530  1.00  0.00     0.170 HD
ATOM      5  N   TRP A   1       6.551  26.896  55.372  1.00  0.00    -0.336 N 
ATOM      6  H   TRP A   1       5.562  26.969  55.177  1.00  0.00     0.164 HD
ENDROOT
BRANCH   1   7
HETATM    7  C   UNK A   0       6.123  28.068  52.617  1.00  0.00     0.036 A 
HETATM    8  C   UNK A   0       6.164  26.823  51.991  1.00  0.00     0.030 A 
HETATM    9  C   UNK A   0       5.332  26.537  50.893  1.00  0.00     0.019 A 
HETATM   10  C   UNK A   0       4.461  27.507  50.385  1.00  0.00     0.032 A 
HETATM   11  C   UNK A   0       4.410  28.754  51.023  1.00  0.00     0.019 A 
HETATM   12  C   UNK A   0       5.231  29.028  52.121  1.00  0.00     0.030 A 
BRANCH  10  13
HETATM   13  C   UNK A   0       3.585  27.313  49.184  1.00  0.00     0.256 C 
HETATM   14  N   UNK A   0       2.826  28.402  48.787  1.00  0.00    -0.323 N 
HETATM   15  H   UNK A   0       2.946  29.272  49.282  1.00  0.00     0.169 HD
HETATM   16  O   UNK A   0       3.582  26.207  48.652  1.00  0.00    -0.267 OA
BRANCH  14  17
HETATM   17  C   UNK A   0       1.833  28.426  47.781  1.00  0.00     0.035 A 
HETATM   18  C   UNK A   0       1.059  27.322  47.417  1.00  0.00     0.029 A 
HETATM   19  C   UNK A   0       0.067  27.440  46.437  1.00  0.00     0.002 A 
HETATM   20  C   UNK A   0      -0.155  28.661  45.806  1.00  0.00     0.000 A 
HETATM   21  C   UNK A   0       0.615  29.767  46.154  1.00  0.00     0.002 A 
HETATM   22  C   UNK A   0       1.599  29.652  47.140  1.00  0.00     0.029 A 
ENDBRANCH  14  17
ENDBRANCH  10  13
ENDBRANCH   1   7
BRANCH   5  23
ATOM     23  CA  TRP A   1       6.836  26.367  56.716  1.00  0.00     0.114 C 
BRANCH  23  24
ATOM     24  C   TRP A   1       5.739  25.363  57.115  1.00  0.00     0.189 C 
BRANCH  24  25
ATOM     25  O   TRP A   1       4.460  26.001  57.098  1.00  0.00    -0.399 OA
ATOM     26  H   TRP A   1       4.527  26.732  56.458  1.00  0.00     0.209 HD
ENDBRANCH  24  25
ENDBRANCH  23  24
BRANCH  23  27
ATOM     27  CB  TRP A   1       8.232  25.711  56.778  1.00  0.00     0.068 C 
BRANCH  27  28
ATOM     28  CG  TRP A   1       8.199  24.251  56.425  1.00  0.00    -0.028 A 
ATOM     29  CD2 TRP A   1       8.053  23.671  55.124  1.00  0.00    -0.002 A 
ATOM     30  CE2 TRP A   1       8.123  22.285  55.272  1.00  0.00     0.042 A 
ATOM     31  CE3 TRP A   1       7.874  24.194  53.828  1.00  0.00     0.014 A 
ATOM     32  CZ2 TRP A   1       8.045  21.400  54.190  1.00  0.00     0.030 A 
ATOM     33  NE1 TRP A   1       8.273  22.028  56.614  1.00  0.00    -0.365 N 
ATOM     34  CH2 TRP A   1       7.890  21.948  52.914  1.00  0.00     0.002 A 
ATOM     35  CZ3 TRP A   1       7.802  23.326  52.732  1.00  0.00     0.001 A 
ATOM     36  HE1 TRP A   1       8.349  21.104  57.015  1.00  0.00     0.165 HD
ATOM     37  CD1 TRP A   1       8.313  23.200  57.318  1.00  0.00     0.096 A 
ENDBRANCH  27  28
ENDBRANCH  23  27
ENDBRANCH   5  23
TORSDOF 8
ENDMDL
