MODEL 1
REMARK VINA RESULT:     -10.3      0.000      0.000
REMARK  7 active torsions:
REMARK  status: ('A' for Active; 'I' for Inactive)
REMARK    1  A    between atoms: N_3  and  N_4 
REMARK       I    between atoms: N_4  and  C_5 
REMARK    2  A    between atoms: C_5  and  C_6 
REMARK    3  A    between atoms: C_9  and  O_10 
REMARK    4  A    between atoms: O_10  and  C_11 
REMARK    5  A    between atoms: C_11  and  C_12 
REMARK       I    between atoms: C_12  and  N_13 
REMARK    6  A    between atoms: N_13  and  C_14 
REMARK    7  A    between atoms: C_16  and  O_17 
ROOT
HETATM    1  C   UNL     1       6.841  26.463  56.302  1.00  0.00     0.033 A 
HETATM    2  C   UNL     1       8.010  26.956  56.893  1.00  0.00     0.020 A 
HETATM    3  C   UNL     1       7.991  28.198  57.535  1.00  0.00     0.038 A 
HETATM    4  C   UNL     1       6.819  28.959  57.579  1.00  0.00     0.069 A 
HETATM    5  C   UNL     1       5.649  28.453  57.011  1.00  0.00     0.038 A 
HETATM    6  C   UNL     1       5.658  27.206  56.379  1.00  0.00     0.020 A 
ENDROOT
BRANCH   4   7
HETATM    7  O   UNL     1       6.925  30.158  58.231  1.00  0.00    -0.342 OA
BRANCH   7   8
HETATM    8  C   UNL     1       8.164  30.383  58.900  1.00  0.00     0.278 C 
BRANCH   8   9
HETATM    9  C   UNL     1       8.039  31.484  59.956  1.00  0.00     0.246 C 
HETATM   10  N   UNL     1       7.456  31.040  61.129  1.00  0.00    -0.325 N 
HETATM   11  H   UNL     1       7.274  30.041  61.166  1.00  0.00     0.169 HD
HETATM   12  O   UNL     1       8.379  32.636  59.695  1.00  0.00    -0.271 OA
BRANCH  10  13
HETATM   13  C   UNL     1       7.104  31.797  62.265  1.00  0.00     0.037 A 
HETATM   14  C   UNL     1       5.784  32.041  62.661  1.00  0.00     0.066 A 
HETATM   15  C   UNL     1       5.512  32.792  63.810  1.00  0.00     0.070 A 
HETATM   16  C   UNL     1       6.570  33.296  64.567  1.00  0.00     0.037 A 
HETATM   17  C   UNL     1       7.888  33.062  64.183  1.00  0.00     0.005 A 
HETATM   18  C   UNL     1       8.153  32.317  63.033  1.00  0.00     0.029 A 
BRANCH  15  19
HETATM   19  O   UNL     1       4.268  33.096  64.296  1.00  0.00    -0.356 OA
HETATM   20  C   UNL     1       4.195  34.130  65.271  1.00  0.00     0.210 C 
ENDBRANCH  15  19
ENDBRANCH  10  13
ENDBRANCH   8   9
ENDBRANCH   7   8
ENDBRANCH   4   7
BRANCH   1  21
HETATM   21  C   UNL     1       6.808  25.150  55.608  1.00  0.00     0.270 C 
HETATM   22  N   UNL     1       8.042  24.619  55.316  1.00  0.00    -0.259 N 
HETATM   23  H   UNL     1       8.901  25.140  55.396  1.00  0.00     0.191 HD
HETATM   24  O   UNL     1       5.728  24.656  55.310  1.00  0.00    -0.266 OA
BRANCH  22  25
HETATM   25  N   UNL     1       8.126  23.497  54.577  1.00  0.00    -0.263 N 
HETATM   26  C   UNL     1       7.958  23.484  53.220  1.00  0.00     0.030 A 
HETATM   27  C   UNL     1       7.868  24.714  52.395  1.00  0.00     0.070 C 
HETATM   28  C   UNL     1       7.918  22.153  52.843  1.00  0.00     0.028 A 
HETATM   29  C   UNL     1       8.032  21.368  54.019  1.00  0.00     0.028 A 
HETATM   30  C   UNL     1       8.138  22.231  55.096  1.00  0.00     0.030 A 
HETATM   31  C   UNL     1       8.288  21.933  56.542  1.00  0.00     0.070 C 
ENDBRANCH  22  25
ENDBRANCH   1  21
TORSDOF 7
ENDMDL
MODEL 2
REMARK VINA RESULT:     -10.2      0.344      1.528
REMARK  7 active torsions:
REMARK  status: ('A' for Active; 'I' for Inactive)
REMARK    1  A    between atoms: N_3  and  N_4 
REMARK       I    between atoms: N_4  and  C_5 
REMARK    2  A    between atoms: C_5  and  C_6 
REMARK    3  A    between atoms: C_9  and  O_10 
REMARK    4  A    between atoms: O_10  and  C_11 
REMARK    5  A    between atoms: C_11  and  C_12 
REMARK       I    between atoms: C_12  and  N_13 
REMARK    6  A    between atoms: N_13  and  C_14 
REMARK    7  A    between atoms: C_16  and  O_17 
ROOT
HETATM    1  C   UNL     1       7.083  26.537  56.242  1.00  0.00     0.033 A 
HETATM    2  C   UNL     1       8.269  26.873  56.905  1.00  0.00     0.020 A 
HETATM    3  C   UNL     1       8.413  28.149  57.461  1.00  0.00     0.038 A 
HETATM    4  C   UNL     1       7.391  29.096  57.346  1.00  0.00     0.069 A 
HETATM    5  C   UNL     1       6.200  28.747  56.705  1.00  0.00     0.038 A 
HETATM    6  C   UNL     1       6.045  27.470  56.160  1.00  0.00     0.020 A 
ENDROOT
BRANCH   4   7
HETATM    7  O   UNL     1       7.649  30.309  57.925  1.00  0.00    -0.342 OA
BRANCH   7   8
HETATM    8  C   UNL     1       8.588  30.286  58.999  1.00  0.00     0.278 C 
BRANCH   8   9
HETATM    9  C   UNL     1       8.325  31.416  59.997  1.00  0.00     0.246 C 
HETATM   10  N   UNL     1       7.697  30.979  61.149  1.00  0.00    -0.325 N 
HETATM   11  H   UNL     1       7.576  29.973  61.217  1.00  0.00     0.169 HD
HETATM   12  O   UNL     1       8.608  32.576  59.710  1.00  0.00    -0.271 OA
BRANCH  10  13
HETATM   13  C   UNL     1       7.224  31.754  62.228  1.00  0.00     0.037 A 
HETATM   14  C   UNL     1       5.869  31.989  62.485  1.00  0.00     0.066 A 
HETATM   15  C   UNL     1       5.475  32.759  63.585  1.00  0.00     0.070 A 
HETATM   16  C   UNL     1       6.446  33.291  64.434  1.00  0.00     0.037 A 
HETATM   17  C   UNL     1       7.798  33.066  64.188  1.00  0.00     0.005 A 
HETATM   18  C   UNL     1       8.185  32.301  63.087  1.00  0.00     0.029 A 
BRANCH  15  19
HETATM   19  O   UNL     1       4.186  33.057  63.937  1.00  0.00    -0.356 OA
HETATM   20  C   UNL     1       4.000  34.152  64.828  1.00  0.00     0.210 C 
ENDBRANCH  15  19
ENDBRANCH  10  13
ENDBRANCH   8   9
ENDBRANCH   7   8
ENDBRANCH   4   7
BRANCH   1  21
HETATM   21  C   UNL     1       6.880  25.196  55.634  1.00  0.00     0.270 C 
HETATM   22  N   UNL     1       8.034  24.551  55.257  1.00  0.00    -0.259 N 
HETATM   23  H   UNL     1       8.934  25.004  55.222  1.00  0.00     0.191 HD
HETATM   24  O   UNL     1       5.741  24.777  55.473  1.00  0.00    -0.266 OA
BRANCH  22  25
HETATM   25  N   UNL     1       7.956  23.389  54.582  1.00  0.00    -0.263 N 
HETATM   26  C   UNL     1       8.153  22.170  55.171  1.00  0.00     0.030 A 
HETATM   27  C   UNL     1       8.270  21.980  56.638  1.00  0.00     0.070 C 
HETATM   28  C   UNL     1       8.190  21.242  54.145  1.00  0.00     0.028 A 
HETATM   29  C   UNL     1       8.045  21.944  52.922  1.00  0.00     0.028 A 
HETATM   30  C   UNL     1       7.924  23.291  53.218  1.00  0.00     0.030 A 
HETATM   31  C   UNL     1       7.740  24.450  52.310  1.00  0.00     0.070 C 
ENDBRANCH  22  25
ENDBRANCH   1  21
TORSDOF 7
ENDMDL
MODEL 3
REMARK VINA RESULT:      -9.6      2.075     10.606
REMARK  7 active torsions:
REMARK  status: ('A' for Active; 'I' for Inactive)
REMARK    1  A    between atoms: N_3  and  N_4 
REMARK       I    between atoms: N_4  and  C_5 
REMARK    2  A    between atoms: C_5  and  C_6 
REMARK    3  A    between atoms: C_9  and  O_10 
REMARK    4  A    between atoms: O_10  and  C_11 
REMARK    5  A    between atoms: C_11  and  C_12 
REMARK       I    between atoms: C_12  and  N_13 
REMARK    6  A    between atoms: N_13  and  C_14 
REMARK    7  A    between atoms: C_16  and  O_17 
ROOT
HETATM    1  C   UNL     1       8.124  30.372  57.995  1.00  0.00     0.033 A 
HETATM    2  C   UNL     1       9.253  29.748  57.452  1.00  0.00     0.020 A 
HETATM    3  C   UNL     1       9.123  28.955  56.307  1.00  0.00     0.038 A 
HETATM    4  C   UNL     1       7.874  28.767  55.709  1.00  0.00     0.069 A 
HETATM    5  C   UNL     1       6.754  29.412  56.238  1.00  0.00     0.038 A 
HETATM    6  C   UNL     1       6.880  30.216  57.374  1.00  0.00     0.020 A 
ENDROOT
BRANCH   4   7
HETATM    7  O   UNL     1       7.871  27.968  54.598  1.00  0.00    -0.342 OA
BRANCH   7   8
HETATM    8  C   UNL     1       6.581  27.577  54.130  1.00  0.00     0.278 C 
BRANCH   8   9
HETATM    9  C   UNL     1       6.358  26.072  54.296  1.00  0.00     0.246 C 
HETATM   10  N   UNL     1       7.517  25.335  54.130  1.00  0.00    -0.325 N 
HETATM   11  H   UNL     1       8.362  25.887  54.011  1.00  0.00     0.169 HD
HETATM   12  O   UNL     1       5.228  25.628  54.488  1.00  0.00    -0.271 OA
BRANCH  10  13
HETATM   13  C   UNL     1       7.662  23.933  54.120  1.00  0.00     0.037 A 
HETATM   14  C   UNL     1       7.622  23.136  55.269  1.00  0.00     0.066 A 
HETATM   15  C   UNL     1       7.759  21.747  55.179  1.00  0.00     0.070 A 
HETATM   16  C   UNL     1       7.934  21.154  53.928  1.00  0.00     0.037 A 
HETATM   17  C   UNL     1       7.978  21.936  52.776  1.00  0.00     0.005 A 
HETATM   18  C   UNL     1       7.845  23.322  52.873  1.00  0.00     0.029 A 
BRANCH  15  19
HETATM   19  O   UNL     1       7.736  20.866  56.227  1.00  0.00    -0.356 OA
HETATM   20  C   UNL     1       8.409  21.267  57.417  1.00  0.00     0.210 C 
ENDBRANCH  15  19
ENDBRANCH  10  13
ENDBRANCH   8   9
ENDBRANCH   7   8
ENDBRANCH   4   7
BRANCH   1  21
HETATM   21  C   UNL     1       8.208  31.223  59.209  1.00  0.00     0.270 C 
HETATM   22  N   UNL     1       7.397  30.833  60.248  1.00  0.00    -0.259 N 
HETATM   23  H   UNL     1       6.670  30.141  60.151  1.00  0.00     0.191 HD
HETATM   24  O   UNL     1       8.936  32.208  59.201  1.00  0.00    -0.266 OA
BRANCH  22  25
HETATM   25  N   UNL     1       7.302  31.606  61.346  1.00  0.00    -0.263 N 
HETATM   26  C   UNL     1       6.489  32.702  61.418  1.00  0.00     0.030 A 
HETATM   27  C   UNL     1       5.481  33.042  60.383  1.00  0.00     0.070 C 
HETATM   28  C   UNL     1       6.801  33.344  62.604  1.00  0.00     0.028 A 
HETATM   29  C   UNL     1       7.851  32.619  63.223  1.00  0.00     0.028 A 
HETATM   30  C   UNL     1       8.165  31.547  62.406  1.00  0.00     0.030 A 
HETATM   31  C   UNL     1       9.177  30.477  62.590  1.00  0.00     0.070 C 
ENDBRANCH  22  25
ENDBRANCH   1  21
TORSDOF 7
ENDMDL
MODEL 4
REMARK VINA RESULT:      -9.4      2.109     10.544
REMARK  7 active torsions:
REMARK  status: ('A' for Active; 'I' for Inactive)
REMARK    1  A    between atoms: N_3  and  N_4 
REMARK       I    between atoms: N_4  and  C_5 
REMARK    2  A    between atoms: C_5  and  C_6 
REMARK    3  A    between atoms: C_9  and  O_10 
REMARK    4  A    between atoms: O_10  and  C_11 
REMARK    5  A    between atoms: C_11  and  C_12 
REMARK       I    between atoms: C_12  and  N_13 
REMARK    6  A    between atoms: N_13  and  C_14 
REMARK    7  A    between atoms: C_16  and  O_17 
ROOT
HETATM    1  C   UNL     1       7.777  30.464  57.909  1.00  0.00     0.033 A 
HETATM    2  C   UNL     1       8.753  29.721  57.235  1.00  0.00     0.020 A 
HETATM    3  C   UNL     1       8.397  28.967  56.113  1.00  0.00     0.038 A 
HETATM    4  C   UNL     1       7.073  28.935  55.666  1.00  0.00     0.069 A 
HETATM    5  C   UNL     1       6.107  29.698  56.326  1.00  0.00     0.038 A 
HETATM    6  C   UNL     1       6.459  30.464  57.440  1.00  0.00     0.020 A 
ENDROOT
BRANCH   4   7
HETATM    7  O   UNL     1       6.846  28.159  54.561  1.00  0.00    -0.342 OA
BRANCH   7   8
HETATM    8  C   UNL     1       5.690  27.326  54.628  1.00  0.00     0.278 C 
BRANCH   8   9
HETATM    9  C   UNL     1       5.970  26.040  55.409  1.00  0.00     0.246 C 
HETATM   10  N   UNL     1       6.961  25.266  54.831  1.00  0.00    -0.325 N 
HETATM   11  H   UNL     1       7.423  25.689  54.031  1.00  0.00     0.169 HD
HETATM   12  O   UNL     1       5.300  25.755  56.398  1.00  0.00    -0.271 OA
BRANCH  10  13
HETATM   13  C   UNL     1       7.405  23.987  55.223  1.00  0.00     0.037 A 
HETATM   14  C   UNL     1       7.341  22.854  54.405  1.00  0.00     0.066 A 
HETATM   15  C   UNL     1       7.814  21.619  54.860  1.00  0.00     0.070 A 
HETATM   16  C   UNL     1       8.358  21.521  56.141  1.00  0.00     0.037 A 
HETATM   17  C   UNL     1       8.425  22.641  56.967  1.00  0.00     0.005 A 
HETATM   18  C   UNL     1       7.947  23.869  56.509  1.00  0.00     0.029 A 
BRANCH  15  19
HETATM   19  O   UNL     1       7.806  20.445  54.155  1.00  0.00    -0.356 OA
HETATM   20  C   UNL     1       8.579  20.409  52.959  1.00  0.00     0.210 C 
ENDBRANCH  15  19
ENDBRANCH  10  13
ENDBRANCH   8   9
ENDBRANCH   7   8
ENDBRANCH   4   7
BRANCH   1  21
HETATM   21  C   UNL     1       8.103  31.280  59.107  1.00  0.00     0.270 C 
HETATM   22  N   UNL     1       7.399  30.952  60.240  1.00  0.00    -0.259 N 
HETATM   23  H   UNL     1       6.600  30.337  60.236  1.00  0.00     0.191 HD
HETATM   24  O   UNL     1       8.918  32.189  59.008  1.00  0.00    -0.266 OA
BRANCH  22  25
HETATM   25  N   UNL     1       7.525  31.711  61.345  1.00  0.00    -0.263 N 
HETATM   26  C   UNL     1       8.381  31.405  62.366  1.00  0.00     0.030 A 
HETATM   27  C   UNL     1       9.401  30.330  62.283  1.00  0.00     0.070 C 
HETATM   28  C   UNL     1       8.095  32.286  63.394  1.00  0.00     0.028 A 
HETATM   29  C   UNL     1       7.018  33.106  62.973  1.00  0.00     0.028 A 
HETATM   30  C   UNL     1       6.661  32.713  61.695  1.00  0.00     0.030 A 
HETATM   31  C   UNL     1       5.607  33.246  60.796  1.00  0.00     0.070 C 
ENDBRANCH  22  25
ENDBRANCH   1  21
TORSDOF 7
ENDMDL
MODEL 5
REMARK VINA RESULT:      -9.2      2.063     10.639
REMARK  7 active torsions:
REMARK  status: ('A' for Active; 'I' for Inactive)
REMARK    1  A    between atoms: N_3  and  N_4 
REMARK       I    between atoms: N_4  and  C_5 
REMARK    2  A    between atoms: C_5  and  C_6 
REMARK    3  A    between atoms: C_9  and  O_10 
REMARK    4  A    between atoms: O_10  and  C_11 
REMARK    5  A    between atoms: C_11  and  C_12 
REMARK       I    between atoms: C_12  and  N_13 
REMARK    6  A    between atoms: N_13  and  C_14 
REMARK    7  A    between atoms: C_16  and  O_17 
ROOT
HETATM    1  C   UNL     1       6.635  30.381  58.155  1.00  0.00     0.033 A 
HETATM    2  C   UNL     1       5.453  30.697  57.475  1.00  0.00     0.020 A 
HETATM    3  C   UNL     1       4.943  29.807  56.523  1.00  0.00     0.038 A 
HETATM    4  C   UNL     1       5.612  28.613  56.234  1.00  0.00     0.069 A 
HETATM    5  C   UNL     1       6.777  28.291  56.933  1.00  0.00     0.038 A 
HETATM    6  C   UNL     1       7.284  29.170  57.894  1.00  0.00     0.020 A 
ENDROOT
BRANCH   4   7
HETATM    7  O   UNL     1       5.020  27.827  55.283  1.00  0.00    -0.342 OA
BRANCH   7   8
HETATM    8  C   UNL     1       5.635  27.856  53.997  1.00  0.00     0.278 C 
BRANCH   8   9
HETATM    9  C   UNL     1       6.656  26.726  53.839  1.00  0.00     0.246 C 
HETATM   10  N   UNL     1       6.141  25.486  54.171  1.00  0.00    -0.325 N 
HETATM   11  H   UNL     1       5.148  25.478  54.385  1.00  0.00     0.169 HD
HETATM   12  O   UNL     1       7.814  26.976  53.513  1.00  0.00    -0.271 OA
BRANCH  10  13
HETATM   13  C   UNL     1       6.819  24.252  54.233  1.00  0.00     0.037 A 
HETATM   14  C   UNL     1       7.203  23.632  55.427  1.00  0.00     0.066 A 
HETATM   15  C   UNL     1       7.862  22.398  55.410  1.00  0.00     0.070 A 
HETATM   16  C   UNL     1       8.133  21.781  54.188  1.00  0.00     0.037 A 
HETATM   17  C   UNL     1       7.758  22.388  52.992  1.00  0.00     0.005 A 
HETATM   18  C   UNL     1       7.105  23.621  53.015  1.00  0.00     0.029 A 
BRANCH  15  19
HETATM   19  O   UNL     1       8.285  21.696  56.507  1.00  0.00    -0.356 OA
HETATM   20  C   UNL     1       9.029  20.507  56.262  1.00  0.00     0.210 C 
ENDBRANCH  15  19
ENDBRANCH  10  13
ENDBRANCH   8   9
ENDBRANCH   7   8
ENDBRANCH   4   7
BRANCH   1  21
HETATM   21  C   UNL     1       7.219  31.293  59.173  1.00  0.00     0.270 C 
HETATM   22  N   UNL     1       6.852  31.023  60.469  1.00  0.00    -0.259 N 
HETATM   23  H   UNL     1       6.113  30.381  60.713  1.00  0.00     0.191 HD
HETATM   24  O   UNL     1       7.931  32.219  58.810  1.00  0.00    -0.266 OA
BRANCH  22  25
HETATM   25  N   UNL     1       7.221  31.862  61.455  1.00  0.00    -0.263 N 
HETATM   26  C   UNL     1       8.238  31.588  62.326  1.00  0.00     0.030 A 
HETATM   27  C   UNL     1       9.170  30.445  62.162  1.00  0.00     0.070 C 
HETATM   28  C   UNL     1       8.195  32.570  63.300  1.00  0.00     0.028 A 
HETATM   29  C   UNL     1       7.099  33.421  63.006  1.00  0.00     0.028 A 
HETATM   30  C   UNL     1       6.489  32.946  61.859  1.00  0.00     0.030 A 
HETATM   31  C   UNL     1       5.313  33.469  61.121  1.00  0.00     0.070 C 
ENDBRANCH  22  25
ENDBRANCH   1  21
TORSDOF 7
ENDMDL
MODEL 6
REMARK VINA RESULT:      -9.2      1.666      2.761
REMARK  7 active torsions:
REMARK  status: ('A' for Active; 'I' for Inactive)
REMARK    1  A    between atoms: N_3  and  N_4 
REMARK       I    between atoms: N_4  and  C_5 
REMARK    2  A    between atoms: C_5  and  C_6 
REMARK    3  A    between atoms: C_9  and  O_10 
REMARK    4  A    between atoms: O_10  and  C_11 
REMARK    5  A    between atoms: C_11  and  C_12 
REMARK       I    between atoms: C_12  and  N_13 
REMARK    6  A    between atoms: N_13  and  C_14 
REMARK    7  A    between atoms: C_16  and  O_17 
ROOT
HETATM    1  C   UNL     1       7.327  28.698  57.367  1.00  0.00     0.033 A 
HETATM    2  C   UNL     1       8.688  28.886  57.632  1.00  0.00     0.020 A 
HETATM    3  C   UNL     1       9.121  30.081  58.216  1.00  0.00     0.038 A 
HETATM    4  C   UNL     1       8.209  31.095  58.523  1.00  0.00     0.069 A 
HETATM    5  C   UNL     1       6.849  30.893  58.280  1.00  0.00     0.038 A 
HETATM    6  C   UNL     1       6.409  29.696  57.709  1.00  0.00     0.020 A 
ENDROOT
BRANCH   4   7
HETATM    7  O   UNL     1       8.751  32.218  59.087  1.00  0.00    -0.342 OA
BRANCH   7   8
HETATM    8  C   UNL     1       9.518  31.999  60.270  1.00  0.00     0.278 C 
BRANCH   8   9
HETATM    9  C   UNL     1       8.619  31.816  61.495  1.00  0.00     0.246 C 
HETATM   10  N   UNL     1       7.923  32.965  61.826  1.00  0.00    -0.325 N 
HETATM   11  H   UNL     1       8.031  33.735  61.172  1.00  0.00     0.169 HD
HETATM   12  O   UNL     1       8.617  30.754  62.112  1.00  0.00    -0.271 OA
BRANCH  10  13
HETATM   13  C   UNL     1       7.086  33.184  62.940  1.00  0.00     0.037 A 
HETATM   14  C   UNL     1       5.689  33.219  62.870  1.00  0.00     0.066 A 
HETATM   15  C   UNL     1       4.923  33.427  64.022  1.00  0.00     0.070 A 
HETATM   16  C   UNL     1       5.563  33.597  65.251  1.00  0.00     0.037 A 
HETATM   17  C   UNL     1       6.953  33.566  65.333  1.00  0.00     0.005 A 
HETATM   18  C   UNL     1       7.712  33.362  64.180  1.00  0.00     0.029 A 
BRANCH  15  19
HETATM   19  O   UNL     1       3.556  33.482  64.081  1.00  0.00    -0.356 OA
HETATM   20  C   UNL     1       2.880  33.905  62.901  1.00  0.00     0.210 C 
ENDBRANCH  15  19
ENDBRANCH  10  13
ENDBRANCH   8   9
ENDBRANCH   7   8
ENDBRANCH   4   7
BRANCH   1  21
HETATM   21  C   UNL     1       6.817  27.448  56.747  1.00  0.00     0.270 C 
HETATM   22  N   UNL     1       7.682  26.842  55.868  1.00  0.00    -0.259 N 
HETATM   23  H   UNL     1       8.520  27.285  55.523  1.00  0.00     0.191 HD
HETATM   24  O   UNL     1       5.684  27.066  57.013  1.00  0.00    -0.266 OA
BRANCH  22  25
HETATM   25  N   UNL     1       7.270  25.776  55.156  1.00  0.00    -0.263 N 
HETATM   26  C   UNL     1       7.559  24.487  55.510  1.00  0.00     0.030 A 
HETATM   27  C   UNL     1       8.174  24.113  56.807  1.00  0.00     0.070 C 
HETATM   28  C   UNL     1       7.149  23.691  54.455  1.00  0.00     0.028 A 
HETATM   29  C   UNL     1       6.638  24.544  53.443  1.00  0.00     0.028 A 
HETATM   30  C   UNL     1       6.746  25.847  53.894  1.00  0.00     0.030 A 
HETATM   31  C   UNL     1       6.351  27.117  53.235  1.00  0.00     0.070 C 
ENDBRANCH  22  25
ENDBRANCH   1  21
TORSDOF 7
ENDMDL
MODEL 7
REMARK VINA RESULT:      -9.0      4.167      7.406
REMARK  7 active torsions:
REMARK  status: ('A' for Active; 'I' for Inactive)
REMARK    1  A    between atoms: N_3  and  N_4 
REMARK       I    between atoms: N_4  and  C_5 
REMARK    2  A    between atoms: C_5  and  C_6 
REMARK    3  A    between atoms: C_9  and  O_10 
REMARK    4  A    between atoms: O_10  and  C_11 
REMARK    5  A    between atoms: C_11  and  C_12 
REMARK       I    between atoms: C_12  and  N_13 
REMARK    6  A    between atoms: N_13  and  C_14 
REMARK    7  A    between atoms: C_16  and  O_17 
ROOT
HETATM    1  C   UNL     1       7.311  31.862  60.810  1.00  0.00     0.033 A 
HETATM    2  C   UNL     1       8.421  31.839  61.663  1.00  0.00     0.020 A 
HETATM    3  C   UNL     1       8.286  32.268  62.987  1.00  0.00     0.038 A 
HETATM    4  C   UNL     1       7.057  32.734  63.463  1.00  0.00     0.069 A 
HETATM    5  C   UNL     1       5.946  32.732  62.618  1.00  0.00     0.038 A 
HETATM    6  C   UNL     1       6.072  32.292  61.297  1.00  0.00     0.020 A 
ENDROOT
BRANCH   4   7
HETATM    7  O   UNL     1       7.049  33.130  64.774  1.00  0.00    -0.342 OA
BRANCH   7   8
HETATM    8  C   UNL     1       6.164  34.206  65.081  1.00  0.00     0.278 C 
BRANCH   8   9
HETATM    9  C   UNL     1       5.835  34.251  66.575  1.00  0.00     0.246 C 
HETATM   10  N   UNL     1       6.918  34.620  67.352  1.00  0.00    -0.325 N 
HETATM   11  H   UNL     1       7.746  34.893  66.832  1.00  0.00     0.169 HD
HETATM   12  O   UNL     1       4.723  33.916  66.977  1.00  0.00    -0.271 OA
BRANCH  10  13
HETATM   13  C   UNL     1       7.000  34.673  68.759  1.00  0.00     0.037 A 
HETATM   14  C   UNL     1       5.886  34.700  69.605  1.00  0.00     0.066 A 
HETATM   15  C   UNL     1       6.046  34.738  70.994  1.00  0.00     0.070 A 
HETATM   16  C   UNL     1       7.332  34.745  71.537  1.00  0.00     0.037 A 
HETATM   17  C   UNL     1       8.449  34.720  70.706  1.00  0.00     0.005 A 
HETATM   18  C   UNL     1       8.283  34.687  69.321  1.00  0.00     0.029 A 
BRANCH  15  19
HETATM   19  O   UNL     1       5.038  34.767  71.920  1.00  0.00    -0.356 OA
HETATM   20  C   UNL     1       5.409  35.047  73.266  1.00  0.00     0.210 C 
ENDBRANCH  15  19
ENDBRANCH  10  13
ENDBRANCH   8   9
ENDBRANCH   7   8
ENDBRANCH   4   7
BRANCH   1  21
HETATM   21  C   UNL     1       7.401  31.419  59.396  1.00  0.00     0.270 C 
HETATM   22  N   UNL     1       7.791  30.112  59.222  1.00  0.00    -0.259 N 
HETATM   23  H   UNL     1       8.160  29.542  59.967  1.00  0.00     0.191 HD
HETATM   24  O   UNL     1       7.173  32.222  58.500  1.00  0.00    -0.266 OA
BRANCH  22  25
HETATM   25  N   UNL     1       8.027  29.647  57.981  1.00  0.00    -0.263 N 
HETATM   26  C   UNL     1       9.222  29.811  57.338  1.00  0.00     0.030 A 
HETATM   27  C   UNL     1      10.442  30.335  58.000  1.00  0.00     0.070 C 
HETATM   28  C   UNL     1       9.028  29.385  56.036  1.00  0.00     0.028 A 
HETATM   29  C   UNL     1       7.671  28.993  55.909  1.00  0.00     0.028 A 
HETATM   30  C   UNL     1       7.057  29.187  57.133  1.00  0.00     0.030 A 
HETATM   31  C   UNL     1       5.655  28.928  57.545  1.00  0.00     0.070 C 
ENDBRANCH  22  25
ENDBRANCH   1  21
TORSDOF 7
ENDMDL
MODEL 8
REMARK VINA RESULT:      -8.9      2.198     11.698
REMARK  7 active torsions:
REMARK  status: ('A' for Active; 'I' for Inactive)
REMARK    1  A    between atoms: N_3  and  N_4 
REMARK       I    between atoms: N_4  and  C_5 
REMARK    2  A    between atoms: C_5  and  C_6 
REMARK    3  A    between atoms: C_9  and  O_10 
REMARK    4  A    between atoms: O_10  and  C_11 
REMARK    5  A    between atoms: C_11  and  C_12 
REMARK       I    between atoms: C_12  and  N_13 
REMARK    6  A    between atoms: N_13  and  C_14 
REMARK    7  A    between atoms: C_16  and  O_17 
ROOT
HETATM    1  C   UNL     1       6.946  32.766  62.120  1.00  0.00     0.033 A 
HETATM    2  C   UNL     1       6.510  32.639  60.796  1.00  0.00     0.020 A 
HETATM    3  C   UNL     1       7.106  31.689  59.959  1.00  0.00     0.038 A 
HETATM    4  C   UNL     1       8.142  30.877  60.428  1.00  0.00     0.069 A 
HETATM    5  C   UNL     1       8.557  30.989  61.757  1.00  0.00     0.038 A 
HETATM    6  C   UNL     1       7.957  31.927  62.601  1.00  0.00     0.020 A 
ENDROOT
BRANCH   4   7
HETATM    7  O   UNL     1       8.649  29.990  59.517  1.00  0.00    -0.342 OA
BRANCH   7   8
HETATM    8  C   UNL     1       7.777  29.659  58.437  1.00  0.00     0.278 C 
BRANCH   8   9
HETATM    9  C   UNL     1       8.372  28.562  57.552  1.00  0.00     0.246 C 
HETATM   10  N   UNL     1       7.502  27.505  57.349  1.00  0.00    -0.325 N 
HETATM   11  H   UNL     1       6.571  27.636  57.733  1.00  0.00     0.169 HD
HETATM   12  O   UNL     1       9.531  28.644  57.155  1.00  0.00    -0.271 OA
BRANCH  10  13
HETATM   13  C   UNL     1       7.750  26.293  56.672  1.00  0.00     0.037 A 
HETATM   14  C   UNL     1       7.312  26.023  55.371  1.00  0.00     0.066 A 
HETATM   15  C   UNL     1       7.609  24.801  54.759  1.00  0.00     0.070 A 
HETATM   16  C   UNL     1       8.353  23.847  55.455  1.00  0.00     0.037 A 
HETATM   17  C   UNL     1       8.792  24.102  56.751  1.00  0.00     0.005 A 
HETATM   18  C   UNL     1       8.490  25.322  57.358  1.00  0.00     0.029 A 
BRANCH  15  19
HETATM   19  O   UNL     1       7.237  24.422  53.497  1.00  0.00    -0.356 OA
HETATM   20  C   UNL     1       8.011  24.937  52.418  1.00  0.00     0.210 C 
ENDBRANCH  15  19
ENDBRANCH  10  13
ENDBRANCH   8   9
ENDBRANCH   7   8
ENDBRANCH   4   7
BRANCH   1  21
HETATM   21  C   UNL     1       6.347  33.759  63.049  1.00  0.00     0.270 C 
HETATM   22  N   UNL     1       5.697  33.219  64.133  1.00  0.00    -0.259 N 
HETATM   23  H   UNL     1       5.480  32.238  64.215  1.00  0.00     0.191 HD
HETATM   24  O   UNL     1       6.428  34.951  62.784  1.00  0.00    -0.266 OA
BRANCH  22  25
HETATM   25  N   UNL     1       5.012  34.024  64.967  1.00  0.00    -0.263 N 
HETATM   26  C   UNL     1       5.468  34.374  66.207  1.00  0.00     0.030 A 
HETATM   27  C   UNL     1       6.840  34.078  66.688  1.00  0.00     0.070 C 
HETATM   28  C   UNL     1       4.426  35.034  66.835  1.00  0.00     0.028 A 
HETATM   29  C   UNL     1       3.320  35.037  65.948  1.00  0.00     0.028 A 
HETATM   30  C   UNL     1       3.702  34.379  64.792  1.00  0.00     0.030 A 
HETATM   31  C   UNL     1       2.933  34.113  63.551  1.00  0.00     0.070 C 
ENDBRANCH  22  25
ENDBRANCH   1  21
TORSDOF 7
ENDMDL
MODEL 9
REMARK VINA RESULT:      -8.7      2.362     11.698
REMARK  7 active torsions:
REMARK  status: ('A' for Active; 'I' for Inactive)
REMARK    1  A    between atoms: N_3  and  N_4 
REMARK       I    between atoms: N_4  and  C_5 
REMARK    2  A    between atoms: C_5  and  C_6 
REMARK    3  A    between atoms: C_9  and  O_10 
REMARK    4  A    between atoms: O_10  and  C_11 
REMARK    5  A    between atoms: C_11  and  C_12 
REMARK       I    between atoms: C_12  and  N_13 
REMARK    6  A    between atoms: N_13  and  C_14 
REMARK    7  A    between atoms: C_16  and  O_17 
ROOT
HETATM    1  C   UNL     1       6.930  32.935  62.715  1.00  0.00     0.033 A 
HETATM    2  C   UNL     1       8.057  32.179  63.057  1.00  0.00     0.020 A 
HETATM    3  C   UNL     1       8.597  31.282  62.129  1.00  0.00     0.038 A 
HETATM    4  C   UNL     1       8.013  31.123  60.869  1.00  0.00     0.069 A 
HETATM    5  C   UNL     1       6.903  31.897  60.523  1.00  0.00     0.038 A 
HETATM    6  C   UNL     1       6.367  32.804  61.441  1.00  0.00     0.020 A 
ENDROOT
BRANCH   4   7
HETATM    7  O   UNL     1       8.627  30.214  60.050  1.00  0.00    -0.342 OA
BRANCH   7   8
HETATM    8  C   UNL     1       8.454  30.439  58.652  1.00  0.00     0.278 C 
BRANCH   8   9
HETATM    9  C   UNL     1       7.621  29.330  58.005  1.00  0.00     0.246 C 
HETATM   10  N   UNL     1       8.391  28.270  57.560  1.00  0.00    -0.325 N 
HETATM   11  H   UNL     1       9.377  28.327  57.798  1.00  0.00     0.169 HD
HETATM   12  O   UNL     1       6.408  29.464  57.866  1.00  0.00    -0.271 OA
BRANCH  10  13
HETATM   13  C   UNL     1       7.972  27.133  56.840  1.00  0.00     0.037 A 
HETATM   14  C   UNL     1       7.635  27.151  55.482  1.00  0.00     0.066 A 
HETATM   15  C   UNL     1       7.239  25.978  54.830  1.00  0.00     0.070 A 
HETATM   16  C   UNL     1       7.186  24.780  55.544  1.00  0.00     0.037 A 
HETATM   17  C   UNL     1       7.517  24.749  56.896  1.00  0.00     0.005 A 
HETATM   18  C   UNL     1       7.906  25.923  57.542  1.00  0.00     0.029 A 
BRANCH  15  19
HETATM   19  O   UNL     1       6.887  25.870  53.511  1.00  0.00    -0.356 OA
HETATM   20  C   UNL     1       7.704  25.037  52.694  1.00  0.00     0.210 C 
ENDBRANCH  15  19
ENDBRANCH  10  13
ENDBRANCH   8   9
ENDBRANCH   7   8
ENDBRANCH   4   7
BRANCH   1  21
HETATM   21  C   UNL     1       6.318  33.899  63.664  1.00  0.00     0.270 C 
HETATM   22  N   UNL     1       5.601  33.328  64.688  1.00  0.00    -0.259 N 
HETATM   23  H   UNL     1       5.350  32.352  64.710  1.00  0.00     0.191 HD
HETATM   24  O   UNL     1       6.447  35.100  63.465  1.00  0.00    -0.266 OA
BRANCH  22  25
HETATM   25  N   UNL     1       4.901  34.113  65.530  1.00  0.00    -0.263 N 
HETATM   26  C   UNL     1       3.698  34.673  65.200  1.00  0.00     0.030 A 
HETATM   27  C   UNL     1       2.941  34.322  63.974  1.00  0.00     0.070 C 
HETATM   28  C   UNL     1       3.385  35.555  66.220  1.00  0.00     0.028 A 
HETATM   29  C   UNL     1       4.453  35.533  67.152  1.00  0.00     0.028 A 
HETATM   30  C   UNL     1       5.403  34.640  66.688  1.00  0.00     0.030 A 
HETATM   31  C   UNL     1       6.700  34.237  67.285  1.00  0.00     0.070 C 
ENDBRANCH  22  25
ENDBRANCH   1  21
TORSDOF 7
ENDMDL
MODEL 10
REMARK VINA RESULT:      -8.7      3.680     11.371
REMARK  7 active torsions:
REMARK  status: ('A' for Active; 'I' for Inactive)
REMARK    1  A    between atoms: N_3  and  N_4 
REMARK       I    between atoms: N_4  and  C_5 
REMARK    2  A    between atoms: C_5  and  C_6 
REMARK    3  A    between atoms: C_9  and  O_10 
REMARK    4  A    between atoms: O_10  and  C_11 
REMARK    5  A    between atoms: C_11  and  C_12 
REMARK       I    between atoms: C_12  and  N_13 
REMARK    6  A    between atoms: N_13  and  C_14 
REMARK    7  A    between atoms: C_16  and  O_17 
ROOT
HETATM    1  C   UNL     1       7.750  30.259  57.789  1.00  0.00     0.033 A 
HETATM    2  C   UNL     1       8.731  29.600  57.037  1.00  0.00     0.020 A 
HETATM    3  C   UNL     1       8.354  28.821  55.938  1.00  0.00     0.038 A 
HETATM    4  C   UNL     1       7.007  28.682  55.592  1.00  0.00     0.069 A 
HETATM    5  C   UNL     1       6.034  29.360  56.329  1.00  0.00     0.038 A 
HETATM    6  C   UNL     1       6.405  30.151  57.420  1.00  0.00     0.020 A 
ENDROOT
BRANCH   4   7
HETATM    7  O   UNL     1       6.761  27.892  54.501  1.00  0.00    -0.342 OA
BRANCH   7   8
HETATM    8  C   UNL     1       5.469  27.290  54.462  1.00  0.00     0.278 C 
BRANCH   8   9
HETATM    9  C   UNL     1       4.768  27.555  53.127  1.00  0.00     0.246 C 
HETATM   10  N   UNL     1       5.567  27.268  52.035  1.00  0.00    -0.325 N 
HETATM   11  H   UNL     1       6.462  26.844  52.258  1.00  0.00     0.169 HD
HETATM   12  O   UNL     1       3.638  28.037  53.104  1.00  0.00    -0.271 OA
BRANCH  10  13
HETATM   13  C   UNL     1       5.282  27.481  50.671  1.00  0.00     0.037 A 
HETATM   14  C   UNL     1       4.871  26.472  49.793  1.00  0.00     0.066 A 
HETATM   15  C   UNL     1       4.593  26.762  48.453  1.00  0.00     0.070 A 
HETATM   16  C   UNL     1       4.725  28.073  47.993  1.00  0.00     0.037 A 
HETATM   17  C   UNL     1       5.136  29.086  48.855  1.00  0.00     0.005 A 
HETATM   18  C   UNL     1       5.416  28.790  50.190  1.00  0.00     0.029 A 
BRANCH  15  19
HETATM   19  O   UNL     1       4.185  25.864  47.503  1.00  0.00    -0.356 OA
HETATM   20  C   UNL     1       2.876  25.322  47.652  1.00  0.00     0.210 C 
ENDBRANCH  15  19
ENDBRANCH  10  13
ENDBRANCH   8   9
ENDBRANCH   7   8
ENDBRANCH   4   7
BRANCH   1  21
HETATM   21  C   UNL     1       8.097  31.097  58.965  1.00  0.00     0.270 C 
HETATM   22  N   UNL     1       7.377  30.824  60.103  1.00  0.00    -0.259 N 
HETATM   23  H   UNL     1       6.559  30.235  60.111  1.00  0.00     0.191 HD
HETATM   24  O   UNL     1       8.942  31.975  58.846  1.00  0.00    -0.266 OA
BRANCH  22  25
HETATM   25  N   UNL     1       7.523  31.608  61.188  1.00  0.00    -0.263 N 
HETATM   26  C   UNL     1       8.409  31.333  62.193  1.00  0.00     0.030 A 
HETATM   27  C   UNL     1       9.438  30.268  62.108  1.00  0.00     0.070 C 
HETATM   28  C   UNL     1       8.140  32.234  63.208  1.00  0.00     0.028 A 
HETATM   29  C   UNL     1       7.043  33.033  62.797  1.00  0.00     0.028 A 
HETATM   30  C   UNL     1       6.658  32.608  61.537  1.00  0.00     0.030 A 
HETATM   31  C   UNL     1       5.576  33.111  60.654  1.00  0.00     0.070 C 
ENDBRANCH  22  25
ENDBRANCH   1  21
TORSDOF 7
ENDMDL
