MODEL 1
REMARK VINA RESULT:     -10.2      0.000      0.000
REMARK  3 active torsions:
REMARK  status: ('A' for Active; 'I' for Inactive)
REMARK    1  A    between atoms: C_5  and  N_6 
REMARK       I    between atoms: N_6  and  C_7 
REMARK    2  A    between atoms: C_7  and  C_8 
REMARK    3  A    between atoms: C_8  and  N_9 
ROOT
HETATM    1  N   UNL     1       7.478  31.334  58.900  1.00  0.00    -0.256 N 
HETATM    2  C   UNL     1       6.302  31.849  58.405  1.00  0.00     0.330 A 
HETATM    3  O   UNL     1       5.823  32.948  58.620  1.00  0.00    -0.246 OA
HETATM    4  N   UNL     1       5.705  30.857  57.650  1.00  0.00    -0.303 N 
HETATM    5  C   UNL     1       6.440  29.699  57.683  1.00  0.00     0.122 A 
HETATM    6  C   UNL     1       6.068  28.544  57.115  1.00  0.00     0.077 A 
HETATM    7  C   UNL     1       4.716  28.449  56.449  1.00  0.00     0.259 A 
HETATM    8  O   UNL     1       3.905  29.343  56.294  1.00  0.00    -0.267 OA
HETATM    9  N   UNL     1       4.583  27.127  56.075  1.00  0.00    -0.322 N 
HETATM   10  C   UNL     1       6.674  27.207  57.033  1.00  0.00     0.009 A 
HETATM   11  C   UNL     1       5.717  26.394  56.405  1.00  0.00     0.046 A 
HETATM   12  C   UNL     1       5.916  25.051  56.147  1.00  0.00     0.030 A 
HETATM   13  C   UNL     1       7.140  24.502  56.523  1.00  0.00     0.002 A 
HETATM   14  C   UNL     1       8.122  25.302  57.131  1.00  0.00     0.001 A 
HETATM   15  C   UNL     1       7.893  26.661  57.388  1.00  0.00     0.015 A 
HETATM   16  C   UNL     1       7.642  30.028  58.516  1.00  0.00     0.280 A 
HETATM   17  O   UNL     1       8.574  29.305  58.820  1.00  0.00    -0.265 OA
HETATM   18  H   UNL     1       4.798  30.957  57.202  1.00  0.00     0.171 HD
HETATM   19  H   UNL     1       3.763  26.767  55.611  1.00  0.00     0.169 HD
ENDROOT
BRANCH   1  20
HETATM   20  C   UNL     1       8.279  32.000  59.904  1.00  0.00     0.240 C 
BRANCH  20  21
HETATM   21  C   UNL     1       7.782  31.794  61.335  1.00  0.00     0.240 C 
HETATM   22  N   UNL     1       6.988  32.834  61.794  1.00  0.00    -0.326 N 
HETATM   23  H   UNL     1       6.647  33.496  61.097  1.00  0.00     0.169 HD
HETATM   24  O   UNL     1       8.167  30.834  61.997  1.00  0.00    -0.271 OA
BRANCH  22  25
HETATM   25  C   UNL     1       6.644  33.122  63.132  1.00  0.00     0.034 A 
HETATM   26  C   UNL     1       5.281  33.154  63.449  1.00  0.00     0.030 A 
HETATM   27  C   UNL     1       4.854  33.510  64.734  1.00  0.00     0.009 A 
HETATM   28  C   UNL     1       5.784  33.859  65.717  1.00  0.00    -0.062 A 
HETATM   29  C   UNL     1       5.340  34.252  67.095  1.00  0.00     0.048 C 
HETATM   30  C   UNL     1       7.147  33.798  65.408  1.00  0.00     0.009 A 
HETATM   31  C   UNL     1       7.573  33.433  64.125  1.00  0.00     0.030 A 
ENDBRANCH  22  25
ENDBRANCH  20  21
ENDBRANCH   1  20
TORSDOF 3
ENDMDL
MODEL 2
REMARK VINA RESULT:     -10.0      7.127     11.002
REMARK  3 active torsions:
REMARK  status: ('A' for Active; 'I' for Inactive)
REMARK    1  A    between atoms: C_5  and  N_6 
REMARK       I    between atoms: N_6  and  C_7 
REMARK    2  A    between atoms: C_7  and  C_8 
REMARK    3  A    between atoms: C_8  and  N_9 
ROOT
HETATM    1  N   UNL     1       6.375  27.168  53.593  1.00  0.00    -0.256 N 
HETATM    2  C   UNL     1       6.576  27.566  54.895  1.00  0.00     0.330 A 
HETATM    3  O   UNL     1       6.453  28.686  55.358  1.00  0.00    -0.246 OA
HETATM    4  N   UNL     1       7.016  26.461  55.599  1.00  0.00    -0.303 N 
HETATM    5  C   UNL     1       7.151  25.371  54.776  1.00  0.00     0.122 A 
HETATM    6  C   UNL     1       7.639  24.184  55.159  1.00  0.00     0.077 A 
HETATM    7  C   UNL     1       8.160  24.016  56.567  1.00  0.00     0.259 A 
HETATM    8  O   UNL     1       8.135  24.838  57.466  1.00  0.00    -0.267 OA
HETATM    9  N   UNL     1       8.694  22.744  56.613  1.00  0.00    -0.322 N 
HETATM   10  C   UNL     1       7.880  22.909  54.467  1.00  0.00     0.009 A 
HETATM   11  C   UNL     1       8.533  22.087  55.398  1.00  0.00     0.046 A 
HETATM   12  C   UNL     1       8.933  20.794  55.119  1.00  0.00     0.030 A 
HETATM   13  C   UNL     1       8.650  20.297  53.849  1.00  0.00     0.002 A 
HETATM   14  C   UNL     1       7.975  21.094  52.908  1.00  0.00     0.001 A 
HETATM   15  C   UNL     1       7.586  22.405  53.214  1.00  0.00     0.015 A 
HETATM   16  C   UNL     1       6.706  25.847  53.427  1.00  0.00     0.280 A 
HETATM   17  O   UNL     1       6.654  25.224  52.382  1.00  0.00    -0.265 OA
HETATM   18  H   UNL     1       7.282  26.485  56.580  1.00  0.00     0.171 HD
HETATM   19  H   UNL     1       9.127  22.360  57.439  1.00  0.00     0.169 HD
ENDROOT
BRANCH   1  20
HETATM   20  C   UNL     1       6.115  28.090  52.509  1.00  0.00     0.240 C 
BRANCH  20  21
HETATM   21  C   UNL     1       4.791  27.846  51.785  1.00  0.00     0.240 C 
HETATM   22  N   UNL     1       4.950  27.271  50.533  1.00  0.00    -0.326 N 
HETATM   23  H   UNL     1       5.868  26.884  50.317  1.00  0.00     0.169 HD
HETATM   24  O   UNL     1       3.734  28.236  52.271  1.00  0.00    -0.271 OA
BRANCH  22  25
HETATM   25  C   UNL     1       4.000  27.214  49.492  1.00  0.00     0.034 A 
HETATM   26  C   UNL     1       3.260  28.374  49.237  1.00  0.00     0.030 A 
HETATM   27  C   UNL     1       2.242  28.377  48.276  1.00  0.00     0.009 A 
HETATM   28  C   UNL     1       1.936  27.212  47.567  1.00  0.00    -0.062 A 
HETATM   29  C   UNL     1       0.842  27.198  46.541  1.00  0.00     0.048 C 
HETATM   30  C   UNL     1       2.695  26.061  47.801  1.00  0.00     0.009 A 
HETATM   31  C   UNL     1       3.719  26.062  48.757  1.00  0.00     0.030 A 
ENDBRANCH  22  25
ENDBRANCH  20  21
ENDBRANCH   1  20
TORSDOF 3
ENDMDL
MODEL 3
REMARK VINA RESULT:     -10.0      2.964      9.426
REMARK  3 active torsions:
REMARK  status: ('A' for Active; 'I' for Inactive)
REMARK    1  A    between atoms: C_5  and  N_6 
REMARK       I    between atoms: N_6  and  C_7 
REMARK    2  A    between atoms: C_7  and  C_8 
REMARK    3  A    between atoms: C_8  and  N_9 
ROOT
HETATM    1  N   UNL     1       6.136  29.039  55.361  1.00  0.00    -0.256 N 
HETATM    2  C   UNL     1       4.901  29.643  55.338  1.00  0.00     0.330 A 
HETATM    3  O   UNL     1       4.054  29.574  54.464  1.00  0.00    -0.246 OA
HETATM    4  N   UNL     1       4.802  30.420  56.477  1.00  0.00    -0.303 N 
HETATM    5  C   UNL     1       5.960  30.370  57.211  1.00  0.00     0.122 A 
HETATM    6  C   UNL     1       6.189  31.086  58.320  1.00  0.00     0.077 A 
HETATM    7  C   UNL     1       5.157  32.087  58.784  1.00  0.00     0.259 A 
HETATM    8  O   UNL     1       4.060  32.294  58.296  1.00  0.00    -0.267 OA
HETATM    9  N   UNL     1       5.729  32.734  59.860  1.00  0.00    -0.322 N 
HETATM   10  C   UNL     1       7.329  31.201  59.243  1.00  0.00     0.009 A 
HETATM   11  C   UNL     1       6.992  32.225  60.140  1.00  0.00     0.046 A 
HETATM   12  C   UNL     1       7.819  32.636  61.168  1.00  0.00     0.030 A 
HETATM   13  C   UNL     1       9.037  31.975  61.310  1.00  0.00     0.002 A 
HETATM   14  C   UNL     1       9.387  30.931  60.438  1.00  0.00     0.001 A 
HETATM   15  C   UNL     1       8.532  30.537  59.399  1.00  0.00     0.015 A 
HETATM   16  C   UNL     1       6.853  29.428  56.463  1.00  0.00     0.280 A 
HETATM   17  O   UNL     1       7.986  29.076  56.739  1.00  0.00    -0.265 OA
HETATM   18  H   UNL     1       4.003  31.012  56.690  1.00  0.00     0.171 HD
HETATM   19  H   UNL     1       5.262  33.470  60.369  1.00  0.00     0.169 HD
ENDROOT
BRANCH   1  20
HETATM   20  C   UNL     1       6.690  28.315  54.237  1.00  0.00     0.240 C 
BRANCH  20  21
HETATM   21  C   UNL     1       6.399  26.814  54.256  1.00  0.00     0.240 C 
HETATM   22  N   UNL     1       7.515  26.045  54.548  1.00  0.00    -0.326 N 
HETATM   23  H   UNL     1       8.329  26.534  54.919  1.00  0.00     0.169 HD
HETATM   24  O   UNL     1       5.293  26.389  53.934  1.00  0.00    -0.271 OA
BRANCH  22  25
HETATM   25  C   UNL     1       7.679  24.660  54.332  1.00  0.00     0.034 A 
HETATM   26  C   UNL     1       7.882  24.238  53.014  1.00  0.00     0.030 A 
HETATM   27  C   UNL     1       7.974  22.876  52.705  1.00  0.00     0.009 A 
HETATM   28  C   UNL     1       7.844  21.913  53.709  1.00  0.00    -0.062 A 
HETATM   29  C   UNL     1       7.930  20.449  53.390  1.00  0.00     0.048 C 
HETATM   30  C   UNL     1       7.671  22.336  55.030  1.00  0.00     0.009 A 
HETATM   31  C   UNL     1       7.588  23.699  55.339  1.00  0.00     0.030 A 
ENDBRANCH  22  25
ENDBRANCH  20  21
ENDBRANCH   1  20
TORSDOF 3
ENDMDL
MODEL 4
REMARK VINA RESULT:      -9.9      3.491      9.750
REMARK  3 active torsions:
REMARK  status: ('A' for Active; 'I' for Inactive)
REMARK    1  A    between atoms: C_5  and  N_6 
REMARK       I    between atoms: N_6  and  C_7 
REMARK    2  A    between atoms: C_7  and  C_8 
REMARK    3  A    between atoms: C_8  and  N_9 
ROOT
HETATM    1  N   UNL     1       6.265  28.335  55.190  1.00  0.00    -0.256 N 
HETATM    2  C   UNL     1       7.439  28.177  54.491  1.00  0.00     0.330 A 
HETATM    3  O   UNL     1       7.629  27.492  53.501  1.00  0.00    -0.246 OA
HETATM    4  N   UNL     1       8.414  28.897  55.155  1.00  0.00    -0.303 N 
HETATM    5  C   UNL     1       7.911  29.478  56.292  1.00  0.00     0.122 A 
HETATM    6  C   UNL     1       8.639  30.166  57.181  1.00  0.00     0.077 A 
HETATM    7  C   UNL     1      10.135  30.267  56.995  1.00  0.00     0.259 A 
HETATM    8  O   UNL     1      10.793  29.840  56.063  1.00  0.00    -0.267 OA
HETATM    9  N   UNL     1      10.602  30.922  58.116  1.00  0.00    -0.322 N 
HETATM   10  C   UNL     1       8.327  30.851  58.445  1.00  0.00     0.009 A 
HETATM   11  C   UNL     1       9.559  31.272  58.966  1.00  0.00     0.046 A 
HETATM   12  C   UNL     1       9.683  31.958  60.159  1.00  0.00     0.030 A 
HETATM   13  C   UNL     1       8.512  32.248  60.854  1.00  0.00     0.002 A 
HETATM   14  C   UNL     1       7.264  31.857  60.340  1.00  0.00     0.001 A 
HETATM   15  C   UNL     1       7.165  31.156  59.130  1.00  0.00     0.015 A 
HETATM   16  C   UNL     1       6.460  29.108  56.307  1.00  0.00     0.280 A 
HETATM   17  O   UNL     1       5.610  29.400  57.129  1.00  0.00    -0.265 OA
HETATM   18  H   UNL     1       9.391  28.919  54.874  1.00  0.00     0.171 HD
HETATM   19  H   UNL     1      11.580  31.122  58.267  1.00  0.00     0.169 HD
ENDROOT
BRANCH   1  20
HETATM   20  C   UNL     1       5.070  27.565  54.924  1.00  0.00     0.240 C 
BRANCH  20  21
HETATM   21  C   UNL     1       5.336  26.193  54.303  1.00  0.00     0.240 C 
HETATM   22  N   UNL     1       6.141  25.383  55.090  1.00  0.00    -0.326 N 
HETATM   23  H   UNL     1       6.290  25.678  56.054  1.00  0.00     0.169 HD
HETATM   24  O   UNL     1       4.936  25.933  53.172  1.00  0.00    -0.271 OA
BRANCH  22  25
HETATM   25  C   UNL     1       6.835  24.221  54.691  1.00  0.00     0.034 A 
HETATM   26  C   UNL     1       7.128  24.087  53.329  1.00  0.00     0.030 A 
HETATM   27  C   UNL     1       7.741  22.928  52.840  1.00  0.00     0.009 A 
HETATM   28  C   UNL     1       8.055  21.875  53.704  1.00  0.00    -0.062 A 
HETATM   29  C   UNL     1       8.704  20.624  53.191  1.00  0.00     0.048 C 
HETATM   30  C   UNL     1       7.789  22.022  55.069  1.00  0.00     0.009 A 
HETATM   31  C   UNL     1       7.183  23.186  55.558  1.00  0.00     0.030 A 
ENDBRANCH  22  25
ENDBRANCH  20  21
ENDBRANCH   1  20
TORSDOF 3
ENDMDL
MODEL 5
REMARK VINA RESULT:      -9.6      1.776      9.069
REMARK  3 active torsions:
REMARK  status: ('A' for Active; 'I' for Inactive)
REMARK    1  A    between atoms: C_5  and  N_6 
REMARK       I    between atoms: N_6  and  C_7 
REMARK    2  A    between atoms: C_7  and  C_8 
REMARK    3  A    between atoms: C_8  and  N_9 
ROOT
HETATM    1  N   UNL     1       7.622  30.100  57.568  1.00  0.00    -0.256 N 
HETATM    2  C   UNL     1       8.919  29.926  57.991  1.00  0.00     0.330 A 
HETATM    3  O   UNL     1       9.802  29.292  57.440  1.00  0.00    -0.246 OA
HETATM    4  N   UNL     1       9.041  30.555  59.216  1.00  0.00    -0.303 N 
HETATM    5  C   UNL     1       7.843  31.091  59.618  1.00  0.00     0.122 A 
HETATM    6  C   UNL     1       7.634  31.687  60.799  1.00  0.00     0.077 A 
HETATM    7  C   UNL     1       8.749  31.723  61.818  1.00  0.00     0.259 A 
HETATM    8  O   UNL     1       9.889  31.320  61.679  1.00  0.00    -0.267 OA
HETATM    9  N   UNL     1       8.194  32.285  62.950  1.00  0.00    -0.322 N 
HETATM   10  C   UNL     1       6.463  32.309  61.435  1.00  0.00     0.009 A 
HETATM   11  C   UNL     1       6.865  32.636  62.739  1.00  0.00     0.046 A 
HETATM   12  C   UNL     1       6.032  33.242  63.660  1.00  0.00     0.030 A 
HETATM   13  C   UNL     1       4.738  33.549  63.246  1.00  0.00     0.002 A 
HETATM   14  C   UNL     1       4.320  33.253  61.937  1.00  0.00     0.001 A 
HETATM   15  C   UNL     1       5.183  32.632  61.024  1.00  0.00     0.015 A 
HETATM   16  C   UNL     1       6.891  30.794  58.500  1.00  0.00     0.280 A 
HETATM   17  O   UNL     1       5.710  31.079  58.413  1.00  0.00    -0.265 OA
HETATM   18  H   UNL     1       9.890  30.544  59.775  1.00  0.00     0.171 HD
HETATM   19  H   UNL     1       8.713  32.426  63.804  1.00  0.00     0.169 HD
ENDROOT
BRANCH   1  20
HETATM   20  C   UNL     1       7.054  29.409  56.431  1.00  0.00     0.240 C 
BRANCH  20  21
HETATM   21  C   UNL     1       6.726  27.939  56.695  1.00  0.00     0.240 C 
HETATM   22  N   UNL     1       7.762  27.079  56.362  1.00  0.00    -0.326 N 
HETATM   23  H   UNL     1       8.674  27.501  56.191  1.00  0.00     0.169 HD
HETATM   24  O   UNL     1       5.604  27.607  57.065  1.00  0.00    -0.271 OA
BRANCH  22  25
HETATM   25  C   UNL     1       7.687  25.683  56.171  1.00  0.00     0.034 A 
HETATM   26  C   UNL     1       8.329  24.873  57.114  1.00  0.00     0.030 A 
HETATM   27  C   UNL     1       8.370  23.483  56.954  1.00  0.00     0.009 A 
HETATM   28  C   UNL     1       7.784  22.882  55.836  1.00  0.00    -0.062 A 
HETATM   29  C   UNL     1       7.829  21.395  55.647  1.00  0.00     0.048 C 
HETATM   30  C   UNL     1       7.117  23.689  54.909  1.00  0.00     0.009 A 
HETATM   31  C   UNL     1       7.069  25.079  55.076  1.00  0.00     0.030 A 
ENDBRANCH  22  25
ENDBRANCH  20  21
ENDBRANCH   1  20
TORSDOF 3
ENDMDL
MODEL 6
REMARK VINA RESULT:      -9.5      3.376      5.025
REMARK  3 active torsions:
REMARK  status: ('A' for Active; 'I' for Inactive)
REMARK    1  A    between atoms: C_5  and  N_6 
REMARK       I    between atoms: N_6  and  C_7 
REMARK    2  A    between atoms: C_7  and  C_8 
REMARK    3  A    between atoms: C_8  and  N_9 
ROOT
HETATM    1  N   UNL     1       8.123  27.756  56.565  1.00  0.00    -0.256 N 
HETATM    2  C   UNL     1       8.074  26.438  56.956  1.00  0.00     0.330 A 
HETATM    3  O   UNL     1       8.585  25.936  57.942  1.00  0.00    -0.246 OA
HETATM    4  N   UNL     1       7.383  25.745  55.981  1.00  0.00    -0.303 N 
HETATM    5  C   UNL     1       7.025  26.572  54.946  1.00  0.00     0.122 A 
HETATM    6  C   UNL     1       6.419  26.166  53.822  1.00  0.00     0.077 A 
HETATM    7  C   UNL     1       6.167  24.692  53.607  1.00  0.00     0.259 A 
HETATM    8  O   UNL     1       6.392  23.783  54.386  1.00  0.00    -0.267 OA
HETATM    9  N   UNL     1       5.651  24.589  52.331  1.00  0.00    -0.322 N 
HETATM   10  C   UNL     1       5.961  26.853  52.604  1.00  0.00     0.009 A 
HETATM   11  C   UNL     1       5.522  25.840  51.738  1.00  0.00     0.046 A 
HETATM   12  C   UNL     1       5.015  26.089  50.477  1.00  0.00     0.030 A 
HETATM   13  C   UNL     1       4.932  27.420  50.073  1.00  0.00     0.002 A 
HETATM   14  C   UNL     1       5.344  28.452  50.932  1.00  0.00     0.001 A 
HETATM   15  C   UNL     1       5.860  28.172  52.205  1.00  0.00     0.015 A 
HETATM   16  C   UNL     1       7.513  27.929  55.348  1.00  0.00     0.280 A 
HETATM   17  O   UNL     1       7.420  28.980  54.739  1.00  0.00    -0.265 OA
HETATM   18  H   UNL     1       7.238  24.738  55.998  1.00  0.00     0.171 HD
HETATM   19  H   UNL     1       5.395  23.708  51.912  1.00  0.00     0.169 HD
ENDROOT
BRANCH   1  20
HETATM   20  C   UNL     1       8.941  28.753  57.220  1.00  0.00     0.240 C 
BRANCH  20  21
HETATM   21  C   UNL     1       8.183  29.620  58.226  1.00  0.00     0.240 C 
HETATM   22  N   UNL     1       9.017  30.285  59.113  1.00  0.00    -0.326 N 
HETATM   23  H   UNL     1      10.010  30.307  58.884  1.00  0.00     0.169 HD
HETATM   24  O   UNL     1       6.956  29.605  58.262  1.00  0.00    -0.271 OA
BRANCH  22  25
HETATM   25  C   UNL     1       8.656  30.888  60.336  1.00  0.00     0.034 A 
HETATM   26  C   UNL     1       8.020  32.133  60.273  1.00  0.00     0.030 A 
HETATM   27  C   UNL     1       7.703  32.834  61.442  1.00  0.00     0.009 A 
HETATM   28  C   UNL     1       8.034  32.308  62.694  1.00  0.00    -0.062 A 
HETATM   29  C   UNL     1       7.708  33.053  63.955  1.00  0.00     0.048 C 
HETATM   30  C   UNL     1       8.642  31.051  62.758  1.00  0.00     0.009 A 
HETATM   31  C   UNL     1       8.952  30.347  61.587  1.00  0.00     0.030 A 
ENDBRANCH  22  25
ENDBRANCH  20  21
ENDBRANCH   1  20
TORSDOF 3
ENDMDL
MODEL 7
REMARK VINA RESULT:      -9.5      3.537      5.819
REMARK  3 active torsions:
REMARK  status: ('A' for Active; 'I' for Inactive)
REMARK    1  A    between atoms: C_5  and  N_6 
REMARK       I    between atoms: N_6  and  C_7 
REMARK    2  A    between atoms: C_7  and  C_8 
REMARK    3  A    between atoms: C_8  and  N_9 
ROOT
HETATM    1  N   UNL     1       5.865  27.966  54.724  1.00  0.00    -0.256 N 
HETATM    2  C   UNL     1       6.001  27.997  53.355  1.00  0.00     0.330 A 
HETATM    3  O   UNL     1       5.577  28.841  52.585  1.00  0.00    -0.246 OA
HETATM    4  N   UNL     1       6.663  26.843  52.981  1.00  0.00    -0.303 N 
HETATM    5  C   UNL     1       6.916  26.044  54.067  1.00  0.00     0.122 A 
HETATM    6  C   UNL     1       7.470  24.825  54.003  1.00  0.00     0.077 A 
HETATM    7  C   UNL     1       7.779  24.222  52.653  1.00  0.00     0.259 A 
HETATM    8  O   UNL     1       7.646  24.747  51.562  1.00  0.00    -0.267 OA
HETATM    9  N   UNL     1       8.219  22.941  52.915  1.00  0.00    -0.322 N 
HETATM   10  C   UNL     1       7.818  23.809  55.007  1.00  0.00     0.009 A 
HETATM   11  C   UNL     1       8.251  22.689  54.282  1.00  0.00     0.046 A 
HETATM   12  C   UNL     1       8.666  21.513  54.878  1.00  0.00     0.030 A 
HETATM   13  C   UNL     1       8.660  21.466  56.271  1.00  0.00     0.002 A 
HETATM   14  C   UNL     1       8.252  22.584  57.019  1.00  0.00     0.001 A 
HETATM   15  C   UNL     1       7.830  23.763  56.389  1.00  0.00     0.015 A 
HETATM   16  C   UNL     1       6.389  26.809  55.242  1.00  0.00     0.280 A 
HETATM   17  O   UNL     1       6.393  26.491  56.418  1.00  0.00    -0.265 OA
HETATM   18  H   UNL     1       6.858  26.591  52.015  1.00  0.00     0.171 HD
HETATM   19  H   UNL     1       8.491  22.295  52.189  1.00  0.00     0.169 HD
ENDROOT
BRANCH   1  20
HETATM   20  C   UNL     1       5.042  28.896  55.464  1.00  0.00     0.240 C 
BRANCH  20  21
HETATM   21  C   UNL     1       5.827  30.013  56.153  1.00  0.00     0.240 C 
HETATM   22  N   UNL     1       6.771  29.543  57.054  1.00  0.00    -0.326 N 
HETATM   23  H   UNL     1       6.993  28.550  57.012  1.00  0.00     0.169 HD
HETATM   24  O   UNL     1       5.533  31.190  55.963  1.00  0.00    -0.271 OA
BRANCH  22  25
HETATM   25  C   UNL     1       7.420  30.274  58.071  1.00  0.00     0.034 A 
HETATM   26  C   UNL     1       8.760  29.963  58.327  1.00  0.00     0.030 A 
HETATM   27  C   UNL     1       9.452  30.585  59.373  1.00  0.00     0.009 A 
HETATM   28  C   UNL     1       8.807  31.516  60.192  1.00  0.00    -0.062 A 
HETATM   29  C   UNL     1       9.534  32.183  61.322  1.00  0.00     0.048 C 
HETATM   30  C   UNL     1       7.477  31.849  59.917  1.00  0.00     0.009 A 
HETATM   31  C   UNL     1       6.789  31.232  58.865  1.00  0.00     0.030 A 
ENDBRANCH  22  25
ENDBRANCH  20  21
ENDBRANCH   1  20
TORSDOF 3
ENDMDL
MODEL 8
REMARK VINA RESULT:      -9.3      8.202     11.009
REMARK  3 active torsions:
REMARK  status: ('A' for Active; 'I' for Inactive)
REMARK    1  A    between atoms: C_5  and  N_6 
REMARK       I    between atoms: N_6  and  C_7 
REMARK    2  A    between atoms: C_7  and  C_8 
REMARK    3  A    between atoms: C_8  and  N_9 
ROOT
HETATM    1  N   UNL     1       5.623  27.018  52.266  1.00  0.00    -0.256 N 
HETATM    2  C   UNL     1       6.134  26.130  51.348  1.00  0.00     0.330 A 
HETATM    3  O   UNL     1       7.081  25.376  51.489  1.00  0.00    -0.246 OA
HETATM    4  N   UNL     1       5.413  26.286  50.179  1.00  0.00    -0.303 N 
HETATM    5  C   UNL     1       4.480  27.285  50.304  1.00  0.00     0.122 A 
HETATM    6  C   UNL     1       3.692  27.718  49.311  1.00  0.00     0.077 A 
HETATM    7  C   UNL     1       3.866  27.146  47.923  1.00  0.00     0.259 A 
HETATM    8  O   UNL     1       4.620  26.252  47.583  1.00  0.00    -0.267 OA
HETATM    9  N   UNL     1       3.008  27.867  47.118  1.00  0.00    -0.322 N 
HETATM   10  C   UNL     1       2.654  28.755  49.211  1.00  0.00     0.009 A 
HETATM   11  C   UNL     1       2.293  28.805  47.855  1.00  0.00     0.046 A 
HETATM   12  C   UNL     1       1.337  29.668  47.356  1.00  0.00     0.030 A 
HETATM   13  C   UNL     1       0.701  30.512  48.265  1.00  0.00     0.002 A 
HETATM   14  C   UNL     1       1.029  30.464  49.630  1.00  0.00     0.001 A 
HETATM   15  C   UNL     1       2.008  29.582  50.111  1.00  0.00     0.015 A 
HETATM   16  C   UNL     1       4.615  27.767  51.715  1.00  0.00     0.280 A 
HETATM   17  O   UNL     1       3.991  28.649  52.279  1.00  0.00    -0.265 OA
HETATM   18  H   UNL     1       5.611  25.779  49.321  1.00  0.00     0.171 HD
HETATM   19  H   UNL     1       2.921  27.706  46.126  1.00  0.00     0.169 HD
ENDROOT
BRANCH   1  20
HETATM   20  C   UNL     1       6.253  27.299  53.538  1.00  0.00     0.240 C 
BRANCH  20  21
HETATM   21  C   UNL     1       6.329  26.094  54.476  1.00  0.00     0.240 C 
HETATM   22  N   UNL     1       7.546  25.431  54.416  1.00  0.00    -0.326 N 
HETATM   23  H   UNL     1       8.310  25.912  53.944  1.00  0.00     0.169 HD
HETATM   24  O   UNL     1       5.344  25.738  55.115  1.00  0.00    -0.271 OA
BRANCH  22  25
HETATM   25  C   UNL     1       7.835  24.131  54.884  1.00  0.00     0.034 A 
HETATM   26  C   UNL     1       7.660  23.074  53.983  1.00  0.00     0.030 A 
HETATM   27  C   UNL     1       7.847  21.749  54.391  1.00  0.00     0.009 A 
HETATM   28  C   UNL     1       8.195  21.458  55.713  1.00  0.00    -0.062 A 
HETATM   29  C   UNL     1       8.389  20.041  56.167  1.00  0.00     0.048 C 
HETATM   30  C   UNL     1       8.399  22.516  56.605  1.00  0.00     0.009 A 
HETATM   31  C   UNL     1       8.219  23.842  56.193  1.00  0.00     0.030 A 
ENDBRANCH  22  25
ENDBRANCH  20  21
ENDBRANCH   1  20
TORSDOF 3
ENDMDL
MODEL 9
REMARK VINA RESULT:      -9.3      7.531     11.369
REMARK  3 active torsions:
REMARK  status: ('A' for Active; 'I' for Inactive)
REMARK    1  A    between atoms: C_5  and  N_6 
REMARK       I    between atoms: N_6  and  C_7 
REMARK    2  A    between atoms: C_7  and  C_8 
REMARK    3  A    between atoms: C_8  and  N_9 
ROOT
HETATM    1  N   UNL     1       4.818  28.107  52.515  1.00  0.00    -0.256 N 
HETATM    2  C   UNL     1       4.307  28.445  53.747  1.00  0.00     0.330 A 
HETATM    3  O   UNL     1       3.719  29.467  54.053  1.00  0.00    -0.246 OA
HETATM    4  N   UNL     1       4.639  27.429  54.622  1.00  0.00    -0.303 N 
HETATM    5  C   UNL     1       5.393  26.466  54.000  1.00  0.00     0.122 A 
HETATM    6  C   UNL     1       5.930  25.404  54.615  1.00  0.00     0.077 A 
HETATM    7  C   UNL     1       5.785  25.263  56.112  1.00  0.00     0.259 A 
HETATM    8  O   UNL     1       5.158  25.987  56.864  1.00  0.00    -0.267 OA
HETATM    9  N   UNL     1       6.535  24.155  56.451  1.00  0.00    -0.322 N 
HETATM   10  C   UNL     1       6.761  24.277  54.165  1.00  0.00     0.009 A 
HETATM   11  C   UNL     1       7.105  23.568  55.326  1.00  0.00     0.046 A 
HETATM   12  C   UNL     1       7.890  22.432  55.316  1.00  0.00     0.030 A 
HETATM   13  C   UNL     1       8.340  21.976  54.079  1.00  0.00     0.002 A 
HETATM   14  C   UNL     1       7.989  22.656  52.900  1.00  0.00     0.001 A 
HETATM   15  C   UNL     1       7.195  23.811  52.938  1.00  0.00     0.015 A 
HETATM   16  C   UNL     1       5.500  26.919  52.576  1.00  0.00     0.280 A 
HETATM   17  O   UNL     1       6.079  26.379  51.649  1.00  0.00    -0.265 OA
HETATM   18  H   UNL     1       4.420  27.444  55.615  1.00  0.00     0.171 HD
HETATM   19  H   UNL     1       6.629  23.825  57.400  1.00  0.00     0.169 HD
ENDROOT
BRANCH   1  20
HETATM   20  C   UNL     1       4.856  29.018  51.391  1.00  0.00     0.240 C 
BRANCH  20  21
HETATM   21  C   UNL     1       3.536  29.123  50.627  1.00  0.00     0.240 C 
HETATM   22  N   UNL     1       3.251  27.997  49.869  1.00  0.00    -0.326 N 
HETATM   23  H   UNL     1       3.808  27.164  50.055  1.00  0.00     0.169 HD
HETATM   24  O   UNL     1       2.889  30.166  50.641  1.00  0.00    -0.271 OA
BRANCH  22  25
HETATM   25  C   UNL     1       2.315  27.888  48.819  1.00  0.00     0.034 A 
HETATM   26  C   UNL     1       2.365  26.729  48.036  1.00  0.00     0.030 A 
HETATM   27  C   UNL     1       1.525  26.579  46.926  1.00  0.00     0.009 A 
HETATM   28  C   UNL     1       0.635  27.596  46.571  1.00  0.00    -0.062 A 
HETATM   29  C   UNL     1      -0.264  27.452  45.379  1.00  0.00     0.048 C 
HETATM   30  C   UNL     1       0.564  28.740  47.371  1.00  0.00     0.009 A 
HETATM   31  C   UNL     1       1.399  28.885  48.486  1.00  0.00     0.030 A 
ENDBRANCH  22  25
ENDBRANCH  20  21
ENDBRANCH   1  20
TORSDOF 3
ENDMDL
MODEL 10
REMARK VINA RESULT:      -9.1      1.934      9.406
REMARK  3 active torsions:
REMARK  status: ('A' for Active; 'I' for Inactive)
REMARK    1  A    between atoms: C_5  and  N_6 
REMARK       I    between atoms: N_6  and  C_7 
REMARK    2  A    between atoms: C_7  and  C_8 
REMARK    3  A    between atoms: C_8  and  N_9 
ROOT
HETATM    1  N   UNL     1       7.049  30.550  58.176  1.00  0.00    -0.256 N 
HETATM    2  C   UNL     1       8.009  29.774  58.784  1.00  0.00     0.330 A 
HETATM    3  O   UNL     1       8.528  28.760  58.354  1.00  0.00    -0.246 OA
HETATM    4  N   UNL     1       8.247  30.318  60.032  1.00  0.00    -0.303 N 
HETATM    5  C   UNL     1       7.431  31.398  60.265  1.00  0.00     0.122 A 
HETATM    6  C   UNL     1       7.377  32.076  61.419  1.00  0.00     0.077 A 
HETATM    7  C   UNL     1       8.198  31.602  62.596  1.00  0.00     0.259 A 
HETATM    8  O   UNL     1       8.992  30.679  62.618  1.00  0.00    -0.267 OA
HETATM    9  N   UNL     1       7.838  32.420  63.648  1.00  0.00    -0.322 N 
HETATM   10  C   UNL     1       6.593  33.228  61.890  1.00  0.00     0.009 A 
HETATM   11  C   UNL     1       6.908  33.374  63.249  1.00  0.00     0.046 A 
HETATM   12  C   UNL     1       6.364  34.358  64.052  1.00  0.00     0.030 A 
HETATM   13  C   UNL     1       5.472  35.247  63.457  1.00  0.00     0.002 A 
HETATM   14  C   UNL     1       5.159  35.135  62.091  1.00  0.00     0.001 A 
HETATM   15  C   UNL     1       5.721  34.123  61.300  1.00  0.00     0.015 A 
HETATM   16  C   UNL     1       6.635  31.559  59.007  1.00  0.00     0.280 A 
HETATM   17  O   UNL     1       5.780  32.389  58.751  1.00  0.00    -0.265 OA
HETATM   18  H   UNL     1       8.885  29.914  60.713  1.00  0.00     0.171 HD
HETATM   19  H   UNL     1       8.227  32.326  64.574  1.00  0.00     0.169 HD
ENDROOT
BRANCH   1  20
HETATM   20  C   UNL     1       6.386  30.178  56.945  1.00  0.00     0.240 C 
BRANCH  20  21
HETATM   21  C   UNL     1       6.359  28.672  56.681  1.00  0.00     0.240 C 
HETATM   22  N   UNL     1       7.388  28.242  55.857  1.00  0.00    -0.326 N 
HETATM   23  H   UNL     1       8.151  28.897  55.693  1.00  0.00     0.169 HD
HETATM   24  O   UNL     1       5.433  27.982  57.100  1.00  0.00    -0.271 OA
BRANCH  22  25
HETATM   25  C   UNL     1       7.472  27.016  55.164  1.00  0.00     0.034 A 
HETATM   26  C   UNL     1       7.451  27.069  53.765  1.00  0.00     0.030 A 
HETATM   27  C   UNL     1       7.449  25.894  53.005  1.00  0.00     0.009 A 
HETATM   28  C   UNL     1       7.450  24.645  53.632  1.00  0.00    -0.062 A 
HETATM   29  C   UNL     1       7.439  23.378  52.830  1.00  0.00     0.048 C 
HETATM   30  C   UNL     1       7.501  24.592  55.029  1.00  0.00     0.009 A 
HETATM   31  C   UNL     1       7.511  25.769  55.788  1.00  0.00     0.030 A 
ENDBRANCH  22  25
ENDBRANCH  20  21
ENDBRANCH   1  20
TORSDOF 3
ENDMDL
