MODEL 1
REMARK VINA RESULT:      -9.8      0.000      0.000
REMARK  9 active torsions:
REMARK  status: ('A' for Active; 'I' for Inactive)
REMARK    1  A    between atoms: C_2  and  O_3 
REMARK    2  A    between atoms: O_3  and  C_4 
REMARK    3  A    between atoms: C_5  and  C_6 
REMARK    4  A    between atoms: N_7  and  C_9 
REMARK    5  A    between atoms: C_9  and  C_10 
REMARK       I    between atoms: C_10  and  N_11 
REMARK    6  A    between atoms: N_11  and  C_12 
REMARK    7  A    between atoms: C_20  and  C_21 
REMARK    8  A    between atoms: C_21  and  O_22 
REMARK    9  A    between atoms: C_28  and  O_29 
ROOT
HETATM    1  C   UNL     1       6.903  31.408  58.425  1.00  0.00     0.231 C 
HETATM    2  N   UNL     1       7.898  30.329  57.990  1.00  0.00    -0.054 N 
HETATM    3  H   UNL     1       7.970  30.403  56.964  1.00  0.00     0.281 HD
HETATM    4  C   UNL     1       9.290  30.631  58.495  1.00  0.00     0.239 C 
HETATM    5  C   UNL     1       9.302  30.739  60.014  1.00  0.00     0.066 C 
HETATM    6  C   UNL     1       8.327  31.815  60.495  1.00  0.00     0.065 C 
HETATM    7  C   UNL     1       6.894  31.530  59.974  1.00  0.00     0.055 C 
HETATM    8  C   UNL     1       8.334  31.923  62.028  1.00  0.00     0.038 C 
HETATM    9  C   UNL     1       7.364  32.994  62.527  1.00  0.00     0.003 C 
HETATM   10  C   UNL     1       5.956  32.770  61.988  1.00  0.00     0.001 C 
HETATM   11  C   UNL     1       5.932  32.636  60.466  1.00  0.00     0.010 C 
ENDROOT
BRANCH   2  12
HETATM   12  C   UNL     1       7.465  28.874  58.196  1.00  0.00     0.338 C 
BRANCH  12  13
HETATM   13  C   UNL     1       7.900  27.980  57.030  1.00  0.00     0.248 C 
HETATM   14  N   UNL     1       7.318  26.730  57.053  1.00  0.00    -0.319 N 
HETATM   15  H   UNL     1       6.560  26.539  57.710  1.00  0.00     0.169 HD
HETATM   16  O   UNL     1       8.737  28.419  56.245  1.00  0.00    -0.271 OA
BRANCH  14  17
HETATM   17  C   UNL     1       7.637  25.639  56.250  1.00  0.00     0.094 A 
HETATM   18  S   UNL     1       8.495  24.313  56.863  1.00  0.00    -0.075 SA
HETATM   19  C   UNL     1       8.428  23.495  55.382  1.00  0.00    -0.008 A 
HETATM   20  C   UNL     1       7.737  24.198  54.412  1.00  0.00    -0.026 A 
HETATM   21  C   UNL     1       9.036  22.136  55.210  1.00  0.00     0.047 C 
HETATM   22  C   UNL     1       7.552  23.632  53.028  1.00  0.00     0.041 C 
HETATM   23  C   UNL     1       7.286  25.483  54.910  1.00  0.00     0.080 A 
HETATM   24  C   UNL     1       7.869  22.129  52.964  1.00  0.00     0.005 C 
HETATM   25  C   UNL     1       9.156  21.784  53.723  1.00  0.00     0.005 C 
BRANCH  23  26
HETATM   26  C   UNL     1       6.552  26.531  54.191  1.00  0.00     0.296 C 
HETATM   27  O   UNL     1       7.060  27.160  53.264  1.00  0.00    -0.259 OA
BRANCH  26  28
HETATM   28  O   UNL     1       5.282  26.718  54.640  1.00  0.00    -0.322 OA
HETATM   29  C   UNL     1       4.573  27.787  54.012  1.00  0.00     0.213 C 
ENDBRANCH  26  28
ENDBRANCH  23  26
ENDBRANCH  14  17
ENDBRANCH  12  13
ENDBRANCH   2  12
BRANCH   1  30
HETATM   30  C   UNL     1       5.559  31.333  57.710  1.00  0.00     0.006 A 
HETATM   31  C   UNL     1       4.926  32.429  57.085  1.00  0.00     0.077 A 
HETATM   32  C   UNL     1       3.733  32.230  56.375  1.00  0.00     0.037 A 
HETATM   33  C   UNL     1       3.145  30.967  56.306  1.00  0.00     0.003 A 
HETATM   34  C   UNL     1       3.738  29.888  56.946  1.00  0.00     0.001 A 
HETATM   35  C   UNL     1       4.931  30.069  57.641  1.00  0.00     0.012 A 
BRANCH  31  36
HETATM   36  O   UNL     1       5.533  33.651  57.217  1.00  0.00    -0.351 OA
BRANCH  36  37
HETATM   37  C   UNL     1       4.727  34.812  56.984  1.00  0.00     0.171 C 
HETATM   38  C   UNL     1       4.272  35.343  58.331  1.00  0.00     0.034 C 
ENDBRANCH  36  37
ENDBRANCH  31  36
ENDBRANCH   1  30
BRANCH   6  39
HETATM   39  O   UNL     1       8.774  33.056  59.933  1.00  0.00    -0.389 OA
HETATM   40  H   UNL     1       9.387  32.874  59.194  1.00  0.00     0.210 HD
ENDBRANCH   6  39
TORSDOF 9
ENDMDL
MODEL 2
REMARK VINA RESULT:      -9.6      1.551      4.154
REMARK  9 active torsions:
REMARK  status: ('A' for Active; 'I' for Inactive)
REMARK    1  A    between atoms: C_2  and  O_3 
REMARK    2  A    between atoms: O_3  and  C_4 
REMARK    3  A    between atoms: C_5  and  C_6 
REMARK    4  A    between atoms: N_7  and  C_9 
REMARK    5  A    between atoms: C_9  and  C_10 
REMARK       I    between atoms: C_10  and  N_11 
REMARK    6  A    between atoms: N_11  and  C_12 
REMARK    7  A    between atoms: C_20  and  C_21 
REMARK    8  A    between atoms: C_21  and  O_22 
REMARK    9  A    between atoms: C_28  and  O_29 
ROOT
HETATM    1  C   UNL     1       6.122  30.393  58.126  1.00  0.00     0.231 C 
HETATM    2  N   UNL     1       6.340  28.966  57.620  1.00  0.00    -0.054 N 
HETATM    3  H   UNL     1       6.707  28.431  58.422  1.00  0.00     0.281 HD
HETATM    4  C   UNL     1       5.028  28.297  57.282  1.00  0.00     0.239 C 
HETATM    5  C   UNL     1       4.274  29.093  56.224  1.00  0.00     0.066 C 
HETATM    6  C   UNL     1       4.024  30.527  56.692  1.00  0.00     0.065 C 
HETATM    7  C   UNL     1       5.359  31.226  57.058  1.00  0.00     0.055 C 
HETATM    8  C   UNL     1       3.267  31.333  55.624  1.00  0.00     0.038 C 
HETATM    9  C   UNL     1       3.009  32.771  56.075  1.00  0.00     0.003 C 
HETATM   10  C   UNL     1       4.299  33.468  56.493  1.00  0.00     0.001 C 
HETATM   11  C   UNL     1       5.078  32.669  57.536  1.00  0.00     0.010 C 
ENDROOT
BRANCH   2  12
HETATM   12  C   UNL     1       7.428  28.773  56.559  1.00  0.00     0.338 C 
BRANCH  12  13
HETATM   13  C   UNL     1       7.982  27.345  56.562  1.00  0.00     0.248 C 
HETATM   14  N   UNL     1       7.521  26.576  55.515  1.00  0.00    -0.319 N 
HETATM   15  H   UNL     1       6.997  27.018  54.757  1.00  0.00     0.169 HD
HETATM   16  O   UNL     1       8.713  27.011  57.492  1.00  0.00    -0.271 OA
BRANCH  14  17
HETATM   17  C   UNL     1       7.692  25.206  55.338  1.00  0.00     0.094 A 
HETATM   18  S   UNL     1       7.899  24.166  56.660  1.00  0.00    -0.075 SA
HETATM   19  C   UNL     1       7.985  22.801  55.661  1.00  0.00    -0.008 A 
HETATM   20  C   UNL     1       7.833  23.107  54.321  1.00  0.00    -0.026 A 
HETATM   21  C   UNL     1       8.166  21.425  56.230  1.00  0.00     0.047 C 
HETATM   22  C   UNL     1       7.863  22.026  53.272  1.00  0.00     0.041 C 
HETATM   23  C   UNL     1       7.684  24.534  54.117  1.00  0.00     0.080 A 
HETATM   24  C   UNL     1       7.705  20.620  53.874  1.00  0.00     0.005 C 
HETATM   25  C   UNL     1       8.568  20.437  55.129  1.00  0.00     0.005 C 
BRANCH  23  26
HETATM   26  C   UNL     1       7.532  25.262  52.851  1.00  0.00     0.296 C 
HETATM   27  O   UNL     1       8.408  25.252  51.988  1.00  0.00    -0.259 OA
BRANCH  26  28
HETATM   28  O   UNL     1       6.347  25.919  52.736  1.00  0.00    -0.322 OA
HETATM   29  C   UNL     1       5.212  25.079  52.520  1.00  0.00     0.213 C 
ENDBRANCH  26  28
ENDBRANCH  23  26
ENDBRANCH  14  17
ENDBRANCH  12  13
ENDBRANCH   2  12
BRANCH   1  30
HETATM   30  C   UNL     1       7.357  31.018  58.766  1.00  0.00     0.006 A 
HETATM   31  C   UNL     1       7.363  31.674  60.015  1.00  0.00     0.077 A 
HETATM   32  C   UNL     1       8.574  32.133  60.554  1.00  0.00     0.037 A 
HETATM   33  C   UNL     1       9.771  31.978  59.854  1.00  0.00     0.003 A 
HETATM   34  C   UNL     1       9.774  31.367  58.609  1.00  0.00     0.001 A 
HETATM   35  C   UNL     1       8.580  30.892  58.070  1.00  0.00     0.012 A 
BRANCH  31  36
HETATM   36  O   UNL     1       6.151  31.827  60.638  1.00  0.00    -0.351 OA
BRANCH  36  37
HETATM   37  C   UNL     1       6.121  32.635  61.822  1.00  0.00     0.171 C 
HETATM   38  C   UNL     1       5.388  31.857  62.899  1.00  0.00     0.034 C 
ENDBRANCH  36  37
ENDBRANCH  31  36
ENDBRANCH   1  30
BRANCH   6  39
HETATM   39  O   UNL     1       3.219  30.440  57.875  1.00  0.00    -0.389 OA
HETATM   40  H   UNL     1       3.540  29.703  58.430  1.00  0.00     0.210 HD
ENDBRANCH   6  39
TORSDOF 9
ENDMDL
MODEL 3
REMARK VINA RESULT:      -9.5      4.768      8.750
REMARK  9 active torsions:
REMARK  status: ('A' for Active; 'I' for Inactive)
REMARK    1  A    between atoms: C_2  and  O_3 
REMARK    2  A    between atoms: O_3  and  C_4 
REMARK    3  A    between atoms: C_5  and  C_6 
REMARK    4  A    between atoms: N_7  and  C_9 
REMARK    5  A    between atoms: C_9  and  C_10 
REMARK       I    between atoms: C_10  and  N_11 
REMARK    6  A    between atoms: N_11  and  C_12 
REMARK    7  A    between atoms: C_20  and  C_21 
REMARK    8  A    between atoms: C_21  and  O_22 
REMARK    9  A    between atoms: C_28  and  O_29 
ROOT
HETATM    1  C   UNL     1       7.434  24.427  54.674  1.00  0.00     0.231 C 
HETATM    2  N   UNL     1       7.130  24.660  53.192  1.00  0.00    -0.054 N 
HETATM    3  H   UNL     1       7.342  25.653  53.009  1.00  0.00     0.281 HD
HETATM    4  C   UNL     1       8.086  23.894  52.308  1.00  0.00     0.239 C 
HETATM    5  C   UNL     1       8.016  22.402  52.604  1.00  0.00     0.066 C 
HETATM    6  C   UNL     1       8.324  22.119  54.075  1.00  0.00     0.065 C 
HETATM    7  C   UNL     1       7.362  22.909  54.999  1.00  0.00     0.055 C 
HETATM    8  C   UNL     1       8.250  20.613  54.376  1.00  0.00     0.038 C 
HETATM    9  C   UNL     1       8.555  20.312  55.844  1.00  0.00     0.003 C 
HETATM   10  C   UNL     1       7.658  21.116  56.779  1.00  0.00     0.001 C 
HETATM   11  C   UNL     1       7.700  22.613  56.478  1.00  0.00     0.010 C 
ENDROOT
BRANCH   2  12
HETATM   12  C   UNL     1       5.663  24.545  52.767  1.00  0.00     0.338 C 
BRANCH  12  13
HETATM   13  C   UNL     1       5.085  25.897  52.337  1.00  0.00     0.248 C 
HETATM   14  N   UNL     1       5.492  26.291  51.080  1.00  0.00    -0.319 N 
HETATM   15  H   UNL     1       5.993  25.631  50.483  1.00  0.00     0.169 HD
HETATM   16  O   UNL     1       4.385  26.509  53.141  1.00  0.00    -0.271 OA
BRANCH  14  17
HETATM   17  C   UNL     1       5.292  27.532  50.482  1.00  0.00     0.094 A 
HETATM   18  S   UNL     1       5.632  28.973  51.305  1.00  0.00    -0.075 SA
HETATM   19  C   UNL     1       5.191  29.920  49.973  1.00  0.00    -0.008 A 
HETATM   20  C   UNL     1       4.806  29.164  48.881  1.00  0.00    -0.026 A 
HETATM   21  C   UNL     1       5.270  31.417  50.015  1.00  0.00     0.047 C 
HETATM   22  C   UNL     1       4.391  29.821  47.590  1.00  0.00     0.041 C 
HETATM   23  C   UNL     1       4.837  27.745  49.182  1.00  0.00     0.080 A 
HETATM   24  C   UNL     1       4.796  31.303  47.532  1.00  0.00     0.005 C 
HETATM   25  C   UNL     1       4.491  32.030  48.846  1.00  0.00     0.005 C 
BRANCH  23  26
HETATM   26  C   UNL     1       4.473  26.622  48.310  1.00  0.00     0.296 C 
HETATM   27  O   UNL     1       5.103  26.366  47.285  1.00  0.00    -0.259 OA
BRANCH  26  28
HETATM   28  O   UNL     1       3.403  25.909  48.752  1.00  0.00    -0.322 OA
HETATM   29  C   UNL     1       3.047  24.790  47.939  1.00  0.00     0.213 C 
ENDBRANCH  26  28
ENDBRANCH  23  26
ENDBRANCH  14  17
ENDBRANCH  12  13
ENDBRANCH   2  12
BRANCH   1  30
HETATM   30  C   UNL     1       6.716  25.391  55.612  1.00  0.00     0.006 A 
HETATM   31  C   UNL     1       7.000  26.769  55.711  1.00  0.00     0.077 A 
HETATM   32  C   UNL     1       6.217  27.583  56.540  1.00  0.00     0.037 A 
HETATM   33  C   UNL     1       5.178  27.041  57.298  1.00  0.00     0.003 A 
HETATM   34  C   UNL     1       4.911  25.681  57.238  1.00  0.00     0.001 A 
HETATM   35  C   UNL     1       5.672  24.864  56.405  1.00  0.00     0.012 A 
BRANCH  31  36
HETATM   36  O   UNL     1       8.055  27.236  54.969  1.00  0.00    -0.351 OA
BRANCH  36  37
HETATM   37  C   UNL     1       8.099  28.645  54.709  1.00  0.00     0.171 C 
HETATM   38  C   UNL     1       9.267  29.227  55.484  1.00  0.00     0.034 C 
ENDBRANCH  36  37
ENDBRANCH  31  36
ENDBRANCH   1  30
BRANCH   6  39
HETATM   39  O   UNL     1       9.660  22.581  54.312  1.00  0.00    -0.389 OA
HETATM   40  H   UNL     1      10.075  22.029  55.004  1.00  0.00     0.210 HD
ENDBRANCH   6  39
TORSDOF 9
ENDMDL
MODEL 4
REMARK VINA RESULT:      -9.2      2.624      5.329
REMARK  9 active torsions:
REMARK  status: ('A' for Active; 'I' for Inactive)
REMARK    1  A    between atoms: C_2  and  O_3 
REMARK    2  A    between atoms: O_3  and  C_4 
REMARK    3  A    between atoms: C_5  and  C_6 
REMARK    4  A    between atoms: N_7  and  C_9 
REMARK    5  A    between atoms: C_9  and  C_10 
REMARK       I    between atoms: C_10  and  N_11 
REMARK    6  A    between atoms: N_11  and  C_12 
REMARK    7  A    between atoms: C_20  and  C_21 
REMARK    8  A    between atoms: C_21  and  O_22 
REMARK    9  A    between atoms: C_28  and  O_29 
ROOT
HETATM    1  C   UNL     1       5.476  32.648  61.111  1.00  0.00     0.231 C 
HETATM    2  N   UNL     1       4.677  31.783  60.134  1.00  0.00    -0.054 N 
HETATM    3  H   UNL     1       4.931  30.806  60.342  1.00  0.00     0.281 HD
HETATM    4  C   UNL     1       3.194  31.862  60.417  1.00  0.00     0.239 C 
HETATM    5  C   UNL     1       2.703  33.301  60.328  1.00  0.00     0.066 C 
HETATM    6  C   UNL     1       3.469  34.203  61.297  1.00  0.00     0.065 C 
HETATM    7  C   UNL     1       4.995  34.124  61.031  1.00  0.00     0.055 C 
HETATM    8  C   UNL     1       2.978  35.656  61.205  1.00  0.00     0.038 C 
HETATM    9  C   UNL     1       3.733  36.573  62.168  1.00  0.00     0.003 C 
HETATM   10  C   UNL     1       5.241  36.477  61.966  1.00  0.00     0.001 C 
HETATM   11  C   UNL     1       5.744  35.036  62.029  1.00  0.00     0.010 C 
ENDROOT
BRANCH   2  12
HETATM   12  C   UNL     1       5.033  31.917  58.650  1.00  0.00     0.338 C 
BRANCH  12  13
HETATM   13  C   UNL     1       4.673  30.655  57.860  1.00  0.00     0.248 C 
HETATM   14  N   UNL     1       5.774  29.936  57.445  1.00  0.00    -0.319 N 
HETATM   15  H   UNL     1       6.699  30.182  57.799  1.00  0.00     0.169 HD
HETATM   16  O   UNL     1       3.485  30.437  57.630  1.00  0.00    -0.271 OA
BRANCH  14  17
HETATM   17  C   UNL     1       5.790  28.855  56.568  1.00  0.00     0.094 A 
HETATM   18  S   UNL     1       4.764  28.797  55.220  1.00  0.00    -0.075 SA
HETATM   19  C   UNL     1       5.397  27.311  54.715  1.00  0.00    -0.008 A 
HETATM   20  C   UNL     1       6.407  26.850  55.539  1.00  0.00    -0.026 A 
HETATM   21  C   UNL     1       4.904  26.632  53.472  1.00  0.00     0.047 C 
HETATM   22  C   UNL     1       7.111  25.549  55.249  1.00  0.00     0.041 C 
HETATM   23  C   UNL     1       6.630  27.747  56.656  1.00  0.00     0.080 A 
HETATM   24  C   UNL     1       6.846  25.046  53.821  1.00  0.00     0.005 C 
HETATM   25  C   UNL     1       5.366  25.171  53.437  1.00  0.00     0.005 C 
BRANCH  23  26
HETATM   26  C   UNL     1       7.583  27.602  57.763  1.00  0.00     0.296 C 
HETATM   27  O   UNL     1       7.743  26.531  58.346  1.00  0.00    -0.259 OA
BRANCH  26  28
HETATM   28  O   UNL     1       8.257  28.745  58.059  1.00  0.00    -0.322 OA
HETATM   29  C   UNL     1       9.379  29.017  57.217  1.00  0.00     0.213 C 
ENDBRANCH  26  28
ENDBRANCH  23  26
ENDBRANCH  14  17
ENDBRANCH  12  13
ENDBRANCH   2  12
BRANCH   1  30
HETATM   30  C   UNL     1       6.978  32.387  61.083  1.00  0.00     0.006 A 
HETATM   31  C   UNL     1       7.767  32.147  62.227  1.00  0.00     0.077 A 
HETATM   32  C   UNL     1       9.124  31.826  62.080  1.00  0.00     0.037 A 
HETATM   33  C   UNL     1       9.714  31.775  60.817  1.00  0.00     0.003 A 
HETATM   34  C   UNL     1       8.957  32.045  59.685  1.00  0.00     0.001 A 
HETATM   35  C   UNL     1       7.604  32.348  59.817  1.00  0.00     0.012 A 
BRANCH  31  36
HETATM   36  O   UNL     1       7.140  32.246  63.442  1.00  0.00    -0.351 OA
BRANCH  36  37
HETATM   37  C   UNL     1       7.707  33.148  64.400  1.00  0.00     0.171 C 
HETATM   38  C   UNL     1       6.589  33.636  65.302  1.00  0.00     0.034 C 
ENDBRANCH  36  37
ENDBRANCH  31  36
ENDBRANCH   1  30
BRANCH   6  39
HETATM   39  O   UNL     1       3.212  33.701  62.615  1.00  0.00    -0.389 OA
HETATM   40  H   UNL     1       2.652  32.903  62.554  1.00  0.00     0.210 HD
ENDBRANCH   6  39
TORSDOF 9
ENDMDL
MODEL 5
REMARK VINA RESULT:      -9.1      1.998      3.181
REMARK  9 active torsions:
REMARK  status: ('A' for Active; 'I' for Inactive)
REMARK    1  A    between atoms: C_2  and  O_3 
REMARK    2  A    between atoms: O_3  and  C_4 
REMARK    3  A    between atoms: C_5  and  C_6 
REMARK    4  A    between atoms: N_7  and  C_9 
REMARK    5  A    between atoms: C_9  and  C_10 
REMARK       I    between atoms: C_10  and  N_11 
REMARK    6  A    between atoms: N_11  and  C_12 
REMARK    7  A    between atoms: C_20  and  C_21 
REMARK    8  A    between atoms: C_21  and  O_22 
REMARK    9  A    between atoms: C_28  and  O_29 
ROOT
HETATM    1  C   UNL     1       6.052  32.900  59.381  1.00  0.00     0.231 C 
HETATM    2  N   UNL     1       6.274  31.800  58.341  1.00  0.00    -0.054 N 
HETATM    3  H   UNL     1       6.190  32.255  57.420  1.00  0.00     0.281 HD
HETATM    4  C   UNL     1       7.693  31.281  58.384  1.00  0.00     0.239 C 
HETATM    5  C   UNL     1       8.026  30.736  59.766  1.00  0.00     0.066 C 
HETATM    6  C   UNL     1       7.828  31.807  60.840  1.00  0.00     0.065 C 
HETATM    7  C   UNL     1       6.381  32.363  60.802  1.00  0.00     0.055 C 
HETATM    8  C   UNL     1       8.161  31.258  62.237  1.00  0.00     0.038 C 
HETATM    9  C   UNL     1       7.968  32.316  63.323  1.00  0.00     0.003 C 
HETATM   10  C   UNL     1       6.569  32.920  63.277  1.00  0.00     0.001 C 
HETATM   11  C   UNL     1       6.211  33.449  61.889  1.00  0.00     0.010 C 
ENDROOT
BRANCH   2  12
HETATM   12  C   UNL     1       5.211  30.698  58.271  1.00  0.00     0.338 C 
BRANCH  12  13
HETATM   13  C   UNL     1       5.342  29.859  56.996  1.00  0.00     0.248 C 
HETATM   14  N   UNL     1       5.478  28.509  57.241  1.00  0.00    -0.319 N 
HETATM   15  H   UNL     1       5.334  28.151  58.187  1.00  0.00     0.169 HD
HETATM   16  O   UNL     1       5.369  30.447  55.917  1.00  0.00    -0.271 OA
BRANCH  14  17
HETATM   17  C   UNL     1       5.793  27.515  56.319  1.00  0.00     0.094 A 
HETATM   18  S   UNL     1       4.883  27.303  54.905  1.00  0.00    -0.075 SA
HETATM   19  C   UNL     1       5.872  26.034  54.375  1.00  0.00    -0.008 A 
HETATM   20  C   UNL     1       6.916  25.770  55.243  1.00  0.00    -0.026 A 
HETATM   21  C   UNL     1       5.618  25.336  53.073  1.00  0.00     0.047 C 
HETATM   22  C   UNL     1       7.918  24.686  54.941  1.00  0.00     0.041 C 
HETATM   23  C   UNL     1       6.863  26.626  56.412  1.00  0.00     0.080 A 
HETATM   24  C   UNL     1       7.855  24.220  53.478  1.00  0.00     0.005 C 
HETATM   25  C   UNL     1       6.410  24.025  53.003  1.00  0.00     0.005 C 
BRANCH  23  26
HETATM   26  C   UNL     1       7.762  26.639  57.572  1.00  0.00     0.296 C 
HETATM   27  O   UNL     1       8.035  25.613  58.193  1.00  0.00    -0.259 OA
BRANCH  26  28
HETATM   28  O   UNL     1       8.254  27.871  57.870  1.00  0.00    -0.322 OA
HETATM   29  C   UNL     1       9.230  28.367  56.952  1.00  0.00     0.213 C 
ENDBRANCH  26  28
ENDBRANCH  23  26
ENDBRANCH  14  17
ENDBRANCH  12  13
ENDBRANCH   2  12
BRANCH   1  30
HETATM   30  C   UNL     1       4.751  33.673  59.196  1.00  0.00     0.006 A 
HETATM   31  C   UNL     1       4.391  34.359  58.017  1.00  0.00     0.077 A 
HETATM   32  C   UNL     1       3.129  34.961  57.921  1.00  0.00     0.037 A 
HETATM   33  C   UNL     1       2.235  34.921  58.991  1.00  0.00     0.003 A 
HETATM   34  C   UNL     1       2.590  34.281  60.170  1.00  0.00     0.001 A 
HETATM   35  C   UNL     1       3.835  33.664  60.272  1.00  0.00     0.012 A 
BRANCH  31  36
HETATM   36  O   UNL     1       5.325  34.394  57.013  1.00  0.00    -0.351 OA
BRANCH  36  37
HETATM   37  C   UNL     1       4.892  34.006  55.703  1.00  0.00     0.171 C 
HETATM   38  C   UNL     1       5.213  35.142  54.750  1.00  0.00     0.034 C 
ENDBRANCH  36  37
ENDBRANCH  31  36
ENDBRANCH   1  30
BRANCH   6  39
HETATM   39  O   UNL     1       8.732  32.876  60.527  1.00  0.00    -0.389 OA
HETATM   40  H   UNL     1       8.228  33.626  60.155  1.00  0.00     0.210 HD
ENDBRANCH   6  39
TORSDOF 9
ENDMDL
MODEL 6
REMARK VINA RESULT:      -8.9      1.829      4.362
REMARK  9 active torsions:
REMARK  status: ('A' for Active; 'I' for Inactive)
REMARK    1  A    between atoms: C_2  and  O_3 
REMARK    2  A    between atoms: O_3  and  C_4 
REMARK    3  A    between atoms: C_5  and  C_6 
REMARK    4  A    between atoms: N_7  and  C_9 
REMARK    5  A    between atoms: C_9  and  C_10 
REMARK       I    between atoms: C_10  and  N_11 
REMARK    6  A    between atoms: N_11  and  C_12 
REMARK    7  A    between atoms: C_20  and  C_21 
REMARK    8  A    between atoms: C_21  and  O_22 
REMARK    9  A    between atoms: C_28  and  O_29 
ROOT
HETATM    1  C   UNL     1       5.401  32.112  60.007  1.00  0.00     0.231 C 
HETATM    2  N   UNL     1       5.380  31.039  58.916  1.00  0.00    -0.054 N 
HETATM    3  H   UNL     1       5.609  30.150  59.385  1.00  0.00     0.281 HD
HETATM    4  C   UNL     1       3.984  30.837  58.372  1.00  0.00     0.239 C 
HETATM    5  C   UNL     1       3.433  32.138  57.804  1.00  0.00     0.066 C 
HETATM    6  C   UNL     1       3.426  33.240  58.865  1.00  0.00     0.065 C 
HETATM    7  C   UNL     1       4.847  33.452  59.446  1.00  0.00     0.055 C 
HETATM    8  C   UNL     1       2.873  34.555  58.292  1.00  0.00     0.038 C 
HETATM    9  C   UNL     1       2.859  35.669  59.340  1.00  0.00     0.003 C 
HETATM   10  C   UNL     1       4.234  35.865  59.968  1.00  0.00     0.001 C 
HETATM   11  C   UNL     1       4.810  34.562  60.521  1.00  0.00     0.010 C 
ENDROOT
BRANCH   2  12
HETATM   12  C   UNL     1       6.460  31.139  57.834  1.00  0.00     0.338 C 
BRANCH  12  13
HETATM   13  C   UNL     1       7.161  29.797  57.602  1.00  0.00     0.248 C 
HETATM   14  N   UNL     1       6.627  29.074  56.557  1.00  0.00    -0.319 N 
HETATM   15  H   UNL     1       5.944  29.514  55.937  1.00  0.00     0.169 HD
HETATM   16  O   UNL     1       8.062  29.475  58.373  1.00  0.00    -0.271 OA
BRANCH  14  17
HETATM   17  C   UNL     1       6.917  27.758  56.210  1.00  0.00     0.094 A 
HETATM   18  S   UNL     1       7.460  26.642  57.363  1.00  0.00    -0.075 SA
HETATM   19  C   UNL     1       7.527  25.391  56.223  1.00  0.00    -0.008 A 
HETATM   20  C   UNL     1       7.117  25.791  54.964  1.00  0.00    -0.026 A 
HETATM   21  C   UNL     1       7.954  24.006  56.605  1.00  0.00     0.047 C 
HETATM   22  C   UNL     1       7.088  24.818  53.813  1.00  0.00     0.041 C 
HETATM   23  C   UNL     1       6.777  27.200  54.940  1.00  0.00     0.080 A 
HETATM   24  C   UNL     1       7.193  23.357  54.279  1.00  0.00     0.005 C 
HETATM   25  C   UNL     1       8.271  23.177  55.354  1.00  0.00     0.005 C 
BRANCH  23  26
HETATM   26  C   UNL     1       6.332  28.010  53.799  1.00  0.00     0.296 C 
HETATM   27  O   UNL     1       7.085  28.284  52.866  1.00  0.00    -0.259 OA
BRANCH  26  28
HETATM   28  O   UNL     1       5.033  28.403  53.880  1.00  0.00    -0.322 OA
HETATM   29  C   UNL     1       4.100  27.528  53.245  1.00  0.00     0.213 C 
ENDBRANCH  26  28
ENDBRANCH  23  26
ENDBRANCH  14  17
ENDBRANCH  12  13
ENDBRANCH   2  12
BRANCH   1  30
HETATM   30  C   UNL     1       6.699  32.157  60.805  1.00  0.00     0.006 A 
HETATM   31  C   UNL     1       6.780  32.014  62.206  1.00  0.00     0.077 A 
HETATM   32  C   UNL     1       8.035  31.979  62.830  1.00  0.00     0.037 A 
HETATM   33  C   UNL     1       9.206  32.119  62.087  1.00  0.00     0.003 A 
HETATM   34  C   UNL     1       9.140  32.297  60.713  1.00  0.00     0.001 A 
HETATM   35  C   UNL     1       7.900  32.316  60.078  1.00  0.00     0.012 A 
BRANCH  31  36
HETATM   36  O   UNL     1       5.593  31.916  62.886  1.00  0.00    -0.351 OA
BRANCH  36  37
HETATM   37  C   UNL     1       5.414  32.777  64.018  1.00  0.00     0.171 C 
HETATM   38  C   UNL     1       4.175  33.618  63.773  1.00  0.00     0.034 C 
ENDBRANCH  36  37
ENDBRANCH  31  36
ENDBRANCH   1  30
BRANCH   6  39
HETATM   39  O   UNL     1       2.567  32.789  59.921  1.00  0.00    -0.389 OA
HETATM   40  H   UNL     1       2.451  33.508  60.572  1.00  0.00     0.210 HD
ENDBRANCH   6  39
TORSDOF 9
ENDMDL
MODEL 7
REMARK VINA RESULT:      -8.8      3.769      7.005
REMARK  9 active torsions:
REMARK  status: ('A' for Active; 'I' for Inactive)
REMARK    1  A    between atoms: C_2  and  O_3 
REMARK    2  A    between atoms: O_3  and  C_4 
REMARK    3  A    between atoms: C_5  and  C_6 
REMARK    4  A    between atoms: N_7  and  C_9 
REMARK    5  A    between atoms: C_9  and  C_10 
REMARK       I    between atoms: C_10  and  N_11 
REMARK    6  A    between atoms: N_11  and  C_12 
REMARK    7  A    between atoms: C_20  and  C_21 
REMARK    8  A    between atoms: C_21  and  O_22 
REMARK    9  A    between atoms: C_28  and  O_29 
ROOT
HETATM    1  C   UNL     1       6.996  27.813  56.078  1.00  0.00     0.231 C 
HETATM    2  N   UNL     1       5.618  28.459  55.914  1.00  0.00    -0.054 N 
HETATM    3  H   UNL     1       4.944  27.681  55.850  1.00  0.00     0.281 HD
HETATM    4  C   UNL     1       5.215  29.216  57.158  1.00  0.00     0.239 C 
HETATM    5  C   UNL     1       6.237  30.296  57.488  1.00  0.00     0.066 C 
HETATM    6  C   UNL     1       7.631  29.694  57.671  1.00  0.00     0.065 C 
HETATM    7  C   UNL     1       8.057  28.900  56.409  1.00  0.00     0.055 C 
HETATM    8  C   UNL     1       8.664  30.783  58.000  1.00  0.00     0.038 C 
HETATM    9  C   UNL     1      10.065  30.199  58.187  1.00  0.00     0.003 C 
HETATM   10  C   UNL     1      10.491  29.368  56.982  1.00  0.00     0.001 C 
HETATM   11  C   UNL     1       9.463  28.295  56.625  1.00  0.00     0.010 C 
ENDROOT
BRANCH   2  12
HETATM   12  C   UNL     1       5.372  29.227  54.612  1.00  0.00     0.338 C 
BRANCH  12  13
HETATM   13  C   UNL     1       4.675  28.359  53.559  1.00  0.00     0.248 C 
HETATM   14  N   UNL     1       5.070  28.640  52.269  1.00  0.00    -0.319 N 
HETATM   15  H   UNL     1       5.868  29.258  52.110  1.00  0.00     0.169 HD
HETATM   16  O   UNL     1       3.819  27.564  53.942  1.00  0.00    -0.271 OA
BRANCH  14  17
HETATM   17  C   UNL     1       4.502  28.160  51.092  1.00  0.00     0.094 A 
HETATM   18  S   UNL     1       4.785  26.577  50.559  1.00  0.00    -0.075 SA
HETATM   19  C   UNL     1       3.785  26.779  49.208  1.00  0.00    -0.008 A 
HETATM   20  C   UNL     1       3.204  28.033  49.154  1.00  0.00    -0.026 A 
HETATM   21  C   UNL     1       3.557  25.667  48.229  1.00  0.00     0.047 C 
HETATM   22  C   UNL     1       2.266  28.405  48.034  1.00  0.00     0.041 C 
HETATM   23  C   UNL     1       3.644  28.869  50.254  1.00  0.00     0.080 A 
HETATM   24  C   UNL     1       1.779  27.178  47.247  1.00  0.00     0.005 C 
HETATM   25  C   UNL     1       2.924  26.205  46.940  1.00  0.00     0.005 C 
BRANCH  23  26
HETATM   26  C   UNL     1       3.287  30.265  50.536  1.00  0.00     0.296 C 
HETATM   27  O   UNL     1       3.534  31.170  49.741  1.00  0.00    -0.259 OA
BRANCH  26  28
HETATM   28  O   UNL     1       2.663  30.440  51.731  1.00  0.00    -0.322 OA
HETATM   29  C   UNL     1       3.040  31.622  52.439  1.00  0.00     0.213 C 
ENDBRANCH  26  28
ENDBRANCH  23  26
ENDBRANCH  14  17
ENDBRANCH  12  13
ENDBRANCH   2  12
BRANCH   1  30
HETATM   30  C   UNL     1       7.335  26.794  54.996  1.00  0.00     0.006 A 
HETATM   31  C   UNL     1       7.226  25.397  55.153  1.00  0.00     0.077 A 
HETATM   32  C   UNL     1       7.476  24.553  54.062  1.00  0.00     0.037 A 
HETATM   33  C   UNL     1       7.865  25.076  52.829  1.00  0.00     0.003 A 
HETATM   34  C   UNL     1       8.012  26.446  52.670  1.00  0.00     0.001 A 
HETATM   35  C   UNL     1       7.750  27.297  53.742  1.00  0.00     0.012 A 
BRANCH  31  36
HETATM   36  O   UNL     1       6.874  24.941  56.398  1.00  0.00    -0.351 OA
BRANCH  36  37
HETATM   37  C   UNL     1       7.703  23.930  56.984  1.00  0.00     0.171 C 
HETATM   38  C   UNL     1       9.006  24.583  57.408  1.00  0.00     0.034 C 
ENDBRANCH  36  37
ENDBRANCH  31  36
ENDBRANCH   1  30
BRANCH   6  39
HETATM   39  O   UNL     1       7.543  28.780  58.773  1.00  0.00    -0.389 OA
HETATM   40  H   UNL     1       6.966  28.031  58.525  1.00  0.00     0.210 HD
ENDBRANCH   6  39
TORSDOF 9
ENDMDL
MODEL 8
REMARK VINA RESULT:      -8.7      1.504      2.141
REMARK  9 active torsions:
REMARK  status: ('A' for Active; 'I' for Inactive)
REMARK    1  A    between atoms: C_2  and  O_3 
REMARK    2  A    between atoms: O_3  and  C_4 
REMARK    3  A    between atoms: C_5  and  C_6 
REMARK    4  A    between atoms: N_7  and  C_9 
REMARK    5  A    between atoms: C_9  and  C_10 
REMARK       I    between atoms: C_10  and  N_11 
REMARK    6  A    between atoms: N_11  and  C_12 
REMARK    7  A    between atoms: C_20  and  C_21 
REMARK    8  A    between atoms: C_21  and  O_22 
REMARK    9  A    between atoms: C_28  and  O_29 
ROOT
HETATM    1  C   UNL     1       6.866  31.752  58.678  1.00  0.00     0.231 C 
HETATM    2  N   UNL     1       7.945  30.754  58.252  1.00  0.00    -0.054 N 
HETATM    3  H   UNL     1       8.042  30.856  57.231  1.00  0.00     0.281 HD
HETATM    4  C   UNL     1       9.297  31.138  58.807  1.00  0.00     0.239 C 
HETATM    5  C   UNL     1       9.256  31.212  60.328  1.00  0.00     0.066 C 
HETATM    6  C   UNL     1       8.196  32.208  60.799  1.00  0.00     0.065 C 
HETATM    7  C   UNL     1       6.802  31.839  60.228  1.00  0.00     0.055 C 
HETATM    8  C   UNL     1       8.149  32.281  62.334  1.00  0.00     0.038 C 
HETATM    9  C   UNL     1       7.094  33.273  62.824  1.00  0.00     0.003 C 
HETATM   10  C   UNL     1       5.721  32.966  62.236  1.00  0.00     0.001 C 
HETATM   11  C   UNL     1       5.752  32.865  60.712  1.00  0.00     0.010 C 
ENDROOT
BRANCH   2  12
HETATM   12  C   UNL     1       7.606  29.268  58.414  1.00  0.00     0.338 C 
BRANCH  12  13
HETATM   13  C   UNL     1       8.089  28.440  57.219  1.00  0.00     0.248 C 
HETATM   14  N   UNL     1       7.067  27.811  56.540  1.00  0.00    -0.319 N 
HETATM   15  H   UNL     1       6.097  28.045  56.760  1.00  0.00     0.169 HD
HETATM   16  O   UNL     1       9.299  28.369  57.017  1.00  0.00    -0.271 OA
BRANCH  14  17
HETATM   17  C   UNL     1       7.189  26.856  55.535  1.00  0.00     0.094 A 
HETATM   18  S   UNL     1       7.581  27.293  53.946  1.00  0.00    -0.075 SA
HETATM   19  C   UNL     1       7.570  25.682  53.426  1.00  0.00    -0.008 A 
HETATM   20  C   UNL     1       7.296  24.791  54.447  1.00  0.00    -0.026 A 
HETATM   21  C   UNL     1       7.875  25.316  52.004  1.00  0.00     0.047 C 
HETATM   22  C   UNL     1       7.256  23.306  54.189  1.00  0.00     0.041 C 
HETATM   23  C   UNL     1       7.042  25.479  55.697  1.00  0.00     0.080 A 
HETATM   24  C   UNL     1       7.894  22.928  52.843  1.00  0.00     0.005 C 
HETATM   25  C   UNL     1       7.451  23.871  51.717  1.00  0.00     0.005 C 
BRANCH  23  26
HETATM   26  C   UNL     1       6.686  24.901  56.999  1.00  0.00     0.296 C 
HETATM   27  O   UNL     1       5.613  25.149  57.547  1.00  0.00    -0.259 OA
BRANCH  26  28
HETATM   28  O   UNL     1       7.639  24.078  57.512  1.00  0.00    -0.322 OA
HETATM   29  C   UNL     1       8.974  24.582  57.435  1.00  0.00     0.213 C 
ENDBRANCH  26  28
ENDBRANCH  23  26
ENDBRANCH  14  17
ENDBRANCH  12  13
ENDBRANCH   2  12
BRANCH   1  30
HETATM   30  C   UNL     1       5.552  31.604  57.919  1.00  0.00     0.006 A 
HETATM   31  C   UNL     1       4.930  32.639  57.189  1.00  0.00     0.077 A 
HETATM   32  C   UNL     1       3.769  32.369  56.451  1.00  0.00     0.037 A 
HETATM   33  C   UNL     1       3.200  31.096  56.456  1.00  0.00     0.003 A 
HETATM   34  C   UNL     1       3.780  30.078  57.198  1.00  0.00     0.001 A 
HETATM   35  C   UNL     1       4.943  30.328  57.922  1.00  0.00     0.012 A 
BRANCH  31  36
HETATM   36  O   UNL     1       5.517  33.877  57.251  1.00  0.00    -0.351 OA
BRANCH  36  37
HETATM   37  C   UNL     1       4.660  35.016  57.105  1.00  0.00     0.171 C 
HETATM   38  C   UNL     1       4.096  35.355  58.472  1.00  0.00     0.034 C 
ENDBRANCH  36  37
ENDBRANCH  31  36
ENDBRANCH   1  30
BRANCH   6  39
HETATM   39  O   UNL     1       8.574  33.489  60.278  1.00  0.00    -0.389 OA
HETATM   40  H   UNL     1       7.781  34.058  60.215  1.00  0.00     0.210 HD
ENDBRANCH   6  39
TORSDOF 9
ENDMDL
MODEL 9
REMARK VINA RESULT:      -8.6      4.141      7.383
REMARK  9 active torsions:
REMARK  status: ('A' for Active; 'I' for Inactive)
REMARK    1  A    between atoms: C_2  and  O_3 
REMARK    2  A    between atoms: O_3  and  C_4 
REMARK    3  A    between atoms: C_5  and  C_6 
REMARK    4  A    between atoms: N_7  and  C_9 
REMARK    5  A    between atoms: C_9  and  C_10 
REMARK       I    between atoms: C_10  and  N_11 
REMARK    6  A    between atoms: N_11  and  C_12 
REMARK    7  A    between atoms: C_20  and  C_21 
REMARK    8  A    between atoms: C_21  and  O_22 
REMARK    9  A    between atoms: C_28  and  O_29 
ROOT
HETATM    1  C   UNL     1       5.424  35.968  63.045  1.00  0.00     0.231 C 
HETATM    2  N   UNL     1       5.766  34.848  62.060  1.00  0.00    -0.054 N 
HETATM    3  H   UNL     1       6.399  35.264  61.360  1.00  0.00     0.281 HD
HETATM    4  C   UNL     1       6.587  33.766  62.723  1.00  0.00     0.239 C 
HETATM    5  C   UNL     1       5.841  33.176  63.913  1.00  0.00     0.066 C 
HETATM    6  C   UNL     1       5.487  34.260  64.931  1.00  0.00     0.065 C 
HETATM    7  C   UNL     1       4.656  35.388  64.265  1.00  0.00     0.055 C 
HETATM    8  C   UNL     1       4.731  33.667  66.131  1.00  0.00     0.038 C 
HETATM    9  C   UNL     1       4.368  34.739  67.159  1.00  0.00     0.003 C 
HETATM   10  C   UNL     1       3.595  35.888  66.522  1.00  0.00     0.001 C 
HETATM   11  C   UNL     1       4.320  36.474  65.312  1.00  0.00     0.010 C 
ENDROOT
BRANCH   2  12
HETATM   12  C   UNL     1       4.615  34.315  61.200  1.00  0.00     0.338 C 
BRANCH  12  13
HETATM   13  C   UNL     1       4.914  32.918  60.648  1.00  0.00     0.248 C 
HETATM   14  N   UNL     1       5.906  32.909  59.690  1.00  0.00    -0.319 N 
HETATM   15  H   UNL     1       6.458  33.753  59.529  1.00  0.00     0.169 HD
HETATM   16  O   UNL     1       4.232  31.978  61.051  1.00  0.00    -0.271 OA
BRANCH  14  17
HETATM   17  C   UNL     1       6.281  31.843  58.877  1.00  0.00     0.094 A 
HETATM   18  S   UNL     1       5.217  31.191  57.732  1.00  0.00    -0.075 SA
HETATM   19  C   UNL     1       6.368  30.069  57.198  1.00  0.00    -0.008 A 
HETATM   20  C   UNL     1       7.577  30.188  57.857  1.00  0.00    -0.026 A 
HETATM   21  C   UNL     1       6.064  29.102  56.093  1.00  0.00     0.047 C 
HETATM   22  C   UNL     1       8.737  29.289  57.515  1.00  0.00     0.041 C 
HETATM   23  C   UNL     1       7.528  31.220  58.874  1.00  0.00     0.080 A 
HETATM   24  C   UNL     1       8.534  28.553  56.180  1.00  0.00     0.005 C 
HETATM   25  C   UNL     1       7.115  27.986  56.052  1.00  0.00     0.005 C 
BRANCH  23  26
HETATM   26  C   UNL     1       8.584  31.631  59.806  1.00  0.00     0.296 C 
HETATM   27  O   UNL     1       9.037  32.775  59.810  1.00  0.00    -0.259 OA
BRANCH  26  28
HETATM   28  O   UNL     1       8.989  30.642  60.647  1.00  0.00    -0.322 OA
HETATM   29  C   UNL     1       8.664  30.852  62.023  1.00  0.00     0.213 C 
ENDBRANCH  26  28
ENDBRANCH  23  26
ENDBRANCH  14  17
ENDBRANCH  12  13
ENDBRANCH   2  12
BRANCH   1  30
HETATM   30  C   UNL     1       4.865  37.223  62.383  1.00  0.00     0.006 A 
HETATM   31  C   UNL     1       5.526  38.469  62.349  1.00  0.00     0.077 A 
HETATM   32  C   UNL     1       4.963  39.535  61.634  1.00  0.00     0.037 A 
HETATM   33  C   UNL     1       3.739  39.391  60.983  1.00  0.00     0.003 A 
HETATM   34  C   UNL     1       3.060  38.182  61.038  1.00  0.00     0.001 A 
HETATM   35  C   UNL     1       3.617  37.110  61.731  1.00  0.00     0.012 A 
BRANCH  31  36
HETATM   36  O   UNL     1       6.709  38.559  63.037  1.00  0.00    -0.351 OA
BRANCH  36  37
HETATM   37  C   UNL     1       6.950  39.768  63.769  1.00  0.00     0.171 C 
HETATM   38  C   UNL     1       6.115  39.723  65.035  1.00  0.00     0.034 C 
ENDBRANCH  36  37
ENDBRANCH  31  36
ENDBRANCH   1  30
BRANCH   6  39
HETATM   39  O   UNL     1       6.727  34.819  65.385  1.00  0.00    -0.389 OA
HETATM   40  H   UNL     1       7.463  34.426  64.877  1.00  0.00     0.210 HD
ENDBRANCH   6  39
TORSDOF 9
ENDMDL
MODEL 10
REMARK VINA RESULT:      -8.5      2.010      8.188
REMARK  9 active torsions:
REMARK  status: ('A' for Active; 'I' for Inactive)
REMARK    1  A    between atoms: C_2  and  O_3 
REMARK    2  A    between atoms: O_3  and  C_4 
REMARK    3  A    between atoms: C_5  and  C_6 
REMARK    4  A    between atoms: N_7  and  C_9 
REMARK    5  A    between atoms: C_9  and  C_10 
REMARK       I    between atoms: C_10  and  N_11 
REMARK    6  A    between atoms: N_11  and  C_12 
REMARK    7  A    between atoms: C_20  and  C_21 
REMARK    8  A    between atoms: C_21  and  O_22 
REMARK    9  A    between atoms: C_28  and  O_29 
ROOT
HETATM    1  C   UNL     1       6.167  26.341  54.244  1.00  0.00     0.231 C 
HETATM    2  N   UNL     1       6.628  27.353  55.296  1.00  0.00    -0.054 N 
HETATM    3  H   UNL     1       5.814  27.956  55.490  1.00  0.00     0.281 HD
HETATM    4  C   UNL     1       6.928  26.677  56.614  1.00  0.00     0.239 C 
HETATM    5  C   UNL     1       8.001  25.611  56.441  1.00  0.00     0.066 C 
HETATM    6  C   UNL     1       7.578  24.569  55.405  1.00  0.00     0.065 C 
HETATM    7  C   UNL     1       7.252  25.246  54.048  1.00  0.00     0.055 C 
HETATM    8  C   UNL     1       8.662  23.494  55.226  1.00  0.00     0.038 C 
HETATM    9  C   UNL     1       8.256  22.444  54.192  1.00  0.00     0.003 C 
HETATM   10  C   UNL     1       7.878  23.085  52.861  1.00  0.00     0.001 C 
HETATM   11  C   UNL     1       6.819  24.174  53.022  1.00  0.00     0.010 C 
ENDROOT
BRANCH   2  12
HETATM   12  C   UNL     1       7.697  28.359  54.856  1.00  0.00     0.338 C 
BRANCH  12  13
HETATM   13  C   UNL     1       8.203  29.203  56.031  1.00  0.00     0.248 C 
HETATM   14  N   UNL     1       7.305  29.285  57.074  1.00  0.00    -0.319 N 
HETATM   15  H   UNL     1       6.475  28.687  57.072  1.00  0.00     0.169 HD
HETATM   16  O   UNL     1       9.295  29.755  55.917  1.00  0.00    -0.271 OA
BRANCH  14  17
HETATM   17  C   UNL     1       7.387  30.109  58.192  1.00  0.00     0.094 A 
HETATM   18  S   UNL     1       8.774  30.137  59.166  1.00  0.00    -0.075 SA
HETATM   19  C   UNL     1       8.120  31.323  60.182  1.00  0.00    -0.008 A 
HETATM   20  C   UNL     1       6.860  31.732  59.788  1.00  0.00    -0.026 A 
HETATM   21  C   UNL     1       8.891  31.865  61.349  1.00  0.00     0.047 C 
HETATM   22  C   UNL     1       6.114  32.794  60.555  1.00  0.00     0.041 C 
HETATM   23  C   UNL     1       6.405  30.998  58.623  1.00  0.00     0.080 A 
HETATM   24  C   UNL     1       7.027  33.570  61.518  1.00  0.00     0.005 C 
HETATM   25  C   UNL     1       7.963  32.637  62.295  1.00  0.00     0.005 C 
BRANCH  23  26
HETATM   26  C   UNL     1       5.121  31.111  57.920  1.00  0.00     0.296 C 
HETATM   27  O   UNL     1       4.268  30.227  57.983  1.00  0.00    -0.259 OA
BRANCH  26  28
HETATM   28  O   UNL     1       4.978  32.269  57.222  1.00  0.00    -0.322 OA
HETATM   29  C   UNL     1       3.815  33.031  57.552  1.00  0.00     0.213 C 
ENDBRANCH  26  28
ENDBRANCH  23  26
ENDBRANCH  14  17
ENDBRANCH  12  13
ENDBRANCH   2  12
BRANCH   1  30
HETATM   30  C   UNL     1       5.564  26.977  52.997  1.00  0.00     0.006 A 
HETATM   31  C   UNL     1       4.691  28.086  53.008  1.00  0.00     0.077 A 
HETATM   32  C   UNL     1       4.267  28.649  51.796  1.00  0.00     0.037 A 
HETATM   33  C   UNL     1       4.670  28.106  50.576  1.00  0.00     0.003 A 
HETATM   34  C   UNL     1       5.498  26.993  50.551  1.00  0.00     0.001 A 
HETATM   35  C   UNL     1       5.940  26.435  51.747  1.00  0.00     0.012 A 
BRANCH  31  36
HETATM   36  O   UNL     1       4.303  28.553  54.237  1.00  0.00    -0.351 OA
BRANCH  36  37
HETATM   37  C   UNL     1       4.531  29.941  54.512  1.00  0.00     0.171 C 
HETATM   38  C   UNL     1       3.181  30.624  54.624  1.00  0.00     0.034 C 
ENDBRANCH  36  37
ENDBRANCH  31  36
ENDBRANCH   1  30
BRANCH   6  39
HETATM   39  O   UNL     1       6.382  23.955  55.903  1.00  0.00    -0.389 OA
HETATM   40  H   UNL     1       5.892  24.599  56.450  1.00  0.00     0.210 HD
ENDBRANCH   6  39
TORSDOF 9
ENDMDL
