MODEL 1
REMARK VINA RESULT:      -8.8      0.000      0.000
REMARK  8 active torsions:
REMARK  status: ('A' for Active; 'I' for Inactive)
REMARK    1  A    between atoms: C_2  and  C_3 
REMARK    2  A    between atoms: C_6  and  C_7 
REMARK    3  A    between atoms: C_11  and  C_12 
REMARK    4  A    between atoms: C_12  and  C_13 
REMARK    5  A    between atoms: C_13  and  C_14 
REMARK    6  A    between atoms: C_14  and  O_15 
REMARK    7  A    between atoms: C_20  and  C_21 
REMARK       I    between atoms: C_21  and  N_22 
REMARK    8  A    between atoms: N_22  and  C_23 
ROOT
HETATM    1  C   UNL     1       6.847  27.789  53.888  1.00  0.00     0.202 C 
HETATM    2  N   UNL     1       7.658  28.447  54.919  1.00  0.00    -0.083 N 
HETATM    3  C   UNL     1       7.138  29.008  56.053  1.00  0.00     0.726 A 
HETATM    4  N   UNL     1       8.096  29.585  56.733  1.00  0.00    -0.046 NA
HETATM    5  C   UNL     1       9.202  29.383  55.941  1.00  0.00     0.166 A 
HETATM    6  N   UNL     1       8.979  28.700  54.807  1.00  0.00    -0.140 NA
HETATM    7  N   UNL     1       5.809  28.961  56.270  1.00  0.00    -0.192 N 
HETATM    8  C   UNL     1       4.902  28.563  55.292  1.00  0.00     0.037 C 
HETATM    9  C   UNL     1       3.461  28.918  55.569  1.00  0.00     0.070 C 
HETATM   10  C   UNL     1       5.355  27.982  54.152  1.00  0.00     0.062 C 
HETATM   11  H   UNL     1       5.447  29.496  57.055  1.00  0.00     0.184 HD
ENDROOT
BRANCH  10  12
HETATM   12  C   UNL     1       4.495  27.610  52.994  1.00  0.00     0.256 C 
HETATM   13  N   UNL     1       4.273  28.640  52.106  1.00  0.00    -0.323 N 
HETATM   14  H   UNL     1       4.688  29.535  52.326  1.00  0.00     0.169 HD
HETATM   15  O   UNL     1       4.052  26.470  52.936  1.00  0.00    -0.267 OA
BRANCH  13  16
HETATM   16  C   UNL     1       3.577  28.567  50.881  1.00  0.00     0.035 A 
HETATM   17  C   UNL     1       2.294  29.084  50.681  1.00  0.00     0.031 A 
HETATM   18  C   UNL     1       1.658  28.950  49.441  1.00  0.00     0.026 A 
HETATM   19  C   UNL     1       2.301  28.289  48.398  1.00  0.00     0.034 A 
HETATM   20 CL   UNL     1       1.511  28.108  46.881  1.00  0.00    -0.084 Cl
HETATM   21  C   UNL     1       3.580  27.772  48.581  1.00  0.00     0.026 A 
HETATM   22  C   UNL     1       4.219  27.920  49.816  1.00  0.00     0.031 A 
ENDBRANCH  13  16
ENDBRANCH  10  12
BRANCH   1  23
HETATM   23  C   UNL     1       7.230  26.316  53.767  1.00  0.00    -0.028 A 
HETATM   24  C   UNL     1       7.223  25.451  54.873  1.00  0.00     0.010 A 
HETATM   25  C   UNL     1       7.585  24.108  54.730  1.00  0.00     0.007 A 
HETATM   26  C   UNL     1       7.961  23.601  53.480  1.00  0.00    -0.059 A 
HETATM   27  C   UNL     1       7.949  24.455  52.372  1.00  0.00     0.007 A 
HETATM   28  C   UNL     1       7.585  25.796  52.513  1.00  0.00     0.010 A 
BRANCH  26  29
HETATM   29  C   UNL     1       8.366  22.156  53.324  1.00  0.00     0.034 C 
HETATM   30  C   UNL     1       7.895  21.301  54.489  1.00  0.00     0.010 C 
ENDBRANCH  26  29
ENDBRANCH   1  23
BRANCH   5  31
HETATM   31  C   UNL     1      10.538  29.933  56.287  1.00  0.00     0.085 C 
BRANCH  31  32
HETATM   32  C   UNL     1      10.742  30.163  57.782  1.00  0.00     0.034 C 
BRANCH  32  33
HETATM   33  C   UNL     1      10.452  31.598  58.203  1.00  0.00     0.164 C 
BRANCH  33  34
HETATM   34  O   UNL     1       9.099  31.707  58.632  1.00  0.00    -0.401 OA
HETATM   35  H   UNL     1       8.658  32.352  58.055  1.00  0.00     0.209 HD
ENDBRANCH  33  34
ENDBRANCH  32  33
ENDBRANCH  31  32
ENDBRANCH   5  31
TORSDOF 8
ENDMDL
MODEL 2
REMARK VINA RESULT:      -8.7      4.335      7.725
REMARK  8 active torsions:
REMARK  status: ('A' for Active; 'I' for Inactive)
REMARK    1  A    between atoms: C_2  and  C_3 
REMARK    2  A    between atoms: C_6  and  C_7 
REMARK    3  A    between atoms: C_11  and  C_12 
REMARK    4  A    between atoms: C_12  and  C_13 
REMARK    5  A    between atoms: C_13  and  C_14 
REMARK    6  A    between atoms: C_14  and  O_15 
REMARK    7  A    between atoms: C_20  and  C_21 
REMARK       I    between atoms: C_21  and  N_22 
REMARK    8  A    between atoms: N_22  and  C_23 
ROOT
HETATM    1  C   UNL     1       7.506  29.919  58.479  1.00  0.00     0.202 C 
HETATM    2  N   UNL     1       7.903  30.927  59.470  1.00  0.00    -0.083 N 
HETATM    3  C   UNL     1       9.093  31.601  59.435  1.00  0.00     0.726 A 
HETATM    4  N   UNL     1       9.191  32.368  60.491  1.00  0.00    -0.046 NA
HETATM    5  C   UNL     1       8.031  32.096  61.179  1.00  0.00     0.166 A 
HETATM    6  N   UNL     1       7.215  31.204  60.598  1.00  0.00    -0.140 NA
HETATM    7  N   UNL     1       9.968  31.355  58.440  1.00  0.00    -0.192 N 
HETATM    8  C   UNL     1       9.824  30.286  57.560  1.00  0.00     0.037 C 
HETATM    9  C   UNL     1      11.058  29.939  56.763  1.00  0.00     0.070 C 
HETATM   10  C   UNL     1       8.659  29.590  57.534  1.00  0.00     0.062 C 
HETATM   11  H   UNL     1      10.890  31.778  58.516  1.00  0.00     0.184 HD
ENDROOT
BRANCH  10  12
HETATM   12  C   UNL     1       8.422  28.369  56.714  1.00  0.00     0.256 C 
HETATM   13  N   UNL     1       8.389  27.201  57.443  1.00  0.00    -0.323 N 
HETATM   14  H   UNL     1       8.542  27.276  58.440  1.00  0.00     0.169 HD
HETATM   15  O   UNL     1       8.304  28.492  55.501  1.00  0.00    -0.267 OA
BRANCH  13  16
HETATM   16  C   UNL     1       8.099  25.908  56.959  1.00  0.00     0.035 A 
HETATM   17  C   UNL     1       6.975  25.596  56.191  1.00  0.00     0.031 A 
HETATM   18  C   UNL     1       6.743  24.282  55.769  1.00  0.00     0.026 A 
HETATM   19  C   UNL     1       7.633  23.271  56.121  1.00  0.00     0.034 A 
HETATM   20 CL   UNL     1       7.338  21.654  55.619  1.00  0.00    -0.084 Cl
HETATM   21  C   UNL     1       8.760  23.567  56.882  1.00  0.00     0.026 A 
HETATM   22  C   UNL     1       8.997  24.883  57.291  1.00  0.00     0.031 A 
ENDBRANCH  13  16
ENDBRANCH  10  12
BRANCH   1  23
HETATM   23  C   UNL     1       6.252  30.369  57.734  1.00  0.00    -0.028 A 
HETATM   24  C   UNL     1       6.009  31.718  57.430  1.00  0.00     0.010 A 
HETATM   25  C   UNL     1       4.847  32.099  56.751  1.00  0.00     0.007 A 
HETATM   26  C   UNL     1       3.905  31.139  56.360  1.00  0.00    -0.059 A 
HETATM   27  C   UNL     1       4.154  29.792  56.642  1.00  0.00     0.007 A 
HETATM   28  C   UNL     1       5.315  29.411  57.318  1.00  0.00     0.010 A 
BRANCH  26  29
HETATM   29  C   UNL     1       2.644  31.547  55.639  1.00  0.00     0.034 C 
HETATM   30  C   UNL     1       2.886  31.795  54.158  1.00  0.00     0.010 C 
ENDBRANCH  26  29
ENDBRANCH   1  23
BRANCH   5  31
HETATM   31  C   UNL     1       7.733  32.702  62.502  1.00  0.00     0.085 C 
BRANCH  31  32
HETATM   32  C   UNL     1       6.314  33.250  62.624  1.00  0.00     0.034 C 
BRANCH  32  33
HETATM   33  C   UNL     1       5.449  32.443  63.584  1.00  0.00     0.164 C 
BRANCH  33  34
HETATM   34  O   UNL     1       5.039  31.233  62.956  1.00  0.00    -0.401 OA
HETATM   35  H   UNL     1       5.686  31.030  62.259  1.00  0.00     0.209 HD
ENDBRANCH  33  34
ENDBRANCH  32  33
ENDBRANCH  31  32
ENDBRANCH   5  31
TORSDOF 8
ENDMDL
MODEL 3
REMARK VINA RESULT:      -8.6      3.452      6.945
REMARK  8 active torsions:
REMARK  status: ('A' for Active; 'I' for Inactive)
REMARK    1  A    between atoms: C_2  and  C_3 
REMARK    2  A    between atoms: C_6  and  C_7 
REMARK    3  A    between atoms: C_11  and  C_12 
REMARK    4  A    between atoms: C_12  and  C_13 
REMARK    5  A    between atoms: C_13  and  C_14 
REMARK    6  A    between atoms: C_14  and  O_15 
REMARK    7  A    between atoms: C_20  and  C_21 
REMARK       I    between atoms: C_21  and  N_22 
REMARK    8  A    between atoms: N_22  and  C_23 
ROOT
HETATM    1  C   UNL     1       6.480  26.984  54.762  1.00  0.00     0.202 C 
HETATM    2  N   UNL     1       7.003  25.895  53.928  1.00  0.00    -0.083 N 
HETATM    3  C   UNL     1       6.777  25.791  52.583  1.00  0.00     0.726 A 
HETATM    4  N   UNL     1       7.300  24.678  52.137  1.00  0.00    -0.046 NA
HETATM    5  C   UNL     1       7.814  24.101  53.276  1.00  0.00     0.166 A 
HETATM    6  N   UNL     1       7.641  24.806  54.404  1.00  0.00    -0.140 NA
HETATM    7  N   UNL     1       6.043  26.732  51.957  1.00  0.00    -0.192 N 
HETATM    8  C   UNL     1       5.313  27.697  52.645  1.00  0.00     0.037 C 
HETATM    9  C   UNL     1       4.273  28.422  51.825  1.00  0.00     0.070 C 
HETATM   10  C   UNL     1       5.507  27.862  53.978  1.00  0.00     0.062 C 
HETATM   11  H   UNL     1       5.791  26.556  50.988  1.00  0.00     0.184 HD
ENDROOT
BRANCH  10  12
HETATM   12  C   UNL     1       4.716  28.785  54.839  1.00  0.00     0.256 C 
HETATM   13  N   UNL     1       5.009  30.118  54.651  1.00  0.00    -0.323 N 
HETATM   14  H   UNL     1       5.728  30.340  53.975  1.00  0.00     0.169 HD
HETATM   15  O   UNL     1       3.917  28.305  55.633  1.00  0.00    -0.267 OA
BRANCH  13  16
HETATM   16  C   UNL     1       4.368  31.220  55.255  1.00  0.00     0.035 A 
HETATM   17  C   UNL     1       3.097  31.677  54.895  1.00  0.00     0.031 A 
HETATM   18  C   UNL     1       2.539  32.795  55.525  1.00  0.00     0.026 A 
HETATM   19  C   UNL     1       3.253  33.467  56.512  1.00  0.00     0.034 A 
HETATM   20 CL   UNL     1       2.573  34.851  57.271  1.00  0.00    -0.084 Cl
HETATM   21  C   UNL     1       4.518  33.022  56.884  1.00  0.00     0.026 A 
HETATM   22  C   UNL     1       5.069  31.896  56.264  1.00  0.00     0.031 A 
ENDBRANCH  13  16
ENDBRANCH  10  12
BRANCH   1  23
HETATM   23  C   UNL     1       7.626  27.788  55.371  1.00  0.00    -0.028 A 
HETATM   24  C   UNL     1       8.511  28.541  54.582  1.00  0.00     0.010 A 
HETATM   25  C   UNL     1       9.555  29.261  55.170  1.00  0.00     0.007 A 
HETATM   26  C   UNL     1       9.738  29.245  56.559  1.00  0.00    -0.059 A 
HETATM   27  C   UNL     1       8.846  28.513  57.350  1.00  0.00     0.007 A 
HETATM   28  C   UNL     1       7.801  27.795  56.764  1.00  0.00     0.010 A 
BRANCH  26  29
HETATM   29  C   UNL     1      10.871  30.009  57.196  1.00  0.00     0.034 C 
HETATM   30  C   UNL     1      10.375  31.179  58.031  1.00  0.00     0.010 C 
ENDBRANCH  26  29
ENDBRANCH   1  23
BRANCH   5  31
HETATM   31  C   UNL     1       8.460  22.763  53.266  1.00  0.00     0.085 C 
BRANCH  31  32
HETATM   32  C   UNL     1       7.861  21.781  54.268  1.00  0.00     0.034 C 
BRANCH  32  33
HETATM   33  C   UNL     1       8.271  20.338  54.000  1.00  0.00     0.164 C 
BRANCH  33  34
HETATM   34  O   UNL     1       8.179  20.067  52.606  1.00  0.00    -0.401 OA
HETATM   35  H   UNL     1       8.131  19.102  52.496  1.00  0.00     0.209 HD
ENDBRANCH  33  34
ENDBRANCH  32  33
ENDBRANCH  31  32
ENDBRANCH   5  31
TORSDOF 8
ENDMDL
MODEL 4
REMARK VINA RESULT:      -8.5      2.069      2.527
REMARK  8 active torsions:
REMARK  status: ('A' for Active; 'I' for Inactive)
REMARK    1  A    between atoms: C_2  and  C_3 
REMARK    2  A    between atoms: C_6  and  C_7 
REMARK    3  A    between atoms: C_11  and  C_12 
REMARK    4  A    between atoms: C_12  and  C_13 
REMARK    5  A    between atoms: C_13  and  C_14 
REMARK    6  A    between atoms: C_14  and  O_15 
REMARK    7  A    between atoms: C_20  and  C_21 
REMARK       I    between atoms: C_21  and  N_22 
REMARK    8  A    between atoms: N_22  and  C_23 
ROOT
HETATM    1  C   UNL     1       6.702  28.858  55.619  1.00  0.00     0.202 C 
HETATM    2  N   UNL     1       7.215  29.508  56.832  1.00  0.00    -0.083 N 
HETATM    3  C   UNL     1       6.439  30.238  57.690  1.00  0.00     0.726 A 
HETATM    4  N   UNL     1       7.192  30.756  58.626  1.00  0.00    -0.046 NA
HETATM    5  C   UNL     1       8.455  30.341  58.271  1.00  0.00     0.166 A 
HETATM    6  N   UNL     1       8.521  29.584  57.165  1.00  0.00    -0.140 NA
HETATM    7  N   UNL     1       5.122  30.376  57.442  1.00  0.00    -0.192 N 
HETATM    8  C   UNL     1       4.541  30.000  56.234  1.00  0.00     0.037 C 
HETATM    9  C   UNL     1       3.160  30.555  55.984  1.00  0.00     0.070 C 
HETATM   10  C   UNL     1       5.253  29.259  55.348  1.00  0.00     0.062 C 
HETATM   11  H   UNL     1       4.604  31.026  58.029  1.00  0.00     0.184 HD
ENDROOT
BRANCH  10  12
HETATM   12  C   UNL     1       4.780  28.884  53.987  1.00  0.00     0.256 C 
HETATM   13  N   UNL     1       5.638  29.252  52.973  1.00  0.00    -0.323 N 
HETATM   14  H   UNL     1       6.480  29.745  53.240  1.00  0.00     0.169 HD
HETATM   15  O   UNL     1       3.698  28.321  53.876  1.00  0.00    -0.267 OA
BRANCH  13  16
HETATM   16  C   UNL     1       5.503  28.958  51.600  1.00  0.00     0.035 A 
HETATM   17  C   UNL     1       5.496  29.926  50.592  1.00  0.00     0.031 A 
HETATM   18  C   UNL     1       5.332  29.557  49.252  1.00  0.00     0.026 A 
HETATM   19  C   UNL     1       5.166  28.217  48.915  1.00  0.00     0.034 A 
HETATM   20 CL   UNL     1       4.945  27.766  47.271  1.00  0.00    -0.084 Cl
HETATM   21  C   UNL     1       5.175  27.241  49.907  1.00  0.00     0.026 A 
HETATM   22  C   UNL     1       5.353  27.610  51.245  1.00  0.00     0.031 A 
ENDBRANCH  13  16
ENDBRANCH  10  12
BRANCH   1  23
HETATM   23  C   UNL     1       6.879  27.344  55.711  1.00  0.00    -0.028 A 
HETATM   24  C   UNL     1       6.494  26.616  56.848  1.00  0.00     0.010 A 
HETATM   25  C   UNL     1       6.676  25.230  56.903  1.00  0.00     0.007 A 
HETATM   26  C   UNL     1       7.245  24.543  55.823  1.00  0.00    -0.059 A 
HETATM   27  C   UNL     1       7.610  25.263  54.681  1.00  0.00     0.007 A 
HETATM   28  C   UNL     1       7.427  26.646  54.624  1.00  0.00     0.010 A 
BRANCH  26  29
HETATM   29  C   UNL     1       7.455  23.051  55.884  1.00  0.00     0.034 C 
HETATM   30  C   UNL     1       7.665  22.446  54.505  1.00  0.00     0.010 C 
ENDBRANCH  26  29
ENDBRANCH   1  23
BRANCH   5  31
HETATM   31  C   UNL     1       9.668  30.753  59.024  1.00  0.00     0.085 C 
BRANCH  31  32
HETATM   32  C   UNL     1       9.368  31.593  60.262  1.00  0.00     0.034 C 
BRANCH  32  33
HETATM   33  C   UNL     1       9.117  30.748  61.504  1.00  0.00     0.164 C 
BRANCH  33  34
HETATM   34  O   UNL     1       7.716  30.660  61.747  1.00  0.00    -0.401 OA
HETATM   35  H   UNL     1       7.551  30.998  62.643  1.00  0.00     0.209 HD
ENDBRANCH  33  34
ENDBRANCH  32  33
ENDBRANCH  31  32
ENDBRANCH   5  31
TORSDOF 8
ENDMDL
MODEL 5
REMARK VINA RESULT:      -8.5      3.345      6.512
REMARK  8 active torsions:
REMARK  status: ('A' for Active; 'I' for Inactive)
REMARK    1  A    between atoms: C_2  and  C_3 
REMARK    2  A    between atoms: C_6  and  C_7 
REMARK    3  A    between atoms: C_11  and  C_12 
REMARK    4  A    between atoms: C_12  and  C_13 
REMARK    5  A    between atoms: C_13  and  C_14 
REMARK    6  A    between atoms: C_14  and  O_15 
REMARK    7  A    between atoms: C_20  and  C_21 
REMARK       I    between atoms: C_21  and  N_22 
REMARK    8  A    between atoms: N_22  and  C_23 
ROOT
HETATM    1  C   UNL     1       6.217  26.422  54.219  1.00  0.00     0.202 C 
HETATM    2  N   UNL     1       7.004  25.277  53.742  1.00  0.00    -0.083 N 
HETATM    3  C   UNL     1       7.263  25.029  52.422  1.00  0.00     0.726 A 
HETATM    4  N   UNL     1       7.914  23.900  52.310  1.00  0.00    -0.046 NA
HETATM    5  C   UNL     1       7.998  23.461  53.611  1.00  0.00     0.166 A 
HETATM    6  N   UNL     1       7.439  24.269  54.526  1.00  0.00    -0.140 NA
HETATM    7  N   UNL     1       6.791  25.871  51.481  1.00  0.00    -0.192 N 
HETATM    8  C   UNL     1       5.862  26.869  51.764  1.00  0.00     0.037 C 
HETATM    9  C   UNL     1       5.172  27.464  50.560  1.00  0.00     0.070 C 
HETATM   10  C   UNL     1       5.576  27.175  53.055  1.00  0.00     0.062 C 
HETATM   11  H   UNL     1       6.894  25.588  50.510  1.00  0.00     0.184 HD
ENDROOT
BRANCH  10  12
HETATM   12  C   UNL     1       4.531  28.146  53.482  1.00  0.00     0.256 C 
HETATM   13  N   UNL     1       5.007  29.417  53.717  1.00  0.00    -0.323 N 
HETATM   14  H   UNL     1       6.000  29.565  53.597  1.00  0.00     0.169 HD
HETATM   15  O   UNL     1       3.379  27.749  53.609  1.00  0.00    -0.267 OA
BRANCH  13  16
HETATM   16  C   UNL     1       4.248  30.559  54.046  1.00  0.00     0.035 A 
HETATM   17  C   UNL     1       3.444  31.251  53.136  1.00  0.00     0.031 A 
HETATM   18  C   UNL     1       2.739  32.393  53.534  1.00  0.00     0.026 A 
HETATM   19  C   UNL     1       2.843  32.853  54.843  1.00  0.00     0.034 A 
HETATM   20 CL   UNL     1       1.992  34.267  55.326  1.00  0.00    -0.084 Cl
HETATM   21  C   UNL     1       3.636  32.172  55.762  1.00  0.00     0.026 A 
HETATM   22  C   UNL     1       4.328  31.024  55.367  1.00  0.00     0.031 A 
ENDBRANCH  13  16
ENDBRANCH  10  12
BRANCH   1  23
HETATM   23  C   UNL     1       7.074  27.329  55.097  1.00  0.00    -0.028 A 
HETATM   24  C   UNL     1       8.038  28.196  54.557  1.00  0.00     0.010 A 
HETATM   25  C   UNL     1       8.812  29.011  55.389  1.00  0.00     0.007 A 
HETATM   26  C   UNL     1       8.640  28.977  56.778  1.00  0.00    -0.059 A 
HETATM   27  C   UNL     1       7.666  28.130  57.319  1.00  0.00     0.007 A 
HETATM   28  C   UNL     1       6.891  27.318  56.488  1.00  0.00     0.010 A 
BRANCH  26  29
HETATM   29  C   UNL     1       9.482  29.844  57.681  1.00  0.00     0.034 C 
HETATM   30  C   UNL     1      10.910  29.977  57.177  1.00  0.00     0.010 C 
ENDBRANCH  26  29
ENDBRANCH   1  23
BRANCH   5  31
HETATM   31  C   UNL     1       8.612  22.158  53.972  1.00  0.00     0.085 C 
BRANCH  31  32
HETATM   32  C   UNL     1       7.954  21.475  55.166  1.00  0.00     0.034 C 
BRANCH  32  33
HETATM   33  C   UNL     1       8.755  20.287  55.685  1.00  0.00     0.164 C 
BRANCH  33  34
HETATM   34  O   UNL     1       9.022  19.387  54.615  1.00  0.00    -0.401 OA
HETATM   35  H   UNL     1       9.779  19.739  54.117  1.00  0.00     0.209 HD
ENDBRANCH  33  34
ENDBRANCH  32  33
ENDBRANCH  31  32
ENDBRANCH   5  31
TORSDOF 8
ENDMDL
MODEL 6
REMARK VINA RESULT:      -8.1      3.505      7.782
REMARK  8 active torsions:
REMARK  status: ('A' for Active; 'I' for Inactive)
REMARK    1  A    between atoms: C_2  and  C_3 
REMARK    2  A    between atoms: C_6  and  C_7 
REMARK    3  A    between atoms: C_11  and  C_12 
REMARK    4  A    between atoms: C_12  and  C_13 
REMARK    5  A    between atoms: C_13  and  C_14 
REMARK    6  A    between atoms: C_14  and  O_15 
REMARK    7  A    between atoms: C_20  and  C_21 
REMARK       I    between atoms: C_21  and  N_22 
REMARK    8  A    between atoms: N_22  and  C_23 
ROOT
HETATM    1  C   UNL     1       4.870  26.685  51.871  1.00  0.00     0.202 C 
HETATM    2  N   UNL     1       4.566  26.504  50.446  1.00  0.00    -0.083 N 
HETATM    3  C   UNL     1       4.815  27.449  49.488  1.00  0.00     0.726 A 
HETATM    4  N   UNL     1       4.363  27.031  48.334  1.00  0.00    -0.046 NA
HETATM    5  C   UNL     1       3.796  25.816  48.647  1.00  0.00     0.166 A 
HETATM    6  N   UNL     1       3.883  25.457  49.936  1.00  0.00    -0.140 NA
HETATM    7  N   UNL     1       5.382  28.620  49.841  1.00  0.00    -0.192 N 
HETATM    8  C   UNL     1       5.529  29.014  51.168  1.00  0.00     0.037 C 
HETATM    9  C   UNL     1       5.831  30.479  51.373  1.00  0.00     0.070 C 
HETATM   10  C   UNL     1       5.314  28.117  52.163  1.00  0.00     0.062 C 
HETATM   11  H   UNL     1       5.435  29.343  49.128  1.00  0.00     0.184 HD
ENDROOT
BRANCH  10  12
HETATM   12  C   UNL     1       5.340  28.444  53.616  1.00  0.00     0.256 C 
HETATM   13  N   UNL     1       6.607  28.571  54.141  1.00  0.00    -0.323 N 
HETATM   14  H   UNL     1       7.383  28.417  53.512  1.00  0.00     0.169 HD
HETATM   15  O   UNL     1       4.275  28.547  54.212  1.00  0.00    -0.267 OA
BRANCH  13  16
HETATM   16  C   UNL     1       6.945  28.957  55.455  1.00  0.00     0.035 A 
HETATM   17  C   UNL     1       6.284  29.960  56.168  1.00  0.00     0.031 A 
HETATM   18  C   UNL     1       6.696  30.305  57.460  1.00  0.00     0.026 A 
HETATM   19  C   UNL     1       7.778  29.651  58.043  1.00  0.00     0.034 A 
HETATM   20 CL   UNL     1       8.295  30.087  59.623  1.00  0.00    -0.084 Cl
HETATM   21  C   UNL     1       8.444  28.646  57.347  1.00  0.00     0.026 A 
HETATM   22  C   UNL     1       8.022  28.294  56.061  1.00  0.00     0.031 A 
ENDBRANCH  13  16
ENDBRANCH  10  12
BRANCH   1  23
HETATM   23  C   UNL     1       5.894  25.653  52.333  1.00  0.00    -0.028 A 
HETATM   24  C   UNL     1       7.148  25.517  51.715  1.00  0.00     0.010 A 
HETATM   25  C   UNL     1       8.063  24.557  52.158  1.00  0.00     0.007 A 
HETATM   26  C   UNL     1       7.745  23.712  53.228  1.00  0.00    -0.059 A 
HETATM   27  C   UNL     1       6.505  23.858  53.860  1.00  0.00     0.007 A 
HETATM   28  C   UNL     1       5.592  24.818  53.420  1.00  0.00     0.010 A 
BRANCH  26  29
HETATM   29  C   UNL     1       8.723  22.665  53.700  1.00  0.00     0.034 C 
HETATM   30  C   UNL     1       8.295  21.261  53.305  1.00  0.00     0.010 C 
ENDBRANCH  26  29
ENDBRANCH   1  23
BRANCH   5  31
HETATM   31  C   UNL     1       3.085  24.989  47.638  1.00  0.00     0.085 C 
BRANCH  31  32
HETATM   32  C   UNL     1       2.439  25.801  46.519  1.00  0.00     0.034 C 
BRANCH  32  33
HETATM   33  C   UNL     1       1.270  26.648  47.003  1.00  0.00     0.164 C 
BRANCH  33  34
HETATM   34  O   UNL     1       1.253  26.671  48.427  1.00  0.00    -0.401 OA
HETATM   35  H   UNL     1       1.520  27.561  48.710  1.00  0.00     0.209 HD
ENDBRANCH  33  34
ENDBRANCH  32  33
ENDBRANCH  31  32
ENDBRANCH   5  31
TORSDOF 8
ENDMDL
MODEL 7
REMARK VINA RESULT:      -8.0      3.346      6.355
REMARK  8 active torsions:
REMARK  status: ('A' for Active; 'I' for Inactive)
REMARK    1  A    between atoms: C_2  and  C_3 
REMARK    2  A    between atoms: C_6  and  C_7 
REMARK    3  A    between atoms: C_11  and  C_12 
REMARK    4  A    between atoms: C_12  and  C_13 
REMARK    5  A    between atoms: C_13  and  C_14 
REMARK    6  A    between atoms: C_14  and  O_15 
REMARK    7  A    between atoms: C_20  and  C_21 
REMARK       I    between atoms: C_21  and  N_22 
REMARK    8  A    between atoms: N_22  and  C_23 
ROOT
HETATM    1  C   UNL     1       5.006  28.447  55.704  1.00  0.00     0.202 C 
HETATM    2  N   UNL     1       5.012  29.791  56.295  1.00  0.00    -0.083 N 
HETATM    3  C   UNL     1       6.092  30.338  56.932  1.00  0.00     0.726 A 
HETATM    4  N   UNL     1       5.766  31.507  57.419  1.00  0.00    -0.046 NA
HETATM    5  C   UNL     1       4.437  31.621  57.084  1.00  0.00     0.166 A 
HETATM    6  N   UNL     1       3.925  30.583  56.405  1.00  0.00    -0.140 NA
HETATM    7  N   UNL     1       7.235  29.630  57.030  1.00  0.00    -0.192 N 
HETATM    8  C   UNL     1       7.311  28.277  56.709  1.00  0.00     0.037 C 
HETATM    9  C   UNL     1       8.539  27.564  57.220  1.00  0.00     0.070 C 
HETATM   10  C   UNL     1       6.279  27.682  56.060  1.00  0.00     0.062 C 
HETATM   11  H   UNL     1       7.971  30.015  57.616  1.00  0.00     0.184 HD
ENDROOT
BRANCH  10  12
HETATM   12  C   UNL     1       6.199  26.226  55.756  1.00  0.00     0.256 C 
HETATM   13  N   UNL     1       7.199  25.770  54.924  1.00  0.00    -0.323 N 
HETATM   14  H   UNL     1       7.867  26.452  54.592  1.00  0.00     0.169 HD
HETATM   15  O   UNL     1       5.274  25.578  56.230  1.00  0.00    -0.267 OA
BRANCH  13  16
HETATM   16  C   UNL     1       7.433  24.435  54.533  1.00  0.00     0.035 A 
HETATM   17  C   UNL     1       7.582  23.374  55.430  1.00  0.00     0.031 A 
HETATM   18  C   UNL     1       7.839  22.080  54.964  1.00  0.00     0.026 A 
HETATM   19  C   UNL     1       7.955  21.842  53.597  1.00  0.00     0.034 A 
HETATM   20 CL   UNL     1       8.288  20.255  53.027  1.00  0.00    -0.084 Cl
HETATM   21  C   UNL     1       7.804  22.888  52.691  1.00  0.00     0.026 A 
HETATM   22  C   UNL     1       7.535  24.179  53.158  1.00  0.00     0.031 A 
ENDBRANCH  13  16
ENDBRANCH  10  12
BRANCH   1  23
HETATM   23  C   UNL     1       4.777  28.527  54.198  1.00  0.00    -0.028 A 
HETATM   24  C   UNL     1       3.491  28.491  53.635  1.00  0.00     0.010 A 
HETATM   25  C   UNL     1       3.315  28.560  52.250  1.00  0.00     0.007 A 
HETATM   26  C   UNL     1       4.421  28.668  51.397  1.00  0.00    -0.059 A 
HETATM   27  C   UNL     1       5.702  28.726  51.954  1.00  0.00     0.007 A 
HETATM   28  C   UNL     1       5.879  28.659  53.338  1.00  0.00     0.010 A 
BRANCH  26  29
HETATM   29  C   UNL     1       4.236  28.730  49.901  1.00  0.00     0.034 C 
HETATM   30  C   UNL     1       4.504  27.389  49.235  1.00  0.00     0.010 C 
ENDBRANCH  26  29
ENDBRANCH   1  23
BRANCH   5  31
HETATM   31  C   UNL     1       3.611  32.785  57.497  1.00  0.00     0.085 C 
BRANCH  31  32
HETATM   32  C   UNL     1       4.099  33.467  58.771  1.00  0.00     0.034 C 
BRANCH  32  33
HETATM   33  C   UNL     1       3.714  32.705  60.034  1.00  0.00     0.164 C 
BRANCH  33  34
HETATM   34  O   UNL     1       2.302  32.751  60.207  1.00  0.00    -0.401 OA
HETATM   35  H   UNL     1       1.895  32.401  59.397  1.00  0.00     0.209 HD
ENDBRANCH  33  34
ENDBRANCH  32  33
ENDBRANCH  31  32
ENDBRANCH   5  31
TORSDOF 8
ENDMDL
MODEL 8
REMARK VINA RESULT:      -7.9      1.905      2.354
REMARK  8 active torsions:
REMARK  status: ('A' for Active; 'I' for Inactive)
REMARK    1  A    between atoms: C_2  and  C_3 
REMARK    2  A    between atoms: C_6  and  C_7 
REMARK    3  A    between atoms: C_11  and  C_12 
REMARK    4  A    between atoms: C_12  and  C_13 
REMARK    5  A    between atoms: C_13  and  C_14 
REMARK    6  A    between atoms: C_14  and  O_15 
REMARK    7  A    between atoms: C_20  and  C_21 
REMARK       I    between atoms: C_21  and  N_22 
REMARK    8  A    between atoms: N_22  and  C_23 
ROOT
HETATM    1  C   UNL     1       6.329  28.977  55.071  1.00  0.00     0.202 C 
HETATM    2  N   UNL     1       6.849  29.457  56.357  1.00  0.00    -0.083 N 
HETATM    3  C   UNL     1       6.078  30.058  57.314  1.00  0.00     0.726 A 
HETATM    4  N   UNL     1       6.837  30.445  58.307  1.00  0.00    -0.046 NA
HETATM    5  C   UNL     1       8.098  30.089  57.889  1.00  0.00     0.166 A 
HETATM    6  N   UNL     1       8.157  29.492  56.688  1.00  0.00    -0.140 NA
HETATM    7  N   UNL     1       4.758  30.224  57.097  1.00  0.00    -0.192 N 
HETATM    8  C   UNL     1       4.169  30.015  55.852  1.00  0.00     0.037 C 
HETATM    9  C   UNL     1       2.785  30.594  55.691  1.00  0.00     0.070 C 
HETATM   10  C   UNL     1       4.877  29.406  54.868  1.00  0.00     0.062 C 
HETATM   11  H   UNL     1       4.243  30.784  57.771  1.00  0.00     0.184 HD
ENDROOT
BRANCH  10  12
HETATM   12  C   UNL     1       4.395  29.220  53.471  1.00  0.00     0.256 C 
HETATM   13  N   UNL     1       5.010  30.042  52.551  1.00  0.00    -0.323 N 
HETATM   14  H   UNL     1       5.701  30.690  52.903  1.00  0.00     0.169 HD
HETATM   15  O   UNL     1       3.508  28.402  53.261  1.00  0.00    -0.267 OA
BRANCH  13  16
HETATM   16  C   UNL     1       4.826  30.034  51.152  1.00  0.00     0.035 A 
HETATM   17  C   UNL     1       5.436  29.119  50.290  1.00  0.00     0.031 A 
HETATM   18  C   UNL     1       5.224  29.192  48.909  1.00  0.00     0.026 A 
HETATM   19  C   UNL     1       4.407  30.188  48.383  1.00  0.00     0.034 A 
HETATM   20 CL   UNL     1       4.162  30.289  46.684  1.00  0.00    -0.084 Cl
HETATM   21  C   UNL     1       3.789  31.105  49.229  1.00  0.00     0.026 A 
HETATM   22  C   UNL     1       3.991  31.021  50.610  1.00  0.00     0.031 A 
ENDBRANCH  13  16
ENDBRANCH  10  12
BRANCH   1  23
HETATM   23  C   UNL     1       6.512  27.467  54.951  1.00  0.00    -0.028 A 
HETATM   24  C   UNL     1       5.857  26.566  55.808  1.00  0.00     0.010 A 
HETATM   25  C   UNL     1       6.050  25.188  55.676  1.00  0.00     0.007 A 
HETATM   26  C   UNL     1       6.901  24.679  54.686  1.00  0.00    -0.059 A 
HETATM   27  C   UNL     1       7.537  25.572  53.818  1.00  0.00     0.007 A 
HETATM   28  C   UNL     1       7.344  26.948  53.947  1.00  0.00     0.010 A 
BRANCH  26  29
HETATM   29  C   UNL     1       7.122  23.194  54.550  1.00  0.00     0.034 C 
HETATM   30  C   UNL     1       7.783  22.597  55.783  1.00  0.00     0.010 C 
ENDBRANCH  26  29
ENDBRANCH   1  23
BRANCH   5  31
HETATM   31  C   UNL     1       9.315  30.398  58.683  1.00  0.00     0.085 C 
BRANCH  31  32
HETATM   32  C   UNL     1      10.498  30.867  57.842  1.00  0.00     0.034 C 
BRANCH  32  33
HETATM   33  C   UNL     1      11.115  29.748  57.013  1.00  0.00     0.164 C 
BRANCH  33  34
HETATM   34  O   UNL     1      12.527  29.743  57.194  1.00  0.00    -0.401 OA
HETATM   35  H   UNL     1      12.702  29.808  58.148  1.00  0.00     0.209 HD
ENDBRANCH  33  34
ENDBRANCH  32  33
ENDBRANCH  31  32
ENDBRANCH   5  31
TORSDOF 8
ENDMDL
MODEL 9
REMARK VINA RESULT:      -7.7      8.848     12.724
REMARK  8 active torsions:
REMARK  status: ('A' for Active; 'I' for Inactive)
REMARK    1  A    between atoms: C_2  and  C_3 
REMARK    2  A    between atoms: C_6  and  C_7 
REMARK    3  A    between atoms: C_11  and  C_12 
REMARK    4  A    between atoms: C_12  and  C_13 
REMARK    5  A    between atoms: C_13  and  C_14 
REMARK    6  A    between atoms: C_14  and  O_15 
REMARK    7  A    between atoms: C_20  and  C_21 
REMARK       I    between atoms: C_21  and  N_22 
REMARK    8  A    between atoms: N_22  and  C_23 
ROOT
HETATM    1  C   UNL     1       4.973  34.153  63.993  1.00  0.00     0.202 C 
HETATM    2  N   UNL     1       5.644  34.268  65.294  1.00  0.00    -0.083 N 
HETATM    3  C   UNL     1       6.881  33.749  65.560  1.00  0.00     0.726 A 
HETATM    4  N   UNL     1       7.173  33.941  66.821  1.00  0.00    -0.046 NA
HETATM    5  C   UNL     1       6.045  34.559  67.309  1.00  0.00     0.166 A 
HETATM    6  N   UNL     1       5.071  34.767  66.409  1.00  0.00    -0.140 NA
HETATM    7  N   UNL     1       7.553  33.098  64.590  1.00  0.00    -0.192 N 
HETATM    8  C   UNL     1       6.962  32.730  63.384  1.00  0.00     0.037 C 
HETATM    9  C   UNL     1       7.724  31.704  62.582  1.00  0.00     0.070 C 
HETATM   10  C   UNL     1       5.743  33.227  63.054  1.00  0.00     0.062 C 
HETATM   11  H   UNL     1       8.409  32.619  64.858  1.00  0.00     0.184 HD
ENDROOT
BRANCH  10  12
HETATM   12  C   UNL     1       4.966  32.830  61.847  1.00  0.00     0.256 C 
HETATM   13  N   UNL     1       5.328  33.502  60.700  1.00  0.00    -0.323 N 
HETATM   14  H   UNL     1       6.057  34.197  60.785  1.00  0.00     0.169 HD
HETATM   15  O   UNL     1       4.085  31.987  61.968  1.00  0.00    -0.267 OA
BRANCH  13  16
HETATM   16  C   UNL     1       4.835  33.281  59.397  1.00  0.00     0.035 A 
HETATM   17  C   UNL     1       5.304  32.277  58.546  1.00  0.00     0.031 A 
HETATM   18  C   UNL     1       4.781  32.137  57.255  1.00  0.00     0.026 A 
HETATM   19  C   UNL     1       3.792  33.007  56.807  1.00  0.00     0.034 A 
HETATM   20 CL   UNL     1       3.164  32.846  55.215  1.00  0.00    -0.084 Cl
HETATM   21  C   UNL     1       3.311  34.009  57.645  1.00  0.00     0.026 A 
HETATM   22  C   UNL     1       3.825  34.139  58.939  1.00  0.00     0.031 A 
ENDBRANCH  13  16
ENDBRANCH  10  12
BRANCH   1  23
HETATM   23  C   UNL     1       4.743  35.535  63.388  1.00  0.00    -0.028 A 
HETATM   24  C   UNL     1       3.459  36.005  63.066  1.00  0.00     0.010 A 
HETATM   25  C   UNL     1       3.283  37.274  62.506  1.00  0.00     0.007 A 
HETATM   26  C   UNL     1       4.385  38.101  62.257  1.00  0.00    -0.059 A 
HETATM   27  C   UNL     1       5.663  37.646  62.596  1.00  0.00     0.007 A 
HETATM   28  C   UNL     1       5.840  36.380  63.157  1.00  0.00     0.010 A 
BRANCH  26  29
HETATM   29  C   UNL     1       4.200  39.466  61.641  1.00  0.00     0.034 C 
HETATM   30  C   UNL     1       5.238  40.462  62.134  1.00  0.00     0.010 C 
ENDBRANCH  26  29
ENDBRANCH   1  23
BRANCH   5  31
HETATM   31  C   UNL     1       5.892  34.916  68.743  1.00  0.00     0.085 C 
BRANCH  31  32
HETATM   32  C   UNL     1       7.170  35.443  69.387  1.00  0.00     0.034 C 
BRANCH  32  33
HETATM   33  C   UNL     1       7.870  34.402  70.251  1.00  0.00     0.164 C 
BRANCH  33  34
HETATM   34  O   UNL     1       9.281  34.527  70.100  1.00  0.00    -0.401 OA
HETATM   35  H   UNL     1       9.647  33.631  70.010  1.00  0.00     0.209 HD
ENDBRANCH  33  34
ENDBRANCH  32  33
ENDBRANCH  31  32
ENDBRANCH   5  31
TORSDOF 8
ENDMDL
MODEL 10
REMARK VINA RESULT:      -7.6      3.942      7.568
REMARK  8 active torsions:
REMARK  status: ('A' for Active; 'I' for Inactive)
REMARK    1  A    between atoms: C_2  and  C_3 
REMARK    2  A    between atoms: C_6  and  C_7 
REMARK    3  A    between atoms: C_11  and  C_12 
REMARK    4  A    between atoms: C_12  and  C_13 
REMARK    5  A    between atoms: C_13  and  C_14 
REMARK    6  A    between atoms: C_14  and  O_15 
REMARK    7  A    between atoms: C_20  and  C_21 
REMARK       I    between atoms: C_21  and  N_22 
REMARK    8  A    between atoms: N_22  and  C_23 
ROOT
HETATM    1  C   UNL     1       6.564  27.789  52.361  1.00  0.00     0.202 C 
HETATM    2  N   UNL     1       5.696  28.672  51.571  1.00  0.00    -0.083 N 
HETATM    3  C   UNL     1       4.545  28.257  50.959  1.00  0.00     0.726 A 
HETATM    4  N   UNL     1       4.038  29.246  50.268  1.00  0.00    -0.046 NA
HETATM    5  C   UNL     1       4.953  30.256  50.457  1.00  0.00     0.166 A 
HETATM    6  N   UNL     1       5.998  29.945  51.240  1.00  0.00    -0.140 NA
HETATM    7  N   UNL     1       4.153  26.973  51.078  1.00  0.00    -0.192 N 
HETATM    8  C   UNL     1       4.974  25.983  51.611  1.00  0.00     0.037 C 
HETATM    9  C   UNL     1       4.536  24.566  51.332  1.00  0.00     0.070 C 
HETATM   10  C   UNL     1       6.121  26.332  52.248  1.00  0.00     0.062 C 
HETATM   11  H   UNL     1       3.366  26.673  50.509  1.00  0.00     0.184 HD
ENDROOT
BRANCH  10  12
HETATM   12  C   UNL     1       7.128  25.365  52.767  1.00  0.00     0.256 C 
HETATM   13  N   UNL     1       6.680  24.600  53.821  1.00  0.00    -0.323 N 
HETATM   14  H   UNL     1       5.739  24.774  54.149  1.00  0.00     0.169 HD
HETATM   15  O   UNL     1       8.238  25.343  52.252  1.00  0.00    -0.267 OA
BRANCH  13  16
HETATM   16  C   UNL     1       7.371  23.549  54.460  1.00  0.00     0.035 A 
HETATM   17  C   UNL     1       7.844  23.610  55.773  1.00  0.00     0.031 A 
HETATM   18  C   UNL     1       8.545  22.533  56.328  1.00  0.00     0.026 A 
HETATM   19  C   UNL     1       8.782  21.392  55.568  1.00  0.00     0.034 A 
HETATM   20 CL   UNL     1       9.659  20.077  56.244  1.00  0.00    -0.084 Cl
HETATM   21  C   UNL     1       8.313  21.314  54.260  1.00  0.00     0.026 A 
HETATM   22  C   UNL     1       7.601  22.386  53.711  1.00  0.00     0.031 A 
ENDBRANCH  13  16
ENDBRANCH  10  12
BRANCH   1  23
HETATM   23  C   UNL     1       6.632  28.266  53.809  1.00  0.00    -0.028 A 
HETATM   24  C   UNL     1       5.478  28.556  54.554  1.00  0.00     0.010 A 
HETATM   25  C   UNL     1       5.574  28.997  55.878  1.00  0.00     0.007 A 
HETATM   26  C   UNL     1       6.826  29.156  56.486  1.00  0.00    -0.059 A 
HETATM   27  C   UNL     1       7.977  28.847  55.754  1.00  0.00     0.007 A 
HETATM   28  C   UNL     1       7.882  28.405  54.433  1.00  0.00     0.010 A 
BRANCH  26  29
HETATM   29  C   UNL     1       6.934  29.644  57.909  1.00  0.00     0.034 C 
HETATM   30  C   UNL     1       8.374  29.665  58.399  1.00  0.00     0.010 C 
ENDBRANCH  26  29
ENDBRANCH   1  23
BRANCH   5  31
HETATM   31  C   UNL     1       4.824  31.579  49.794  1.00  0.00     0.085 C 
BRANCH  31  32
HETATM   32  C   UNL     1       3.385  32.075  49.683  1.00  0.00     0.034 C 
BRANCH  32  33
HETATM   33  C   UNL     1       2.775  32.427  51.033  1.00  0.00     0.164 C 
BRANCH  33  34
HETATM   34  O   UNL     1       1.925  31.369  51.463  1.00  0.00    -0.401 OA
HETATM   35  H   UNL     1       2.460  30.558  51.501  1.00  0.00     0.209 HD
ENDBRANCH  33  34
ENDBRANCH  32  33
ENDBRANCH  31  32
ENDBRANCH   5  31
TORSDOF 8
ENDMDL
