MODEL 1
REMARK VINA RESULT:      -9.6      0.000      0.000
REMARK  2 active torsions:
REMARK  status: ('A' for Active; 'I' for Inactive)
REMARK    1  A    between atoms: C_4  and  N_5 
REMARK       I    between atoms: N_5  and  C_6 
REMARK    2  A    between atoms: C_6  and  C_7 
ROOT
HETATM    1  N   UNL     1       6.852  27.212  55.515  1.00  0.00    -0.319 N 
HETATM    2  C   UNL     1       5.791  27.641  56.280  1.00  0.00     0.280 C 
HETATM    3  O   UNL     1       4.636  27.244  56.261  1.00  0.00    -0.265 OA
HETATM    4  H   UNL     1       7.786  27.515  55.793  1.00  0.00     0.169 HD
ENDROOT
BRANCH   2   5
HETATM    5  C   UNL     1       6.176  28.703  57.289  1.00  0.00     0.195 C 
HETATM    6  N   UNL     1       5.270  29.600  57.589  1.00  0.00    -0.165 NA
HETATM    7  N   UNL     1       5.580  30.587  58.482  1.00  0.00    -0.277 N 
HETATM    8  C   UNL     1       6.913  30.902  58.795  1.00  0.00     0.064 A 
HETATM    9  H   UNL     1       4.934  31.377  58.510  1.00  0.00     0.189 HD
HETATM   10  C   UNL     1       7.939  29.991  58.547  1.00  0.00     0.045 A 
HETATM   11  C   UNL     1       7.232  32.081  59.477  1.00  0.00     0.032 A 
HETATM   12  C   UNL     1       7.549  28.737  57.907  1.00  0.00     0.220 C 
HETATM   13  C   UNL     1       9.263  30.244  58.917  1.00  0.00     0.018 A 
HETATM   14  O   UNL     1       8.276  27.757  57.891  1.00  0.00    -0.285 OA
HETATM   15  C   UNL     1       9.570  31.439  59.561  1.00  0.00     0.001 A 
HETATM   16  C   UNL     1       8.556  32.355  59.845  1.00  0.00     0.002 A 
ENDBRANCH   2   5
BRANCH   1  17
HETATM   17  C   UNL     1       6.832  26.303  54.431  1.00  0.00     0.065 A 
HETATM   18  C   UNL     1       6.192  26.586  53.217  1.00  0.00     0.038 A 
HETATM   19  C   UNL     1       6.229  25.672  52.161  1.00  0.00    -0.059 A 
HETATM   20  C   UNL     1       5.525  25.979  50.871  1.00  0.00     0.048 C 
HETATM   21  C   UNL     1       6.886  24.453  52.343  1.00  0.00     0.020 A 
HETATM   22  C   UNL     1       7.531  24.162  53.557  1.00  0.00    -0.005 A 
HETATM   23  C   UNL     1       7.519  25.093  54.617  1.00  0.00     0.093 A 
HETATM   24  C   UNL     1       8.200  22.945  53.748  1.00  0.00     0.015 A 
HETATM   25  N   UNL     1       8.140  24.837  55.795  1.00  0.00    -0.258 NA
HETATM   26  C   UNL     1       8.773  23.651  55.941  1.00  0.00     0.117 A 
HETATM   27  C   UNL     1       8.829  22.683  54.959  1.00  0.00     0.020 A 
ENDBRANCH   1  17
TORSDOF 2
ENDMDL
MODEL 2
REMARK VINA RESULT:      -9.6      3.842      6.293
REMARK  2 active torsions:
REMARK  status: ('A' for Active; 'I' for Inactive)
REMARK    1  A    between atoms: C_4  and  N_5 
REMARK       I    between atoms: N_5  and  C_6 
REMARK    2  A    between atoms: C_6  and  C_7 
ROOT
HETATM    1  N   UNL     1       7.242  30.705  59.686  1.00  0.00    -0.319 N 
HETATM    2  C   UNL     1       6.668  31.943  59.870  1.00  0.00     0.280 C 
HETATM    3  O   UNL     1       6.466  32.813  59.038  1.00  0.00    -0.265 OA
HETATM    4  H   UNL     1       7.158  30.030  60.447  1.00  0.00     0.169 HD
ENDROOT
BRANCH   2   5
HETATM    5  C   UNL     1       6.203  32.178  61.292  1.00  0.00     0.195 C 
HETATM    6  N   UNL     1       4.913  32.262  61.494  1.00  0.00    -0.165 NA
HETATM    7  N   UNL     1       4.449  32.491  62.759  1.00  0.00    -0.277 N 
HETATM    8  C   UNL     1       5.284  33.010  63.764  1.00  0.00     0.064 A 
HETATM    9  H   UNL     1       3.470  32.772  62.828  1.00  0.00     0.189 HD
HETATM   10  C   UNL     1       6.671  32.928  63.652  1.00  0.00     0.045 A 
HETATM   11  C   UNL     1       4.749  33.506  64.958  1.00  0.00     0.032 A 
HETATM   12  C   UNL     1       7.186  32.328  62.424  1.00  0.00     0.220 C 
HETATM   13  C   UNL     1       7.526  33.364  64.669  1.00  0.00     0.018 A 
HETATM   14  O   UNL     1       8.339  31.941  62.318  1.00  0.00    -0.285 OA
HETATM   15  C   UNL     1       6.978  33.891  65.835  1.00  0.00     0.001 A 
HETATM   16  C   UNL     1       5.592  33.957  65.982  1.00  0.00     0.002 A 
ENDBRANCH   2   5
BRANCH   1  17
HETATM   17  C   UNL     1       7.856  30.195  58.518  1.00  0.00     0.065 A 
HETATM   18  C   UNL     1       9.245  30.176  58.340  1.00  0.00     0.038 A 
HETATM   19  C   UNL     1       9.809  29.629  57.184  1.00  0.00    -0.059 A 
HETATM   20  C   UNL     1      11.298  29.630  56.996  1.00  0.00     0.048 C 
HETATM   21  C   UNL     1       8.965  29.131  56.189  1.00  0.00     0.020 A 
HETATM   22  C   UNL     1       7.570  29.146  56.360  1.00  0.00    -0.005 A 
HETATM   23  C   UNL     1       6.997  29.673  57.538  1.00  0.00     0.093 A 
HETATM   24  C   UNL     1       6.713  28.642  55.372  1.00  0.00     0.015 A 
HETATM   25  N   UNL     1       5.655  29.691  57.728  1.00  0.00    -0.258 NA
HETATM   26  C   UNL     1       4.862  29.198  56.750  1.00  0.00     0.117 A 
HETATM   27  C   UNL     1       5.338  28.669  55.567  1.00  0.00     0.020 A 
ENDBRANCH   1  17
TORSDOF 2
ENDMDL
MODEL 3
REMARK VINA RESULT:      -9.6      3.799      6.781
REMARK  2 active torsions:
REMARK  status: ('A' for Active; 'I' for Inactive)
REMARK    1  A    between atoms: C_4  and  N_5 
REMARK       I    between atoms: N_5  and  C_6 
REMARK    2  A    between atoms: C_6  and  C_7 
ROOT
HETATM    1  N   UNL     1       6.725  25.188  52.521  1.00  0.00    -0.319 N 
HETATM    2  C   UNL     1       5.403  25.207  52.139  1.00  0.00     0.280 C 
HETATM    3  O   UNL     1       4.499  24.471  52.502  1.00  0.00    -0.265 OA
HETATM    4  H   UNL     1       7.300  25.992  52.269  1.00  0.00     0.169 HD
ENDROOT
BRANCH   2   5
HETATM    5  C   UNL     1       5.076  26.338  51.185  1.00  0.00     0.195 C 
HETATM    6  N   UNL     1       4.666  26.010  49.986  1.00  0.00    -0.165 NA
HETATM    7  N   UNL     1       4.377  26.998  49.087  1.00  0.00    -0.277 N 
HETATM    8  C   UNL     1       4.852  28.310  49.259  1.00  0.00     0.064 A 
HETATM    9  H   UNL     1       4.284  26.700  48.115  1.00  0.00     0.189 HD
HETATM   10  C   UNL     1       5.272  28.759  50.510  1.00  0.00     0.045 A 
HETATM   11  C   UNL     1       4.799  29.237  48.212  1.00  0.00     0.032 A 
HETATM   12  C   UNL     1       5.234  27.780  51.594  1.00  0.00     0.220 C 
HETATM   13  C   UNL     1       5.677  30.078  50.730  1.00  0.00     0.018 A 
HETATM   14  O   UNL     1       5.298  28.102  52.769  1.00  0.00    -0.285 OA
HETATM   15  C   UNL     1       5.655  30.979  49.668  1.00  0.00     0.001 A 
HETATM   16  C   UNL     1       5.211  30.560  48.412  1.00  0.00     0.002 A 
ENDBRANCH   2   5
BRANCH   1  17
HETATM   17  C   UNL     1       7.384  24.227  53.324  1.00  0.00     0.065 A 
HETATM   18  C   UNL     1       7.712  22.947  52.858  1.00  0.00     0.038 A 
HETATM   19  C   UNL     1       8.396  22.044  53.677  1.00  0.00    -0.059 A 
HETATM   20  C   UNL     1       8.726  20.670  53.173  1.00  0.00     0.048 C 
HETATM   21  C   UNL     1       8.718  22.423  54.982  1.00  0.00     0.020 A 
HETATM   22  C   UNL     1       8.393  23.704  55.456  1.00  0.00    -0.005 A 
HETATM   23  C   UNL     1       7.727  24.630  54.625  1.00  0.00     0.093 A 
HETATM   24  C   UNL     1       8.719  24.099  56.761  1.00  0.00     0.015 A 
HETATM   25  N   UNL     1       7.410  25.875  55.059  1.00  0.00    -0.258 NA
HETATM   26  C   UNL     1       7.739  26.216  56.324  1.00  0.00     0.117 A 
HETATM   27  C   UNL     1       8.387  25.372  57.205  1.00  0.00     0.020 A 
ENDBRANCH   1  17
TORSDOF 2
ENDMDL
MODEL 4
REMARK VINA RESULT:      -9.5      2.290      7.852
REMARK  2 active torsions:
REMARK  status: ('A' for Active; 'I' for Inactive)
REMARK    1  A    between atoms: C_4  and  N_5 
REMARK       I    between atoms: N_5  and  C_6 
REMARK    2  A    between atoms: C_6  and  C_7 
ROOT
HETATM    1  N   UNL     1       8.079  26.565  56.660  1.00  0.00    -0.319 N 
HETATM    2  C   UNL     1       8.041  25.487  57.515  1.00  0.00     0.280 C 
HETATM    3  O   UNL     1       8.006  25.491  58.736  1.00  0.00    -0.265 OA
HETATM    4  H   UNL     1       7.910  26.387  55.670  1.00  0.00     0.169 HD
ENDROOT
BRANCH   2   5
HETATM    5  C   UNL     1       7.985  24.156  56.793  1.00  0.00     0.195 C 
HETATM    6  N   UNL     1       8.436  23.108  57.434  1.00  0.00    -0.165 NA
HETATM    7  N   UNL     1       8.421  21.891  56.815  1.00  0.00    -0.277 N 
HETATM    8  C   UNL     1       8.301  21.778  55.419  1.00  0.00     0.064 A 
HETATM    9  H   UNL     1       8.982  21.161  57.257  1.00  0.00     0.189 HD
HETATM   10  C   UNL     1       7.793  22.830  54.659  1.00  0.00     0.045 A 
HETATM   11  C   UNL     1       8.570  20.568  54.769  1.00  0.00     0.032 A 
HETATM   12  C   UNL     1       7.448  24.047  55.390  1.00  0.00     0.220 C 
HETATM   13  C   UNL     1       7.590  22.722  53.280  1.00  0.00     0.018 A 
HETATM   14  O   UNL     1       6.744  24.922  54.910  1.00  0.00    -0.285 OA
HETATM   15  C   UNL     1       7.898  21.523  52.642  1.00  0.00     0.001 A 
HETATM   16  C   UNL     1       8.382  20.446  53.386  1.00  0.00     0.002 A 
ENDBRANCH   2   5
BRANCH   1  17
HETATM   17  C   UNL     1       8.222  27.933  56.990  1.00  0.00     0.065 A 
HETATM   18  C   UNL     1       9.472  28.553  57.122  1.00  0.00     0.038 A 
HETATM   19  C   UNL     1       9.564  29.917  57.415  1.00  0.00    -0.059 A 
HETATM   20  C   UNL     1      10.907  30.567  57.571  1.00  0.00     0.048 C 
HETATM   21  C   UNL     1       8.390  30.649  57.609  1.00  0.00     0.020 A 
HETATM   22  C   UNL     1       7.134  30.034  57.478  1.00  0.00    -0.005 A 
HETATM   23  C   UNL     1       7.035  28.664  57.156  1.00  0.00     0.093 A 
HETATM   24  C   UNL     1       5.949  30.760  57.663  1.00  0.00     0.015 A 
HETATM   25  N   UNL     1       5.833  28.051  57.018  1.00  0.00    -0.258 NA
HETATM   26  C   UNL     1       4.714  28.785  57.206  1.00  0.00     0.117 A 
HETATM   27  C   UNL     1       4.719  30.128  57.527  1.00  0.00     0.020 A 
ENDBRANCH   1  17
TORSDOF 2
ENDMDL
MODEL 5
REMARK VINA RESULT:      -9.4      2.048      7.480
REMARK  2 active torsions:
REMARK  status: ('A' for Active; 'I' for Inactive)
REMARK    1  A    between atoms: C_4  and  N_5 
REMARK       I    between atoms: N_5  and  C_6 
REMARK    2  A    between atoms: C_6  and  C_7 
ROOT
HETATM    1  N   UNL     1       6.841  27.242  55.771  1.00  0.00    -0.319 N 
HETATM    2  C   UNL     1       7.185  27.080  54.448  1.00  0.00     0.280 C 
HETATM    3  O   UNL     1       7.250  27.930  53.573  1.00  0.00    -0.265 OA
HETATM    4  H   UNL     1       7.025  26.464  56.404  1.00  0.00     0.169 HD
ENDROOT
BRANCH   2   5
HETATM    5  C   UNL     1       7.571  25.656  54.103  1.00  0.00     0.195 C 
HETATM    6  N   UNL     1       7.645  25.346  52.834  1.00  0.00    -0.165 NA
HETATM    7  N   UNL     1       7.973  24.068  52.478  1.00  0.00    -0.277 N 
HETATM    8  C   UNL     1       7.862  23.001  53.386  1.00  0.00     0.064 A 
HETATM    9  H   UNL     1       7.797  23.821  51.503  1.00  0.00     0.189 HD
HETATM   10  C   UNL     1       7.817  23.235  54.760  1.00  0.00     0.045 A 
HETATM   11  C   UNL     1       7.921  21.674  52.947  1.00  0.00     0.032 A 
HETATM   12  C   UNL     1       7.840  24.635  55.178  1.00  0.00     0.220 C 
HETATM   13  C   UNL     1       7.785  22.193  55.691  1.00  0.00     0.018 A 
HETATM   14  O   UNL     1       8.089  24.971  56.325  1.00  0.00    -0.285 OA
HETATM   15  C   UNL     1       7.806  20.878  55.236  1.00  0.00     0.001 A 
HETATM   16  C   UNL     1       7.880  20.618  53.867  1.00  0.00     0.002 A 
ENDBRANCH   2   5
BRANCH   1  17
HETATM   17  C   UNL     1       6.351  28.408  56.406  1.00  0.00     0.065 A 
HETATM   18  C   UNL     1       5.005  28.792  56.348  1.00  0.00     0.038 A 
HETATM   19  C   UNL     1       4.559  29.933  57.021  1.00  0.00    -0.059 A 
HETATM   20  C   UNL     1       3.119  30.345  56.938  1.00  0.00     0.048 C 
HETATM   21  C   UNL     1       5.483  30.707  57.726  1.00  0.00     0.020 A 
HETATM   22  C   UNL     1       6.834  30.328  57.790  1.00  0.00    -0.005 A 
HETATM   23  C   UNL     1       7.285  29.162  57.134  1.00  0.00     0.093 A 
HETATM   24  C   UNL     1       7.769  31.093  58.501  1.00  0.00     0.015 A 
HETATM   25  N   UNL     1       8.582  28.773  57.187  1.00  0.00    -0.258 NA
HETATM   26  C   UNL     1       9.453  29.539  57.882  1.00  0.00     0.117 A 
HETATM   27  C   UNL     1       9.099  30.695  58.548  1.00  0.00     0.020 A 
ENDBRANCH   1  17
TORSDOF 2
ENDMDL
MODEL 6
REMARK VINA RESULT:      -9.3      2.659      4.909
REMARK  2 active torsions:
REMARK  status: ('A' for Active; 'I' for Inactive)
REMARK    1  A    between atoms: C_4  and  N_5 
REMARK       I    between atoms: N_5  and  C_6 
REMARK    2  A    between atoms: C_6  and  C_7 
ROOT
HETATM    1  N   UNL     1       7.344  28.965  58.497  1.00  0.00    -0.319 N 
HETATM    2  C   UNL     1       8.472  29.744  58.624  1.00  0.00     0.280 C 
HETATM    3  O   UNL     1       9.431  29.814  57.872  1.00  0.00    -0.265 OA
HETATM    4  H   UNL     1       6.557  29.171  59.113  1.00  0.00     0.169 HD
ENDROOT
BRANCH   2   5
HETATM    5  C   UNL     1       8.440  30.643  59.844  1.00  0.00     0.195 C 
HETATM    6  N   UNL     1       9.230  30.329  60.839  1.00  0.00    -0.165 NA
HETATM    7  N   UNL     1       9.221  31.102  61.966  1.00  0.00    -0.277 N 
HETATM    8  C   UNL     1       8.154  31.972  62.251  1.00  0.00     0.064 A 
HETATM    9  H   UNL     1       9.674  30.696  62.786  1.00  0.00     0.189 HD
HETATM   10  C   UNL     1       7.286  32.391  61.244  1.00  0.00     0.045 A 
HETATM   11  C   UNL     1       8.010  32.539  63.522  1.00  0.00     0.032 A 
HETATM   12  C   UNL     1       7.524  31.836  59.914  1.00  0.00     0.220 C 
HETATM   13  C   UNL     1       6.264  33.315  61.480  1.00  0.00     0.018 A 
HETATM   14  O   UNL     1       7.034  32.321  58.906  1.00  0.00    -0.285 OA
HETATM   15  C   UNL     1       6.109  33.841  62.760  1.00  0.00     0.001 A 
HETATM   16  C   UNL     1       6.984  33.459  63.778  1.00  0.00     0.002 A 
ENDBRANCH   2   5
BRANCH   1  17
HETATM   17  C   UNL     1       7.083  27.961  57.534  1.00  0.00     0.065 A 
HETATM   18  C   UNL     1       7.728  26.718  57.544  1.00  0.00     0.038 A 
HETATM   19  C   UNL     1       7.412  25.742  56.594  1.00  0.00    -0.059 A 
HETATM   20  C   UNL     1       8.122  24.420  56.604  1.00  0.00     0.048 C 
HETATM   21  C   UNL     1       6.467  26.038  55.609  1.00  0.00     0.020 A 
HETATM   22  C   UNL     1       5.816  27.283  55.593  1.00  0.00    -0.005 A 
HETATM   23  C   UNL     1       6.111  28.261  56.566  1.00  0.00     0.093 A 
HETATM   24  C   UNL     1       4.860  27.587  54.614  1.00  0.00     0.015 A 
HETATM   25  N   UNL     1       5.491  29.466  56.574  1.00  0.00    -0.258 NA
HETATM   26  C   UNL     1       4.576  29.722  55.613  1.00  0.00     0.117 A 
HETATM   27  C   UNL     1       4.230  28.826  54.621  1.00  0.00     0.020 A 
ENDBRANCH   1  17
TORSDOF 2
ENDMDL
MODEL 7
REMARK VINA RESULT:      -9.3      2.526      3.762
REMARK  2 active torsions:
REMARK  status: ('A' for Active; 'I' for Inactive)
REMARK    1  A    between atoms: C_4  and  N_5 
REMARK       I    between atoms: N_5  and  C_6 
REMARK    2  A    between atoms: C_6  and  C_7 
ROOT
HETATM    1  N   UNL     1       6.693  29.140  57.901  1.00  0.00    -0.319 N 
HETATM    2  C   UNL     1       7.876  29.840  57.962  1.00  0.00     0.280 C 
HETATM    3  O   UNL     1       8.737  29.946  57.102  1.00  0.00    -0.265 OA
HETATM    4  H   UNL     1       6.004  29.315  58.633  1.00  0.00     0.169 HD
ENDROOT
BRANCH   2   5
HETATM    5  C   UNL     1       8.054  30.597  59.262  1.00  0.00     0.195 C 
HETATM    6  N   UNL     1       8.937  30.131  60.109  1.00  0.00    -0.165 NA
HETATM    7  N   UNL     1       9.118  30.772  61.302  1.00  0.00    -0.277 N 
HETATM    8  C   UNL     1       8.156  31.661  61.812  1.00  0.00     0.064 A 
HETATM    9  H   UNL     1       9.640  30.253  62.010  1.00  0.00     0.189 HD
HETATM   10  C   UNL     1       7.201  32.236  60.975  1.00  0.00     0.045 A 
HETATM   11  C   UNL     1       8.206  32.089  63.143  1.00  0.00     0.032 A 
HETATM   12  C   UNL     1       7.236  31.823  59.574  1.00  0.00     0.220 C 
HETATM   13  C   UNL     1       6.280  33.181  61.436  1.00  0.00     0.018 A 
HETATM   14  O   UNL     1       6.661  32.443  58.694  1.00  0.00    -0.285 OA
HETATM   15  C   UNL     1       6.319  33.568  62.773  1.00  0.00     0.001 A 
HETATM   16  C   UNL     1       7.284  33.027  63.624  1.00  0.00     0.002 A 
ENDBRANCH   2   5
BRANCH   1  17
HETATM   17  C   UNL     1       6.250  28.265  56.881  1.00  0.00     0.065 A 
HETATM   18  C   UNL     1       5.336  28.655  55.894  1.00  0.00     0.038 A 
HETATM   19  C   UNL     1       4.954  27.767  54.884  1.00  0.00    -0.059 A 
HETATM   20  C   UNL     1       3.962  28.190  53.841  1.00  0.00     0.048 C 
HETATM   21  C   UNL     1       5.472  26.469  54.892  1.00  0.00     0.020 A 
HETATM   22  C   UNL     1       6.389  26.071  55.879  1.00  0.00    -0.005 A 
HETATM   23  C   UNL     1       6.798  26.972  56.885  1.00  0.00     0.093 A 
HETATM   24  C   UNL     1       6.921  24.774  55.893  1.00  0.00     0.015 A 
HETATM   25  N   UNL     1       7.688  26.612  57.843  1.00  0.00    -0.258 NA
HETATM   26  C   UNL     1       8.176  25.352  57.823  1.00  0.00     0.117 A 
HETATM   27  C   UNL     1       7.827  24.406  56.880  1.00  0.00     0.020 A 
ENDBRANCH   1  17
TORSDOF 2
ENDMDL
MODEL 8
REMARK VINA RESULT:      -9.3      2.180      7.870
REMARK  2 active torsions:
REMARK  status: ('A' for Active; 'I' for Inactive)
REMARK    1  A    between atoms: C_4  and  N_5 
REMARK       I    between atoms: N_5  and  C_6 
REMARK    2  A    between atoms: C_6  and  C_7 
ROOT
HETATM    1  N   UNL     1       7.374  27.188  56.131  1.00  0.00    -0.319 N 
HETATM    2  C   UNL     1       6.889  25.942  56.460  1.00  0.00     0.280 C 
HETATM    3  O   UNL     1       6.099  25.648  57.343  1.00  0.00    -0.265 OA
HETATM    4  H   UNL     1       7.875  27.280  55.246  1.00  0.00     0.169 HD
ENDROOT
BRANCH   2   5
HETATM    5  C   UNL     1       7.394  24.846  55.544  1.00  0.00     0.195 C 
HETATM    6  N   UNL     1       7.211  25.009  54.258  1.00  0.00    -0.165 NA
HETATM    7  N   UNL     1       7.635  24.037  53.396  1.00  0.00    -0.277 N 
HETATM    8  C   UNL     1       7.906  22.730  53.838  1.00  0.00     0.064 A 
HETATM    9  H   UNL     1       7.274  24.101  52.444  1.00  0.00     0.189 HD
HETATM   10  C   UNL     1       8.152  22.469  55.186  1.00  0.00     0.045 A 
HETATM   11  C   UNL     1       8.059  21.680  52.927  1.00  0.00     0.032 A 
HETATM   12  C   UNL     1       8.061  23.612  56.092  1.00  0.00     0.220 C 
HETATM   13  C   UNL     1       8.500  21.196  55.645  1.00  0.00     0.018 A 
HETATM   14  O   UNL     1       8.520  23.588  57.223  1.00  0.00    -0.285 OA
HETATM   15  C   UNL     1       8.611  20.153  54.730  1.00  0.00     0.001 A 
HETATM   16  C   UNL     1       8.397  20.395  53.372  1.00  0.00     0.002 A 
ENDBRANCH   2   5
BRANCH   1  17
HETATM   17  C   UNL     1       7.179  28.408  56.820  1.00  0.00     0.065 A 
HETATM   18  C   UNL     1       7.902  28.751  57.970  1.00  0.00     0.038 A 
HETATM   19  C   UNL     1       7.701  29.984  58.597  1.00  0.00    -0.059 A 
HETATM   20  C   UNL     1       8.469  30.334  59.838  1.00  0.00     0.048 C 
HETATM   21  C   UNL     1       6.741  30.858  58.082  1.00  0.00     0.020 A 
HETATM   22  C   UNL     1       6.012  30.521  56.929  1.00  0.00    -0.005 A 
HETATM   23  C   UNL     1       6.231  29.288  56.276  1.00  0.00     0.093 A 
HETATM   24  C   UNL     1       5.052  31.392  56.398  1.00  0.00     0.015 A 
HETATM   25  N   UNL     1       5.544  28.945  55.158  1.00  0.00    -0.258 NA
HETATM   26  C   UNL     1       4.626  29.812  54.678  1.00  0.00     0.117 A 
HETATM   27  C   UNL     1       4.345  31.034  55.256  1.00  0.00     0.020 A 
ENDBRANCH   1  17
TORSDOF 2
ENDMDL
MODEL 9
REMARK VINA RESULT:      -9.3      3.757      5.620
REMARK  2 active torsions:
REMARK  status: ('A' for Active; 'I' for Inactive)
REMARK    1  A    between atoms: C_4  and  N_5 
REMARK       I    between atoms: N_5  and  C_6 
REMARK    2  A    between atoms: C_6  and  C_7 
ROOT
HETATM    1  N   UNL     1       6.477  30.662  58.904  1.00  0.00    -0.319 N 
HETATM    2  C   UNL     1       6.151  31.991  59.055  1.00  0.00     0.280 C 
HETATM    3  O   UNL     1       6.031  32.843  58.189  1.00  0.00    -0.265 OA
HETATM    4  H   UNL     1       6.345  30.050  59.710  1.00  0.00     0.169 HD
ENDROOT
BRANCH   2   5
HETATM    5  C   UNL     1       5.865  32.374  60.493  1.00  0.00     0.195 C 
HETATM    6  N   UNL     1       4.715  32.947  60.742  1.00  0.00    -0.165 NA
HETATM    7  N   UNL     1       4.422  33.325  62.022  1.00  0.00    -0.277 N 
HETATM    8  C   UNL     1       5.428  33.472  62.993  1.00  0.00     0.064 A 
HETATM    9  H   UNL     1       3.630  33.960  62.127  1.00  0.00     0.189 HD
HETATM   10  C   UNL     1       6.672  32.864  62.830  1.00  0.00     0.045 A 
HETATM   11  C   UNL     1       5.170  34.125  64.203  1.00  0.00     0.032 A 
HETATM   12  C   UNL     1       6.870  32.123  61.586  1.00  0.00     0.220 C 
HETATM   13  C   UNL     1       7.665  32.927  63.811  1.00  0.00     0.018 A 
HETATM   14  O   UNL     1       7.781  31.323  61.439  1.00  0.00    -0.285 OA
HETATM   15  C   UNL     1       7.406  33.614  64.994  1.00  0.00     0.001 A 
HETATM   16  C   UNL     1       6.158  34.207  65.192  1.00  0.00     0.002 A 
ENDBRANCH   2   5
BRANCH   1  17
HETATM   17  C   UNL     1       6.884  29.994  57.725  1.00  0.00     0.065 A 
HETATM   18  C   UNL     1       5.976  29.388  56.847  1.00  0.00     0.038 A 
HETATM   19  C   UNL     1       6.421  28.770  55.675  1.00  0.00    -0.059 A 
HETATM   20  C   UNL     1       5.441  28.109  54.751  1.00  0.00     0.048 C 
HETATM   21  C   UNL     1       7.791  28.735  55.407  1.00  0.00     0.020 A 
HETATM   22  C   UNL     1       8.708  29.341  56.282  1.00  0.00    -0.005 A 
HETATM   23  C   UNL     1       8.261  29.989  57.453  1.00  0.00     0.093 A 
HETATM   24  C   UNL     1      10.084  29.318  56.019  1.00  0.00     0.015 A 
HETATM   25  N   UNL     1       9.127  30.587  58.308  1.00  0.00    -0.258 NA
HETATM   26  C   UNL     1      10.447  30.541  58.020  1.00  0.00     0.117 A 
HETATM   27  C   UNL     1      10.969  29.925  56.901  1.00  0.00     0.020 A 
ENDBRANCH   1  17
TORSDOF 2
ENDMDL
MODEL 10
REMARK VINA RESULT:      -9.2      1.980      2.480
REMARK  2 active torsions:
REMARK  status: ('A' for Active; 'I' for Inactive)
REMARK    1  A    between atoms: C_4  and  N_5 
REMARK       I    between atoms: N_5  and  C_6 
REMARK    2  A    between atoms: C_6  and  C_7 
ROOT
HETATM    1  N   UNL     1       7.413  27.735  56.160  1.00  0.00    -0.319 N 
HETATM    2  C   UNL     1       8.312  28.697  55.761  1.00  0.00     0.280 C 
HETATM    3  O   UNL     1       8.857  28.819  54.674  1.00  0.00    -0.265 OA
HETATM    4  H   UNL     1       6.911  27.893  57.035  1.00  0.00     0.169 HD
ENDROOT
BRANCH   2   5
HETATM    5  C   UNL     1       8.582  29.739  56.827  1.00  0.00     0.195 C 
HETATM    6  N   UNL     1       9.834  29.994  57.111  1.00  0.00    -0.165 NA
HETATM    7  N   UNL     1      10.124  30.914  58.079  1.00  0.00    -0.277 N 
HETATM    8  C   UNL     1       9.165  31.309  59.028  1.00  0.00     0.064 A 
HETATM    9  H   UNL     1      11.087  30.912  58.418  1.00  0.00     0.189 HD
HETATM   10  C   UNL     1       7.805  31.112  58.792  1.00  0.00     0.045 A 
HETATM   11  C   UNL     1       9.537  32.021  60.173  1.00  0.00     0.032 A 
HETATM   12  C   UNL     1       7.456  30.437  57.544  1.00  0.00     0.220 C 
HETATM   13  C   UNL     1       6.824  31.563  59.679  1.00  0.00     0.018 A 
HETATM   14  O   UNL     1       6.325  30.454  57.085  1.00  0.00    -0.285 OA
HETATM   15  C   UNL     1       7.213  32.236  60.834  1.00  0.00     0.001 A 
HETATM   16  C   UNL     1       8.567  32.470  61.078  1.00  0.00     0.002 A 
ENDBRANCH   2   5
BRANCH   1  17
HETATM   17  C   UNL     1       7.005  26.578  55.454  1.00  0.00     0.065 A 
HETATM   18  C   UNL     1       6.164  26.632  54.335  1.00  0.00     0.038 A 
HETATM   19  C   UNL     1       5.816  25.466  53.648  1.00  0.00    -0.059 A 
HETATM   20  C   UNL     1       4.901  25.534  52.460  1.00  0.00     0.048 C 
HETATM   21  C   UNL     1       6.290  24.238  54.114  1.00  0.00     0.020 A 
HETATM   22  C   UNL     1       7.134  24.176  55.235  1.00  0.00    -0.005 A 
HETATM   23  C   UNL     1       7.511  25.353  55.917  1.00  0.00     0.093 A 
HETATM   24  C   UNL     1       7.623  22.950  55.707  1.00  0.00     0.015 A 
HETATM   25  N   UNL     1       8.329  25.318  56.997  1.00  0.00    -0.258 NA
HETATM   26  C   UNL     1       8.778  24.116  57.422  1.00  0.00     0.117 A 
HETATM   27  C   UNL     1       8.456  22.917  56.818  1.00  0.00     0.020 A 
ENDBRANCH   1  17
TORSDOF 2
ENDMDL
