MODEL 1
REMARK VINA RESULT:     -10.2      0.000      0.000
REMARK  7 active torsions:
REMARK  status: ('A' for Active; 'I' for Inactive)
REMARK    1  A    between atoms: O_2  and  C_3 
REMARK    2  A    between atoms: C_6  and  C_7 
REMARK    3  A    between atoms: C_11  and  C_12 
REMARK       I    between atoms: C_12  and  N_13 
REMARK    4  A    between atoms: N_13  and  N_14 
REMARK       I    between atoms: N_14  and  C_15 
REMARK    5  A    between atoms: C_15  and  C_16 
REMARK    6  A    between atoms: C_16  and  C_17 
REMARK    7  A    between atoms: C_17  and  C_18 
ROOT
HETATM    1  C   UNL     1       9.061  29.344  57.551  1.00  0.00     0.288 C 
HETATM    2  N   UNL     1       7.947  28.553  57.380  1.00  0.00    -0.262 N 
HETATM    3  O   UNL     1      10.077  29.191  56.875  1.00  0.00    -0.264 OA
HETATM    4  H   UNL     1       7.097  28.635  57.932  1.00  0.00     0.190 HD
ENDROOT
BRANCH   1   5
HETATM    5  C   UNL     1       8.946  30.363  58.556  1.00  0.00     0.121 A 
HETATM    6  N   UNL     1       9.700  31.502  58.519  1.00  0.00    -0.272 N 
HETATM    7  N   UNL     1       9.429  32.374  59.501  1.00  0.00    -0.174 NA
HETATM    8  H   UNL     1      10.406  31.743  57.830  1.00  0.00     0.189 HD
HETATM    9  C   UNL     1       8.469  31.780  60.228  1.00  0.00     0.089 A 
HETATM   10  C   UNL     1       8.149  30.508  59.675  1.00  0.00     0.071 A 
BRANCH   9  11
HETATM   11  C   UNL     1       7.863  32.435  61.391  1.00  0.00    -0.005 A 
HETATM   12  C   UNL     1       6.680  33.175  61.250  1.00  0.00     0.016 A 
HETATM   13  C   UNL     1       6.061  33.764  62.359  1.00  0.00     0.037 A 
HETATM   14  C   UNL     1       6.619  33.626  63.628  1.00  0.00     0.068 A 
HETATM   15  C   UNL     1       7.813  32.915  63.773  1.00  0.00     0.037 A 
HETATM   16  C   UNL     1       8.430  32.321  62.666  1.00  0.00     0.016 A 
BRANCH  14  17
HETATM   17  O   UNL     1       6.112  34.136  64.791  1.00  0.00    -0.356 OA
HETATM   18  C   UNL     1       6.832  33.847  65.982  1.00  0.00     0.210 C 
ENDBRANCH  14  17
ENDBRANCH   9  11
ENDBRANCH   1   5
BRANCH   2  19
HETATM   19  N   UNL     1       7.956  27.562  56.394  1.00  0.00    -0.267 N 
HETATM   20  C   UNL     1       7.981  26.247  56.803  1.00  0.00     0.236 C 
HETATM   21  O   UNL     1       8.051  25.925  57.988  1.00  0.00    -0.272 OA
HETATM   22  H   UNL     1       7.808  27.864  55.433  1.00  0.00     0.190 HD
BRANCH  20  23
HETATM   23  C   UNL     1       7.892  25.234  55.686  1.00  0.00     0.109 C 
BRANCH  23  24
HETATM   24  C   UNL     1       7.029  24.037  56.080  1.00  0.00     0.048 C 
BRANCH  24  25
HETATM   25  C   UNL     1       7.638  22.674  55.821  1.00  0.00    -0.056 A 
HETATM   26  C   UNL     1       7.644  22.178  54.505  1.00  0.00     0.031 A 
HETATM   27  C   UNL     1       8.230  20.945  54.212  1.00  0.00     0.034 A 
HETATM   28 CL   UNL     1       8.223  20.360  52.593  1.00  0.00    -0.084 Cl
HETATM   29  C   UNL     1       8.826  20.190  55.217  1.00  0.00     0.024 A 
HETATM   30  C   UNL     1       8.839  20.675  56.522  1.00  0.00     0.002 A 
HETATM   31  C   UNL     1       8.256  21.911  56.821  1.00  0.00     0.007 A 
ENDBRANCH  24  25
ENDBRANCH  23  24
ENDBRANCH  20  23
ENDBRANCH   2  19
TORSDOF 7
ENDMDL
MODEL 2
REMARK VINA RESULT:     -10.2      1.406      1.769
REMARK  7 active torsions:
REMARK  status: ('A' for Active; 'I' for Inactive)
REMARK    1  A    between atoms: O_2  and  C_3 
REMARK    2  A    between atoms: C_6  and  C_7 
REMARK    3  A    between atoms: C_11  and  C_12 
REMARK       I    between atoms: C_12  and  N_13 
REMARK    4  A    between atoms: N_13  and  N_14 
REMARK       I    between atoms: N_14  and  C_15 
REMARK    5  A    between atoms: C_15  and  C_16 
REMARK    6  A    between atoms: C_16  and  C_17 
REMARK    7  A    between atoms: C_17  and  C_18 
ROOT
HETATM    1  C   UNL     1       9.133  29.304  57.529  1.00  0.00     0.288 C 
HETATM    2  N   UNL     1       8.086  28.413  57.458  1.00  0.00    -0.262 N 
HETATM    3  O   UNL     1      10.104  29.228  56.777  1.00  0.00    -0.264 OA
HETATM    4  H   UNL     1       7.278  28.431  58.075  1.00  0.00     0.190 HD
ENDROOT
BRANCH   1   5
HETATM    5  C   UNL     1       9.004  30.329  58.526  1.00  0.00     0.121 A 
HETATM    6  N   UNL     1       9.677  31.516  58.433  1.00  0.00    -0.272 N 
HETATM    7  N   UNL     1       9.402  32.384  59.416  1.00  0.00    -0.174 NA
HETATM    8  H   UNL     1      10.328  31.791  57.703  1.00  0.00     0.189 HD
HETATM    9  C   UNL     1       8.525  31.740  60.203  1.00  0.00     0.089 A 
HETATM   10  C   UNL     1       8.261  30.440  59.685  1.00  0.00     0.071 A 
BRANCH   9  11
HETATM   11  C   UNL     1       7.939  32.373  61.388  1.00  0.00    -0.005 A 
HETATM   12  C   UNL     1       6.755  33.117  61.282  1.00  0.00     0.016 A 
HETATM   13  C   UNL     1       6.155  33.685  62.412  1.00  0.00     0.037 A 
HETATM   14  C   UNL     1       6.735  33.521  63.669  1.00  0.00     0.068 A 
HETATM   15  C   UNL     1       7.929  32.807  63.779  1.00  0.00     0.037 A 
HETATM   16  C   UNL     1       8.527  32.234  62.651  1.00  0.00     0.016 A 
BRANCH  14  17
HETATM   17  O   UNL     1       6.247  34.010  64.850  1.00  0.00    -0.356 OA
HETATM   18  C   UNL     1       4.938  33.595  65.219  1.00  0.00     0.210 C 
ENDBRANCH  14  17
ENDBRANCH   9  11
ENDBRANCH   1   5
BRANCH   2  19
HETATM   19  N   UNL     1       8.109  27.406  56.490  1.00  0.00    -0.267 N 
HETATM   20  C   UNL     1       7.122  27.413  55.529  1.00  0.00     0.236 C 
HETATM   21  O   UNL     1       6.204  28.231  55.532  1.00  0.00    -0.272 OA
HETATM   22  H   UNL     1       8.930  26.804  56.468  1.00  0.00     0.190 HD
BRANCH  20  23
HETATM   23  C   UNL     1       7.268  26.354  54.462  1.00  0.00     0.109 C 
BRANCH  23  24
HETATM   24  C   UNL     1       6.420  25.122  54.774  1.00  0.00     0.048 C 
BRANCH  24  25
HETATM   25  C   UNL     1       7.067  23.786  54.474  1.00  0.00    -0.056 A 
HETATM   26  C   UNL     1       7.346  22.917  55.544  1.00  0.00     0.031 A 
HETATM   27  C   UNL     1       7.904  21.659  55.312  1.00  0.00     0.034 A 
HETATM   28 CL   UNL     1       8.237  20.615  56.639  1.00  0.00    -0.084 Cl
HETATM   29  C   UNL     1       8.186  21.239  54.016  1.00  0.00     0.024 A 
HETATM   30  C   UNL     1       7.903  22.084  52.945  1.00  0.00     0.002 A 
HETATM   31  C   UNL     1       7.341  23.344  53.172  1.00  0.00     0.007 A 
ENDBRANCH  24  25
ENDBRANCH  23  24
ENDBRANCH  20  23
ENDBRANCH   2  19
TORSDOF 7
ENDMDL
MODEL 3
REMARK VINA RESULT:      -9.8      4.096     11.362
REMARK  7 active torsions:
REMARK  status: ('A' for Active; 'I' for Inactive)
REMARK    1  A    between atoms: O_2  and  C_3 
REMARK    2  A    between atoms: C_6  and  C_7 
REMARK    3  A    between atoms: C_11  and  C_12 
REMARK       I    between atoms: C_12  and  N_13 
REMARK    4  A    between atoms: N_13  and  N_14 
REMARK       I    between atoms: N_14  and  C_15 
REMARK    5  A    between atoms: C_15  and  C_16 
REMARK    6  A    between atoms: C_16  and  C_17 
REMARK    7  A    between atoms: C_17  and  C_18 
ROOT
HETATM    1  C   UNL     1       7.252  29.592  57.220  1.00  0.00     0.288 C 
HETATM    2  N   UNL     1       8.136  29.406  58.261  1.00  0.00    -0.262 N 
HETATM    3  O   UNL     1       6.493  30.558  57.178  1.00  0.00    -0.264 OA
HETATM    4  H   UNL     1       8.763  28.610  58.341  1.00  0.00     0.190 HD
ENDROOT
BRANCH   1   5
HETATM    5  C   UNL     1       7.292  28.591  56.191  1.00  0.00     0.121 A 
HETATM    6  N   UNL     1       7.430  28.919  54.871  1.00  0.00    -0.272 N 
HETATM    7  N   UNL     1       7.506  27.864  54.047  1.00  0.00    -0.174 NA
HETATM    8  H   UNL     1       7.495  29.853  54.479  1.00  0.00     0.189 HD
HETATM    9  C   UNL     1       7.395  26.795  54.851  1.00  0.00     0.089 A 
HETATM   10  C   UNL     1       7.244  27.211  56.205  1.00  0.00     0.071 A 
BRANCH   9  11
HETATM   11  C   UNL     1       7.469  25.427  54.332  1.00  0.00    -0.005 A 
HETATM   12  C   UNL     1       7.856  25.192  53.005  1.00  0.00     0.016 A 
HETATM   13  C   UNL     1       7.981  23.889  52.509  1.00  0.00     0.037 A 
HETATM   14  C   UNL     1       7.716  22.797  53.334  1.00  0.00     0.068 A 
HETATM   15  C   UNL     1       7.302  23.023  54.648  1.00  0.00     0.037 A 
HETATM   16  C   UNL     1       7.182  24.325  55.147  1.00  0.00     0.016 A 
BRANCH  14  17
HETATM   17  O   UNL     1       7.812  21.479  52.981  1.00  0.00    -0.356 OA
HETATM   18  C   UNL     1       8.074  20.556  54.030  1.00  0.00     0.210 C 
ENDBRANCH  14  17
ENDBRANCH   9  11
ENDBRANCH   1   5
BRANCH   2  19
HETATM   19  N   UNL     1       8.193  30.353  59.286  1.00  0.00    -0.267 N 
HETATM   20  C   UNL     1       9.240  31.248  59.278  1.00  0.00     0.236 C 
HETATM   21  O   UNL     1      10.140  31.203  58.443  1.00  0.00    -0.272 OA
HETATM   22  H   UNL     1       7.387  30.414  59.905  1.00  0.00     0.190 HD
BRANCH  20  23
HETATM   23  C   UNL     1       9.182  32.300  60.361  1.00  0.00     0.109 C 
BRANCH  23  24
HETATM   24  C   UNL     1       8.673  31.722  61.680  1.00  0.00     0.048 C 
BRANCH  24  25
HETATM   25  C   UNL     1       7.862  32.666  62.543  1.00  0.00    -0.056 A 
HETATM   26  C   UNL     1       6.898  33.483  61.926  1.00  0.00     0.031 A 
HETATM   27  C   UNL     1       6.099  34.339  62.685  1.00  0.00     0.034 A 
HETATM   28 CL   UNL     1       4.927  35.330  61.905  1.00  0.00    -0.084 Cl
HETATM   29  C   UNL     1       6.237  34.392  64.069  1.00  0.00     0.024 A 
HETATM   30  C   UNL     1       7.178  33.579  64.695  1.00  0.00     0.002 A 
HETATM   31  C   UNL     1       7.980  32.717  63.939  1.00  0.00     0.007 A 
ENDBRANCH  24  25
ENDBRANCH  23  24
ENDBRANCH  20  23
ENDBRANCH   2  19
TORSDOF 7
ENDMDL
MODEL 4
REMARK VINA RESULT:      -9.8      1.983      2.903
REMARK  7 active torsions:
REMARK  status: ('A' for Active; 'I' for Inactive)
REMARK    1  A    between atoms: O_2  and  C_3 
REMARK    2  A    between atoms: C_6  and  C_7 
REMARK    3  A    between atoms: C_11  and  C_12 
REMARK       I    between atoms: C_12  and  N_13 
REMARK    4  A    between atoms: N_13  and  N_14 
REMARK       I    between atoms: N_14  and  C_15 
REMARK    5  A    between atoms: C_15  and  C_16 
REMARK    6  A    between atoms: C_16  and  C_17 
REMARK    7  A    between atoms: C_17  and  C_18 
ROOT
HETATM    1  C   UNL     1       8.224  30.638  58.992  1.00  0.00     0.288 C 
HETATM    2  N   UNL     1       7.285  29.810  58.418  1.00  0.00    -0.262 N 
HETATM    3  O   UNL     1       9.184  31.071  58.356  1.00  0.00    -0.264 OA
HETATM    4  H   UNL     1       6.491  29.416  58.916  1.00  0.00     0.190 HD
ENDROOT
BRANCH   1   5
HETATM    5  C   UNL     1       7.996  30.968  60.370  1.00  0.00     0.121 A 
HETATM    6  N   UNL     1       8.672  30.345  61.383  1.00  0.00    -0.272 N 
HETATM    7  N   UNL     1       8.382  30.810  62.606  1.00  0.00    -0.174 NA
HETATM    8  H   UNL     1       9.360  29.604  61.290  1.00  0.00     0.189 HD
HETATM    9  C   UNL     1       7.463  31.767  62.397  1.00  0.00     0.089 A 
HETATM   10  C   UNL     1       7.183  31.885  61.006  1.00  0.00     0.071 A 
BRANCH   9  11
HETATM   11  C   UNL     1       6.906  32.557  63.499  1.00  0.00    -0.005 A 
HETATM   12  C   UNL     1       5.518  32.640  63.681  1.00  0.00     0.016 A 
HETATM   13  C   UNL     1       4.972  33.349  64.757  1.00  0.00     0.037 A 
HETATM   14  C   UNL     1       5.808  33.991  65.669  1.00  0.00     0.068 A 
HETATM   15  C   UNL     1       7.190  33.937  65.479  1.00  0.00     0.037 A 
HETATM   16  C   UNL     1       7.738  33.225  64.406  1.00  0.00     0.016 A 
BRANCH  14  17
HETATM   17  O   UNL     1       5.407  34.702  66.766  1.00  0.00    -0.356 OA
HETATM   18  C   UNL     1       4.210  34.271  67.402  1.00  0.00     0.210 C 
ENDBRANCH  14  17
ENDBRANCH   9  11
ENDBRANCH   1   5
BRANCH   2  19
HETATM   19  N   UNL     1       7.406  29.470  57.068  1.00  0.00    -0.267 N 
HETATM   20  C   UNL     1       7.920  28.230  56.760  1.00  0.00     0.236 C 
HETATM   21  O   UNL     1       8.321  27.449  57.621  1.00  0.00    -0.272 OA
HETATM   22  H   UNL     1       6.983  30.103  56.392  1.00  0.00     0.190 HD
BRANCH  20  23
HETATM   23  C   UNL     1       7.930  27.897  55.286  1.00  0.00     0.109 C 
BRANCH  23  24
HETATM   24  C   UNL     1       6.806  26.930  54.921  1.00  0.00     0.048 C 
BRANCH  24  25
HETATM   25  C   UNL     1       7.239  25.636  54.263  1.00  0.00    -0.056 A 
HETATM   26  C   UNL     1       7.245  24.459  55.031  1.00  0.00     0.031 A 
HETATM   27  C   UNL     1       7.598  23.236  54.457  1.00  0.00     0.034 A 
HETATM   28 CL   UNL     1       7.599  21.809  55.420  1.00  0.00    -0.084 Cl
HETATM   29  C   UNL     1       7.940  23.161  53.110  1.00  0.00     0.024 A 
HETATM   30  C   UNL     1       7.924  24.317  52.334  1.00  0.00     0.002 A 
HETATM   31  C   UNL     1       7.569  25.544  52.903  1.00  0.00     0.007 A 
ENDBRANCH  24  25
ENDBRANCH  23  24
ENDBRANCH  20  23
ENDBRANCH   2  19
TORSDOF 7
ENDMDL
MODEL 5
REMARK VINA RESULT:      -9.5      2.088      2.855
REMARK  7 active torsions:
REMARK  status: ('A' for Active; 'I' for Inactive)
REMARK    1  A    between atoms: O_2  and  C_3 
REMARK    2  A    between atoms: C_6  and  C_7 
REMARK    3  A    between atoms: C_11  and  C_12 
REMARK       I    between atoms: C_12  and  N_13 
REMARK    4  A    between atoms: N_13  and  N_14 
REMARK       I    between atoms: N_14  and  C_15 
REMARK    5  A    between atoms: C_15  and  C_16 
REMARK    6  A    between atoms: C_16  and  C_17 
REMARK    7  A    between atoms: C_17  and  C_18 
ROOT
HETATM    1  C   UNL     1       7.977  28.607  55.600  1.00  0.00     0.288 C 
HETATM    2  N   UNL     1       7.221  27.457  55.548  1.00  0.00    -0.262 N 
HETATM    3  O   UNL     1       8.814  28.874  54.739  1.00  0.00    -0.264 OA
HETATM    4  H   UNL     1       6.535  27.193  56.252  1.00  0.00     0.190 HD
ENDROOT
BRANCH   1   5
HETATM    5  C   UNL     1       7.711  29.471  56.716  1.00  0.00     0.121 A 
HETATM    6  N   UNL     1       6.634  30.312  56.736  1.00  0.00    -0.272 N 
HETATM    7  N   UNL     1       6.499  31.008  57.874  1.00  0.00    -0.174 NA
HETATM    8  H   UNL     1       5.945  30.438  56.001  1.00  0.00     0.189 HD
HETATM    9  C   UNL     1       7.540  30.626  58.631  1.00  0.00     0.089 A 
HETATM   10  C   UNL     1       8.333  29.672  57.932  1.00  0.00     0.071 A 
BRANCH   9  11
HETATM   11  C   UNL     1       7.737  31.138  59.990  1.00  0.00    -0.005 A 
HETATM   12  C   UNL     1       8.947  30.915  60.663  1.00  0.00     0.016 A 
HETATM   13  C   UNL     1       9.170  31.441  61.941  1.00  0.00     0.037 A 
HETATM   14  C   UNL     1       8.182  32.197  62.569  1.00  0.00     0.068 A 
HETATM   15  C   UNL     1       6.963  32.400  61.918  1.00  0.00     0.037 A 
HETATM   16  C   UNL     1       6.741  31.879  60.638  1.00  0.00     0.016 A 
BRANCH  14  17
HETATM   17  O   UNL     1       8.275  32.777  63.805  1.00  0.00    -0.356 OA
HETATM   18  C   UNL     1       7.206  33.632  64.190  1.00  0.00     0.210 C 
ENDBRANCH  14  17
ENDBRANCH   9  11
ENDBRANCH   1   5
BRANCH   2  19
HETATM   19  N   UNL     1       7.385  26.578  54.475  1.00  0.00    -0.267 N 
HETATM   20  C   UNL     1       6.330  25.756  54.148  1.00  0.00     0.236 C 
HETATM   21  O   UNL     1       5.286  25.732  54.797  1.00  0.00    -0.272 OA
HETATM   22  H   UNL     1       8.225  26.690  53.910  1.00  0.00     0.190 HD
BRANCH  20  23
HETATM   23  C   UNL     1       6.547  24.904  52.920  1.00  0.00     0.109 C 
BRANCH  23  24
HETATM   24  C   UNL     1       7.943  24.285  52.904  1.00  0.00     0.048 C 
BRANCH  24  25
HETATM   25  C   UNL     1       8.053  22.895  53.496  1.00  0.00    -0.056 A 
HETATM   26  C   UNL     1       8.191  22.765  54.889  1.00  0.00     0.031 A 
HETATM   27  C   UNL     1       8.255  21.503  55.483  1.00  0.00     0.034 A 
HETATM   28 CL   UNL     1       8.425  21.371  57.191  1.00  0.00    -0.084 Cl
HETATM   29  C   UNL     1       8.175  20.352  54.706  1.00  0.00     0.024 A 
HETATM   30  C   UNL     1       8.025  20.466  53.326  1.00  0.00     0.002 A 
HETATM   31  C   UNL     1       7.957  21.728  52.726  1.00  0.00     0.007 A 
ENDBRANCH  24  25
ENDBRANCH  23  24
ENDBRANCH  20  23
ENDBRANCH   2  19
TORSDOF 7
ENDMDL
MODEL 6
REMARK VINA RESULT:      -9.2      3.740     11.182
REMARK  7 active torsions:
REMARK  status: ('A' for Active; 'I' for Inactive)
REMARK    1  A    between atoms: O_2  and  C_3 
REMARK    2  A    between atoms: C_6  and  C_7 
REMARK    3  A    between atoms: C_11  and  C_12 
REMARK       I    between atoms: C_12  and  N_13 
REMARK    4  A    between atoms: N_13  and  N_14 
REMARK       I    between atoms: N_14  and  C_15 
REMARK    5  A    between atoms: C_15  and  C_16 
REMARK    6  A    between atoms: C_16  and  C_17 
REMARK    7  A    between atoms: C_17  and  C_18 
ROOT
HETATM    1  C   UNL     1       8.250  29.665  57.641  1.00  0.00     0.288 C 
HETATM    2  N   UNL     1       7.326  30.013  58.602  1.00  0.00    -0.262 N 
HETATM    3  O   UNL     1       9.248  30.349  57.420  1.00  0.00    -0.264 OA
HETATM    4  H   UNL     1       6.480  29.485  58.798  1.00  0.00     0.190 HD
ENDROOT
BRANCH   1   5
HETATM    5  C   UNL     1       7.973  28.448  56.931  1.00  0.00     0.121 A 
HETATM    6  N   UNL     1       7.437  28.451  55.673  1.00  0.00    -0.272 N 
HETATM    7  N   UNL     1       7.294  27.233  55.132  1.00  0.00    -0.174 NA
HETATM    8  H   UNL     1       7.166  29.265  55.129  1.00  0.00     0.189 HD
HETATM    9  C   UNL     1       7.735  26.387  56.077  1.00  0.00     0.089 A 
HETATM   10  C   UNL     1       8.156  27.112  57.228  1.00  0.00     0.071 A 
BRANCH   9  11
HETATM   11  C   UNL     1       7.780  24.939  55.857  1.00  0.00    -0.005 A 
HETATM   12  C   UNL     1       8.266  24.085  56.858  1.00  0.00     0.016 A 
HETATM   13  C   UNL     1       8.268  22.696  56.684  1.00  0.00     0.037 A 
HETATM   14  C   UNL     1       7.787  22.138  55.501  1.00  0.00     0.068 A 
HETATM   15  C   UNL     1       7.328  22.983  54.488  1.00  0.00     0.037 A 
HETATM   16  C   UNL     1       7.320  24.371  54.663  1.00  0.00     0.016 A 
BRANCH  14  17
HETATM   17  O   UNL     1       7.720  20.804  55.210  1.00  0.00    -0.356 OA
HETATM   18  C   UNL     1       8.843  20.013  55.581  1.00  0.00     0.210 C 
ENDBRANCH  14  17
ENDBRANCH   9  11
ENDBRANCH   1   5
BRANCH   2  19
HETATM   19  N   UNL     1       7.537  31.162  59.369  1.00  0.00    -0.267 N 
HETATM   20  C   UNL     1       8.307  31.045  60.505  1.00  0.00     0.236 C 
HETATM   21  O   UNL     1       8.758  29.967  60.889  1.00  0.00    -0.272 OA
HETATM   22  H   UNL     1       7.224  32.046  58.973  1.00  0.00     0.190 HD
BRANCH  20  23
HETATM   23  C   UNL     1       8.570  32.345  61.229  1.00  0.00     0.109 C 
BRANCH  23  24
HETATM   24  C   UNL     1       8.553  32.158  62.744  1.00  0.00     0.048 C 
BRANCH  24  25
HETATM   25  C   UNL     1       7.381  32.784  63.471  1.00  0.00    -0.056 A 
HETATM   26  C   UNL     1       6.130  32.819  62.829  1.00  0.00     0.031 A 
HETATM   27  C   UNL     1       5.013  33.350  63.475  1.00  0.00     0.034 A 
HETATM   28 CL   UNL     1       3.494  33.382  62.666  1.00  0.00    -0.084 Cl
HETATM   29  C   UNL     1       5.116  33.846  64.771  1.00  0.00     0.024 A 
HETATM   30  C   UNL     1       6.345  33.805  65.424  1.00  0.00     0.002 A 
HETATM   31  C   UNL     1       7.467  33.272  64.782  1.00  0.00     0.007 A 
ENDBRANCH  24  25
ENDBRANCH  23  24
ENDBRANCH  20  23
ENDBRANCH   2  19
TORSDOF 7
ENDMDL
MODEL 7
REMARK VINA RESULT:      -9.0      9.235     12.755
REMARK  7 active torsions:
REMARK  status: ('A' for Active; 'I' for Inactive)
REMARK    1  A    between atoms: O_2  and  C_3 
REMARK    2  A    between atoms: C_6  and  C_7 
REMARK    3  A    between atoms: C_11  and  C_12 
REMARK       I    between atoms: C_12  and  N_13 
REMARK    4  A    between atoms: N_13  and  N_14 
REMARK       I    between atoms: N_14  and  C_15 
REMARK    5  A    between atoms: C_15  and  C_16 
REMARK    6  A    between atoms: C_16  and  C_17 
REMARK    7  A    between atoms: C_17  and  C_18 
ROOT
HETATM    1  C   UNL     1       4.685  27.285  49.929  1.00  0.00     0.288 C 
HETATM    2  N   UNL     1       4.732  26.188  50.760  1.00  0.00    -0.262 N 
HETATM    3  O   UNL     1       5.521  28.186  49.993  1.00  0.00    -0.264 OA
HETATM    4  H   UNL     1       4.048  25.435  50.751  1.00  0.00     0.190 HD
ENDROOT
BRANCH   1   5
HETATM    5  C   UNL     1       3.607  27.296  48.981  1.00  0.00     0.121 A 
HETATM    6  N   UNL     1       2.915  26.161  48.662  1.00  0.00    -0.272 N 
HETATM    7  N   UNL     1       1.904  26.355  47.803  1.00  0.00    -0.174 NA
HETATM    8  H   UNL     1       3.083  25.225  49.018  1.00  0.00     0.189 HD
HETATM    9  C   UNL     1       1.939  27.668  47.528  1.00  0.00     0.089 A 
HETATM   10  C   UNL     1       3.005  28.291  48.237  1.00  0.00     0.071 A 
BRANCH   9  11
HETATM   11  C   UNL     1       0.957  28.299  46.642  1.00  0.00    -0.005 A 
HETATM   12  C   UNL     1       0.959  29.689  46.455  1.00  0.00     0.016 A 
HETATM   13  C   UNL     1       0.061  30.301  45.573  1.00  0.00     0.037 A 
HETATM   14  C   UNL     1      -0.859  29.530  44.865  1.00  0.00     0.068 A 
HETATM   15  C   UNL     1      -0.887  28.149  45.066  1.00  0.00     0.037 A 
HETATM   16  C   UNL     1       0.013  27.535  45.943  1.00  0.00     0.016 A 
BRANCH  14  17
HETATM   17  O   UNL     1      -1.778  29.998  43.966  1.00  0.00    -0.356 OA
HETATM   18  C   UNL     1      -1.432  29.898  42.590  1.00  0.00     0.210 C 
ENDBRANCH  14  17
ENDBRANCH   9  11
ENDBRANCH   1   5
BRANCH   2  19
HETATM   19  N   UNL     1       5.772  26.076  51.687  1.00  0.00    -0.267 N 
HETATM   20  C   UNL     1       5.566  25.281  52.792  1.00  0.00     0.236 C 
HETATM   21  O   UNL     1       4.493  24.722  53.013  1.00  0.00    -0.272 OA
HETATM   22  H   UNL     1       6.670  26.479  51.425  1.00  0.00     0.190 HD
BRANCH  20  23
HETATM   23  C   UNL     1       6.766  25.131  53.698  1.00  0.00     0.109 C 
BRANCH  23  24
HETATM   24  C   UNL     1       7.858  24.283  53.048  1.00  0.00     0.048 C 
BRANCH  24  25
HETATM   25  C   UNL     1       8.008  22.877  53.591  1.00  0.00    -0.056 A 
HETATM   26  C   UNL     1       8.121  22.700  54.981  1.00  0.00     0.031 A 
HETATM   27  C   UNL     1       8.220  21.420  55.530  1.00  0.00     0.034 A 
HETATM   28 CL   UNL     1       8.359  21.231  57.235  1.00  0.00    -0.084 Cl
HETATM   29  C   UNL     1       8.201  20.297  54.710  1.00  0.00     0.024 A 
HETATM   30  C   UNL     1       8.076  20.456  53.332  1.00  0.00     0.002 A 
HETATM   31  C   UNL     1       7.973  21.736  52.777  1.00  0.00     0.007 A 
ENDBRANCH  24  25
ENDBRANCH  23  24
ENDBRANCH  20  23
ENDBRANCH   2  19
TORSDOF 7
ENDMDL
MODEL 8
REMARK VINA RESULT:      -8.6      2.847      4.287
REMARK  7 active torsions:
REMARK  status: ('A' for Active; 'I' for Inactive)
REMARK    1  A    between atoms: O_2  and  C_3 
REMARK    2  A    between atoms: C_6  and  C_7 
REMARK    3  A    between atoms: C_11  and  C_12 
REMARK       I    between atoms: C_12  and  N_13 
REMARK    4  A    between atoms: N_13  and  N_14 
REMARK       I    between atoms: N_14  and  C_15 
REMARK    5  A    between atoms: C_15  and  C_16 
REMARK    6  A    between atoms: C_16  and  C_17 
REMARK    7  A    between atoms: C_17  and  C_18 
ROOT
HETATM    1  C   UNL     1       5.715  31.987  59.390  1.00  0.00     0.288 C 
HETATM    2  N   UNL     1       6.841  31.214  59.213  1.00  0.00    -0.262 N 
HETATM    3  O   UNL     1       5.037  32.375  58.439  1.00  0.00    -0.264 OA
HETATM    4  H   UNL     1       7.437  30.892  59.971  1.00  0.00     0.190 HD
ENDROOT
BRANCH   1   5
HETATM    5  C   UNL     1       5.384  32.293  60.753  1.00  0.00     0.121 A 
HETATM    6  N   UNL     1       4.222  31.859  61.328  1.00  0.00    -0.272 N 
HETATM    7  N   UNL     1       4.094  32.184  62.623  1.00  0.00    -0.174 NA
HETATM    8  H   UNL     1       3.487  31.319  60.883  1.00  0.00     0.189 HD
HETATM    9  C   UNL     1       5.208  32.876  62.912  1.00  0.00     0.089 A 
HETATM   10  C   UNL     1       6.036  32.979  61.758  1.00  0.00     0.071 A 
BRANCH   9  11
HETATM   11  C   UNL     1       5.473  33.386  64.260  1.00  0.00    -0.005 A 
HETATM   12  C   UNL     1       4.414  33.780  65.090  1.00  0.00     0.016 A 
HETATM   13  C   UNL     1       4.647  34.221  66.398  1.00  0.00     0.037 A 
HETATM   14  C   UNL     1       5.947  34.278  66.896  1.00  0.00     0.068 A 
HETATM   15  C   UNL     1       7.010  33.914  66.067  1.00  0.00     0.037 A 
HETATM   16  C   UNL     1       6.778  33.468  64.761  1.00  0.00     0.016 A 
BRANCH  14  17
HETATM   17  O   UNL     1       6.310  34.674  68.154  1.00  0.00    -0.356 OA
HETATM   18  C   UNL     1       5.786  33.915  69.237  1.00  0.00     0.210 C 
ENDBRANCH  14  17
ENDBRANCH   9  11
ENDBRANCH   1   5
BRANCH   2  19
HETATM   19  N   UNL     1       7.214  30.834  57.921  1.00  0.00    -0.267 N 
HETATM   20  C   UNL     1       7.866  29.631  57.767  1.00  0.00     0.236 C 
HETATM   21  O   UNL     1       8.174  28.919  58.721  1.00  0.00    -0.272 OA
HETATM   22  H   UNL     1       6.865  31.403  57.153  1.00  0.00     0.190 HD
BRANCH  20  23
HETATM   23  C   UNL     1       8.151  29.244  56.334  1.00  0.00     0.109 C 
BRANCH  23  24
HETATM   24  C   UNL     1       6.980  28.484  55.713  1.00  0.00     0.048 C 
BRANCH  24  25
HETATM   25  C   UNL     1       7.245  27.032  55.374  1.00  0.00    -0.056 A 
HETATM   26  C   UNL     1       7.404  26.674  54.023  1.00  0.00     0.031 A 
HETATM   27  C   UNL     1       7.689  25.355  53.665  1.00  0.00     0.034 A 
HETATM   28 CL   UNL     1       7.878  24.943  52.005  1.00  0.00    -0.084 Cl
HETATM   29  C   UNL     1       7.830  24.373  54.641  1.00  0.00     0.024 A 
HETATM   30  C   UNL     1       7.689  24.716  55.983  1.00  0.00     0.002 A 
HETATM   31  C   UNL     1       7.406  26.037  56.348  1.00  0.00     0.007 A 
ENDBRANCH  24  25
ENDBRANCH  23  24
ENDBRANCH  20  23
ENDBRANCH   2  19
TORSDOF 7
ENDMDL
MODEL 9
REMARK VINA RESULT:      -8.6      2.131      2.656
REMARK  7 active torsions:
REMARK  status: ('A' for Active; 'I' for Inactive)
REMARK    1  A    between atoms: O_2  and  C_3 
REMARK    2  A    between atoms: C_6  and  C_7 
REMARK    3  A    between atoms: C_11  and  C_12 
REMARK       I    between atoms: C_12  and  N_13 
REMARK    4  A    between atoms: N_13  and  N_14 
REMARK       I    between atoms: N_14  and  C_15 
REMARK    5  A    between atoms: C_15  and  C_16 
REMARK    6  A    between atoms: C_16  and  C_17 
REMARK    7  A    between atoms: C_17  and  C_18 
ROOT
HETATM    1  C   UNL     1       6.141  31.410  57.831  1.00  0.00     0.288 C 
HETATM    2  N   UNL     1       6.962  30.306  57.901  1.00  0.00    -0.262 N 
HETATM    3  O   UNL     1       5.555  31.720  56.795  1.00  0.00    -0.264 OA
HETATM    4  H   UNL     1       7.479  30.031  58.732  1.00  0.00     0.190 HD
ENDROOT
BRANCH   1   5
HETATM    5  C   UNL     1       6.009  32.158  59.050  1.00  0.00     0.121 A 
HETATM    6  N   UNL     1       5.055  33.124  59.204  1.00  0.00    -0.272 N 
HETATM    7  N   UNL     1       5.032  33.687  60.420  1.00  0.00    -0.174 NA
HETATM    8  H   UNL     1       4.377  33.428  58.510  1.00  0.00     0.189 HD
HETATM    9  C   UNL     1       6.024  33.083  61.094  1.00  0.00     0.089 A 
HETATM   10  C   UNL     1       6.671  32.126  60.261  1.00  0.00     0.071 A 
BRANCH   9  11
HETATM   11  C   UNL     1       6.307  33.394  62.497  1.00  0.00    -0.005 A 
HETATM   12  C   UNL     1       5.534  34.343  63.183  1.00  0.00     0.016 A 
HETATM   13  C   UNL     1       5.759  34.615  64.537  1.00  0.00     0.037 A 
HETATM   14  C   UNL     1       6.766  33.944  65.228  1.00  0.00     0.068 A 
HETATM   15  C   UNL     1       7.559  33.019  64.546  1.00  0.00     0.037 A 
HETATM   16  C   UNL     1       7.332  32.742  63.193  1.00  0.00     0.016 A 
BRANCH  14  17
HETATM   17  O   UNL     1       7.080  34.104  66.550  1.00  0.00    -0.356 OA
HETATM   18  C   UNL     1       6.000  34.383  67.432  1.00  0.00     0.210 C 
ENDBRANCH  14  17
ENDBRANCH   9  11
ENDBRANCH   1   5
BRANCH   2  19
HETATM   19  N   UNL     1       7.116  29.497  56.772  1.00  0.00    -0.267 N 
HETATM   20  C   UNL     1       7.518  28.194  56.964  1.00  0.00     0.236 C 
HETATM   21  O   UNL     1       7.795  27.745  58.075  1.00  0.00    -0.272 OA
HETATM   22  H   UNL     1       6.794  29.875  55.884  1.00  0.00     0.190 HD
BRANCH  20  23
HETATM   23  C   UNL     1       7.569  27.354  55.709  1.00  0.00     0.109 C 
BRANCH  23  24
HETATM   24  C   UNL     1       6.580  26.192  55.769  1.00  0.00     0.048 C 
BRANCH  24  25
HETATM   25  C   UNL     1       7.191  24.807  55.767  1.00  0.00    -0.056 A 
HETATM   26  C   UNL     1       7.212  24.081  54.563  1.00  0.00     0.031 A 
HETATM   27  C   UNL     1       7.801  22.817  54.504  1.00  0.00     0.034 A 
HETATM   28 CL   UNL     1       7.812  21.949  53.017  1.00  0.00    -0.084 Cl
HETATM   29  C   UNL     1       8.387  22.257  55.635  1.00  0.00     0.024 A 
HETATM   30  C   UNL     1       8.386  22.971  56.831  1.00  0.00     0.002 A 
HETATM   31  C   UNL     1       7.800  24.239  56.895  1.00  0.00     0.007 A 
ENDBRANCH  24  25
ENDBRANCH  23  24
ENDBRANCH  20  23
ENDBRANCH   2  19
TORSDOF 7
ENDMDL
MODEL 10
REMARK VINA RESULT:      -8.6      3.919      4.456
REMARK  7 active torsions:
REMARK  status: ('A' for Active; 'I' for Inactive)
REMARK    1  A    between atoms: O_2  and  C_3 
REMARK    2  A    between atoms: C_6  and  C_7 
REMARK    3  A    between atoms: C_11  and  C_12 
REMARK       I    between atoms: C_12  and  N_13 
REMARK    4  A    between atoms: N_13  and  N_14 
REMARK       I    between atoms: N_14  and  C_15 
REMARK    5  A    between atoms: C_15  and  C_16 
REMARK    6  A    between atoms: C_16  and  C_17 
REMARK    7  A    between atoms: C_17  and  C_18 
ROOT
HETATM    1  C   UNL     1       5.420  28.034  56.251  1.00  0.00     0.288 C 
HETATM    2  N   UNL     1       4.586  27.173  55.574  1.00  0.00    -0.262 N 
HETATM    3  O   UNL     1       6.627  27.819  56.359  1.00  0.00    -0.264 OA
HETATM    4  H   UNL     1       3.582  27.306  55.481  1.00  0.00     0.190 HD
ENDROOT
BRANCH   1   5
HETATM    5  C   UNL     1       4.788  29.198  56.804  1.00  0.00     0.121 A 
HETATM    6  N   UNL     1       3.448  29.427  56.664  1.00  0.00    -0.272 N 
HETATM    7  N   UNL     1       3.009  30.530  57.288  1.00  0.00    -0.174 NA
HETATM    8  H   UNL     1       2.780  28.849  56.164  1.00  0.00     0.189 HD
HETATM    9  C   UNL     1       4.106  31.063  57.849  1.00  0.00     0.089 A 
HETATM   10  C   UNL     1       5.247  30.263  57.555  1.00  0.00     0.071 A 
BRANCH   9  11
HETATM   11  C   UNL     1       4.044  32.277  58.667  1.00  0.00    -0.005 A 
HETATM   12  C   UNL     1       4.366  33.524  58.110  1.00  0.00     0.016 A 
HETATM   13  C   UNL     1       4.263  34.700  58.862  1.00  0.00     0.037 A 
HETATM   14  C   UNL     1       3.839  34.647  60.188  1.00  0.00     0.068 A 
HETATM   15  C   UNL     1       3.543  33.407  60.759  1.00  0.00     0.037 A 
HETATM   16  C   UNL     1       3.641  32.231  60.007  1.00  0.00     0.016 A 
BRANCH  14  17
HETATM   17  O   UNL     1       3.682  35.716  61.027  1.00  0.00    -0.356 OA
HETATM   18  C   UNL     1       2.744  36.707  60.626  1.00  0.00     0.210 C 
ENDBRANCH  14  17
ENDBRANCH   9  11
ENDBRANCH   1   5
BRANCH   2  19
HETATM   19  N   UNL     1       5.124  26.034  54.968  1.00  0.00    -0.267 N 
HETATM   20  C   UNL     1       5.116  25.972  53.592  1.00  0.00     0.236 C 
HETATM   21  O   UNL     1       4.607  26.848  52.895  1.00  0.00    -0.272 OA
HETATM   22  H   UNL     1       5.612  25.376  55.572  1.00  0.00     0.190 HD
BRANCH  20  23
HETATM   23  C   UNL     1       5.800  24.758  53.009  1.00  0.00     0.109 C 
BRANCH  23  24
HETATM   24  C   UNL     1       7.201  24.570  53.587  1.00  0.00     0.048 C 
BRANCH  24  25
HETATM   25  C   UNL     1       7.608  23.139  53.873  1.00  0.00    -0.056 A 
HETATM   26  C   UNL     1       7.771  22.740  55.212  1.00  0.00     0.031 A 
HETATM   27  C   UNL     1       8.105  21.422  55.526  1.00  0.00     0.034 A 
HETATM   28 CL   UNL     1       8.300  20.959  57.172  1.00  0.00    -0.084 Cl
HETATM   29  C   UNL     1       8.274  20.477  54.518  1.00  0.00     0.024 A 
HETATM   30  C   UNL     1       8.103  20.855  53.189  1.00  0.00     0.002 A 
HETATM   31  C   UNL     1       7.765  22.174  52.869  1.00  0.00     0.007 A 
ENDBRANCH  24  25
ENDBRANCH  23  24
ENDBRANCH  20  23
ENDBRANCH   2  19
TORSDOF 7
ENDMDL
