MODEL 1
REMARK VINA RESULT:      -7.9      0.000      0.000
REMARK  4 active torsions:
REMARK  status: ('A' for Active; 'I' for Inactive)
REMARK    1  A    between atoms: C_2  and  N_3 
REMARK       I    between atoms: N_3  and  C_4 
REMARK    2  A    between atoms: C_4  and  C_5 
REMARK    3  A    between atoms: C_5  and  N_6 
REMARK    4  A    between atoms: N_6  and  C_7 
ROOT
HETATM    1  C   UNL     1       7.092  25.569  53.696  1.00  0.00     0.022 A 
HETATM    2  C   UNL     1       7.522  24.220  53.895  1.00  0.00     0.012 A 
HETATM    3  C   UNL     1       7.925  23.816  55.197  1.00  0.00     0.045 A 
HETATM    4  C   UNL     1       8.312  22.495  55.466  1.00  0.00     0.054 A 
HETATM    5  C   UNL     1       8.318  21.553  54.443  1.00  0.00     0.036 A 
HETATM    6 CL   UNL     1       8.785  19.936  54.781  1.00  0.00    -0.084 Cl
HETATM    7  C   UNL     1       7.956  21.917  53.153  1.00  0.00     0.025 A 
HETATM    8  C   UNL     1       7.567  23.233  52.881  1.00  0.00     0.017 A 
HETATM    9  N   UNL     1       7.939  24.722  56.192  1.00  0.00    -0.365 N 
HETATM   10  H   UNL     1       8.236  24.423  57.122  1.00  0.00     0.165 HD
HETATM   11  C   UNL     1       7.604  26.003  56.019  1.00  0.00     0.090 A 
HETATM   12  C   UNL     1       7.188  26.453  54.777  1.00  0.00     0.041 A 
ENDROOT
BRANCH   1  13
HETATM   13  N   UNL     1       6.719  26.023  52.414  1.00  0.00    -0.283 NA
HETATM   14  H   UNL     1       7.150  25.476  51.671  1.00  0.00     0.128 HD
BRANCH  13  15
HETATM   15  C   UNL     1       5.275  26.183  52.101  1.00  0.00     0.195 C 
BRANCH  15  16
HETATM   16  C   UNL     1       5.025  26.768  50.708  1.00  0.00     0.231 C 
HETATM   17  N   UNL     1       4.262  25.964  49.892  1.00  0.00    -0.352 N 
HETATM   18  H   UNL     1       4.050  25.041  50.260  1.00  0.00     0.163 HD
HETATM   19  O   UNL     1       5.464  27.870  50.391  1.00  0.00    -0.272 OA
BRANCH  17  20
HETATM   20  C   UNL     1       3.771  26.326  48.554  1.00  0.00     0.022 C 
HETATM   21  C   UNL     1       4.931  26.708  47.622  1.00  0.00     0.037 C 
HETATM   22  C   UNL     1       2.765  27.485  48.646  1.00  0.00     0.037 C 
HETATM   23  C   UNL     1       3.052  25.103  47.959  1.00  0.00     0.037 C 
ENDBRANCH  17  20
ENDBRANCH  15  16
ENDBRANCH  13  15
ENDBRANCH   1  13
TORSDOF 4
ENDMDL
MODEL 2
REMARK VINA RESULT:      -7.6      4.833      8.449
REMARK  4 active torsions:
REMARK  status: ('A' for Active; 'I' for Inactive)
REMARK    1  A    between atoms: C_2  and  N_3 
REMARK       I    between atoms: N_3  and  C_4 
REMARK    2  A    between atoms: C_4  and  C_5 
REMARK    3  A    between atoms: C_5  and  N_6 
REMARK    4  A    between atoms: N_6  and  C_7 
ROOT
HETATM    1  C   UNL     1       7.630  27.231  56.599  1.00  0.00     0.022 A 
HETATM    2  C   UNL     1       7.776  25.816  56.467  1.00  0.00     0.012 A 
HETATM    3  C   UNL     1       7.272  25.182  55.299  1.00  0.00     0.045 A 
HETATM    4  C   UNL     1       7.426  23.804  55.089  1.00  0.00     0.054 A 
HETATM    5  C   UNL     1       8.072  23.026  56.044  1.00  0.00     0.036 A 
HETATM    6 CL   UNL     1       8.264  21.341  55.778  1.00  0.00    -0.084 Cl
HETATM    7  C   UNL     1       8.555  23.605  57.210  1.00  0.00     0.025 A 
HETATM    8  C   UNL     1       8.406  24.980  57.422  1.00  0.00     0.017 A 
HETATM    9  N   UNL     1       6.630  25.920  54.375  1.00  0.00    -0.365 N 
HETATM   10  H   UNL     1       6.266  25.455  53.542  1.00  0.00     0.165 HD
HETATM   11  C   UNL     1       6.424  27.234  54.504  1.00  0.00     0.090 A 
HETATM   12  C   UNL     1       6.905  27.910  55.612  1.00  0.00     0.041 A 
ENDROOT
BRANCH   1  13
HETATM   13  N   UNL     1       8.081  27.896  57.758  1.00  0.00    -0.283 NA
HETATM   14  H   UNL     1       9.098  27.937  57.808  1.00  0.00     0.128 HD
BRANCH  13  15
HETATM   15  C   UNL     1       7.543  29.246  58.069  1.00  0.00     0.195 C 
BRANCH  15  16
HETATM   16  C   UNL     1       8.447  30.051  59.006  1.00  0.00     0.231 C 
HETATM   17  N   UNL     1       7.824  30.470  60.160  1.00  0.00    -0.352 N 
HETATM   18  H   UNL     1       6.823  30.298  60.206  1.00  0.00     0.163 HD
HETATM   19  O   UNL     1       9.623  30.265  58.729  1.00  0.00    -0.272 OA
BRANCH  17  20
HETATM   20  C   UNL     1       8.480  31.154  61.284  1.00  0.00     0.022 C 
HETATM   21  C   UNL     1       9.214  32.419  60.812  1.00  0.00     0.037 C 
HETATM   22  C   UNL     1       9.464  30.207  61.990  1.00  0.00     0.037 C 
HETATM   23  C   UNL     1       7.395  31.571  62.293  1.00  0.00     0.037 C 
ENDBRANCH  17  20
ENDBRANCH  15  16
ENDBRANCH  13  15
ENDBRANCH   1  13
TORSDOF 4
ENDMDL
MODEL 3
REMARK VINA RESULT:      -7.6      3.427      6.161
REMARK  4 active torsions:
REMARK  status: ('A' for Active; 'I' for Inactive)
REMARK    1  A    between atoms: C_2  and  N_3 
REMARK       I    between atoms: N_3  and  C_4 
REMARK    2  A    between atoms: C_4  and  C_5 
REMARK    3  A    between atoms: C_5  and  N_6 
REMARK    4  A    between atoms: N_6  and  C_7 
ROOT
HETATM    1  C   UNL     1       6.459  24.989  55.548  1.00  0.00     0.022 A 
HETATM    2  C   UNL     1       6.994  23.807  54.947  1.00  0.00     0.012 A 
HETATM    3  C   UNL     1       7.105  23.749  53.532  1.00  0.00     0.045 A 
HETATM    4  C   UNL     1       7.665  22.636  52.886  1.00  0.00     0.054 A 
HETATM    5  C   UNL     1       8.112  21.553  53.636  1.00  0.00     0.036 A 
HETATM    6 CL   UNL     1       8.803  20.198  52.840  1.00  0.00    -0.084 Cl
HETATM    7  C   UNL     1       7.997  21.563  55.019  1.00  0.00     0.025 A 
HETATM    8  C   UNL     1       7.442  22.672  55.667  1.00  0.00     0.017 A 
HETATM    9  N   UNL     1       6.660  24.782  52.793  1.00  0.00    -0.365 N 
HETATM   10  H   UNL     1       6.738  24.728  51.777  1.00  0.00     0.165 HD
HETATM   11  C   UNL     1       6.098  25.871  53.326  1.00  0.00     0.090 A 
HETATM   12  C   UNL     1       5.976  25.993  54.699  1.00  0.00     0.041 A 
ENDROOT
BRANCH   1  13
HETATM   13  N   UNL     1       6.297  25.075  56.945  1.00  0.00    -0.283 NA
HETATM   14  H   UNL     1       6.062  24.176  57.363  1.00  0.00     0.128 HD
BRANCH  13  15
HETATM   15  C   UNL     1       7.373  25.701  57.757  1.00  0.00     0.195 C 
BRANCH  15  16
HETATM   16  C   UNL     1       7.481  27.214  57.546  1.00  0.00     0.231 C 
HETATM   17  N   UNL     1       8.757  27.650  57.270  1.00  0.00    -0.352 N 
HETATM   18  H   UNL     1       9.487  26.948  57.348  1.00  0.00     0.163 HD
HETATM   19  O   UNL     1       6.492  27.938  57.603  1.00  0.00    -0.272 OA
BRANCH  17  20
HETATM   20  C   UNL     1       9.129  29.026  56.908  1.00  0.00     0.022 C 
HETATM   21  C   UNL     1      10.654  29.176  56.789  1.00  0.00     0.037 C 
HETATM   22  C   UNL     1       8.581  30.021  57.944  1.00  0.00     0.037 C 
HETATM   23  C   UNL     1       8.501  29.350  55.541  1.00  0.00     0.037 C 
ENDBRANCH  17  20
ENDBRANCH  15  16
ENDBRANCH  13  15
ENDBRANCH   1  13
TORSDOF 4
ENDMDL
MODEL 4
REMARK VINA RESULT:      -7.5      6.672      9.376
REMARK  4 active torsions:
REMARK  status: ('A' for Active; 'I' for Inactive)
REMARK    1  A    between atoms: C_2  and  N_3 
REMARK       I    between atoms: N_3  and  C_4 
REMARK    2  A    between atoms: C_4  and  C_5 
REMARK    3  A    between atoms: C_5  and  N_6 
REMARK    4  A    between atoms: N_6  and  C_7 
ROOT
HETATM    1  C   UNL     1       7.824  30.155  58.654  1.00  0.00     0.022 A 
HETATM    2  C   UNL     1       7.949  30.827  59.909  1.00  0.00     0.012 A 
HETATM    3  C   UNL     1       7.030  31.865  60.224  1.00  0.00     0.045 A 
HETATM    4  C   UNL     1       7.072  32.530  61.458  1.00  0.00     0.054 A 
HETATM    5  C   UNL     1       8.037  32.186  62.399  1.00  0.00     0.036 A 
HETATM    6 CL   UNL     1       8.077  32.998  63.910  1.00  0.00    -0.084 Cl
HETATM    7  C   UNL     1       8.968  31.195  62.117  1.00  0.00     0.025 A 
HETATM    8  C   UNL     1       8.928  30.527  60.888  1.00  0.00     0.017 A 
HETATM    9  N   UNL     1       6.102  32.220  59.316  1.00  0.00    -0.365 N 
HETATM   10  H   UNL     1       5.451  32.970  59.549  1.00  0.00     0.165 HD
HETATM   11  C   UNL     1       6.004  31.651  58.112  1.00  0.00     0.090 A 
HETATM   12  C   UNL     1       6.861  30.624  57.753  1.00  0.00     0.041 A 
ENDROOT
BRANCH   1  13
HETATM   13  N   UNL     1       8.736  29.145  58.285  1.00  0.00    -0.283 NA
HETATM   14  H   UNL     1       8.897  28.477  59.036  1.00  0.00     0.128 HD
BRANCH  13  15
HETATM   15  C   UNL     1       8.501  28.388  57.028  1.00  0.00     0.195 C 
BRANCH  15  16
HETATM   16  C   UNL     1       7.742  27.077  57.250  1.00  0.00     0.231 C 
HETATM   17  N   UNL     1       7.010  26.663  56.160  1.00  0.00    -0.352 N 
HETATM   18  H   UNL     1       6.968  27.319  55.385  1.00  0.00     0.163 HD
HETATM   19  O   UNL     1       7.820  26.467  58.312  1.00  0.00    -0.272 OA
BRANCH  17  20
HETATM   20  C   UNL     1       6.286  25.387  56.053  1.00  0.00     0.022 C 
HETATM   21  C   UNL     1       5.148  25.308  57.082  1.00  0.00     0.037 C 
HETATM   22  C   UNL     1       7.249  24.204  56.239  1.00  0.00     0.037 C 
HETATM   23  C   UNL     1       5.673  25.300  54.644  1.00  0.00     0.037 C 
ENDBRANCH  17  20
ENDBRANCH  15  16
ENDBRANCH  13  15
ENDBRANCH   1  13
TORSDOF 4
ENDMDL
MODEL 5
REMARK VINA RESULT:      -7.3      2.129      2.808
REMARK  4 active torsions:
REMARK  status: ('A' for Active; 'I' for Inactive)
REMARK    1  A    between atoms: C_2  and  N_3 
REMARK       I    between atoms: N_3  and  C_4 
REMARK    2  A    between atoms: C_4  and  C_5 
REMARK    3  A    between atoms: C_5  and  N_6 
REMARK    4  A    between atoms: N_6  and  C_7 
ROOT
HETATM    1  C   UNL     1       7.658  25.744  55.489  1.00  0.00     0.022 A 
HETATM    2  C   UNL     1       7.826  24.513  54.783  1.00  0.00     0.012 A 
HETATM    3  C   UNL     1       8.230  23.359  55.508  1.00  0.00     0.045 A 
HETATM    4  C   UNL     1       8.368  22.111  54.881  1.00  0.00     0.054 A 
HETATM    5  C   UNL     1       8.118  21.990  53.518  1.00  0.00     0.036 A 
HETATM    6 CL   UNL     1       8.281  20.459  52.758  1.00  0.00    -0.084 Cl
HETATM    7  C   UNL     1       7.746  23.101  52.772  1.00  0.00     0.025 A 
HETATM    8  C   UNL     1       7.606  24.346  53.394  1.00  0.00     0.017 A 
HETATM    9  N   UNL     1       8.491  23.466  56.824  1.00  0.00    -0.365 N 
HETATM   10  H   UNL     1       8.787  22.633  57.334  1.00  0.00     0.165 HD
HETATM   11  C   UNL     1       8.403  24.618  57.494  1.00  0.00     0.090 A 
HETATM   12  C   UNL     1       7.999  25.773  56.847  1.00  0.00     0.041 A 
ENDROOT
BRANCH   1  13
HETATM   13  N   UNL     1       7.294  26.922  54.804  1.00  0.00    -0.283 NA
HETATM   14  H   UNL     1       7.580  26.904  53.827  1.00  0.00     0.128 HD
BRANCH  13  15
HETATM   15  C   UNL     1       5.883  27.384  54.870  1.00  0.00     0.195 C 
BRANCH  15  16
HETATM   16  C   UNL     1       5.164  27.312  53.519  1.00  0.00     0.231 C 
HETATM   17  N   UNL     1       5.361  28.417  52.721  1.00  0.00    -0.352 N 
HETATM   18  H   UNL     1       5.858  29.189  53.156  1.00  0.00     0.163 HD
HETATM   19  O   UNL     1       4.500  26.330  53.203  1.00  0.00    -0.272 OA
BRANCH  17  20
HETATM   20  C   UNL     1       4.891  28.563  51.336  1.00  0.00     0.022 C 
HETATM   21  C   UNL     1       3.366  28.744  51.283  1.00  0.00     0.037 C 
HETATM   22  C   UNL     1       5.307  27.345  50.495  1.00  0.00     0.037 C 
HETATM   23  C   UNL     1       5.550  29.818  50.735  1.00  0.00     0.037 C 
ENDBRANCH  17  20
ENDBRANCH  15  16
ENDBRANCH  13  15
ENDBRANCH   1  13
TORSDOF 4
ENDMDL
MODEL 6
REMARK VINA RESULT:      -7.3      4.455      6.872
REMARK  4 active torsions:
REMARK  status: ('A' for Active; 'I' for Inactive)
REMARK    1  A    between atoms: C_2  and  N_3 
REMARK       I    between atoms: N_3  and  C_4 
REMARK    2  A    between atoms: C_4  and  C_5 
REMARK    3  A    between atoms: C_5  and  N_6 
REMARK    4  A    between atoms: N_6  and  C_7 
ROOT
HETATM    1  C   UNL     1       5.330  26.944  54.917  1.00  0.00     0.022 A 
HETATM    2  C   UNL     1       6.134  27.623  55.883  1.00  0.00     0.012 A 
HETATM    3  C   UNL     1       6.212  29.041  55.835  1.00  0.00     0.045 A 
HETATM    4  C   UNL     1       6.948  29.767  56.783  1.00  0.00     0.054 A 
HETATM    5  C   UNL     1       7.630  29.096  57.792  1.00  0.00     0.036 A 
HETATM    6 CL   UNL     1       8.521  29.991  58.955  1.00  0.00    -0.084 Cl
HETATM    7  C   UNL     1       7.598  27.710  57.857  1.00  0.00     0.025 A 
HETATM    8  C   UNL     1       6.864  26.982  56.914  1.00  0.00     0.017 A 
HETATM    9  N   UNL     1       5.570  29.702  54.854  1.00  0.00    -0.365 N 
HETATM   10  H   UNL     1       5.638  30.720  54.823  1.00  0.00     0.165 HD
HETATM   11  C   UNL     1       4.864  29.088  53.900  1.00  0.00     0.090 A 
HETATM   12  C   UNL     1       4.738  27.709  53.904  1.00  0.00     0.041 A 
ENDROOT
BRANCH   1  13
HETATM   13  N   UNL     1       5.253  25.537  54.905  1.00  0.00    -0.283 NA
HETATM   14  H   UNL     1       4.300  25.203  54.774  1.00  0.00     0.128 HD
BRANCH  13  15
HETATM   15  C   UNL     1       6.145  24.775  53.992  1.00  0.00     0.195 C 
BRANCH  15  16
HETATM   16  C   UNL     1       6.930  23.670  54.704  1.00  0.00     0.231 C 
HETATM   17  N   UNL     1       7.330  22.646  53.876  1.00  0.00    -0.352 N 
HETATM   18  H   UNL     1       6.968  22.682  52.927  1.00  0.00     0.163 HD
HETATM   19  O   UNL     1       7.180  23.738  55.904  1.00  0.00    -0.272 OA
BRANCH  17  20
HETATM   20  C   UNL     1       8.194  21.522  54.266  1.00  0.00     0.022 C 
HETATM   21  C   UNL     1       8.434  20.570  53.083  1.00  0.00     0.037 C 
HETATM   22  C   UNL     1       7.577  20.752  55.445  1.00  0.00     0.037 C 
HETATM   23  C   UNL     1       9.552  22.093  54.713  1.00  0.00     0.037 C 
ENDBRANCH  17  20
ENDBRANCH  15  16
ENDBRANCH  13  15
ENDBRANCH   1  13
TORSDOF 4
ENDMDL
MODEL 7
REMARK VINA RESULT:      -7.3      5.484      7.518
REMARK  4 active torsions:
REMARK  status: ('A' for Active; 'I' for Inactive)
REMARK    1  A    between atoms: C_2  and  N_3 
REMARK       I    between atoms: N_3  and  C_4 
REMARK    2  A    between atoms: C_4  and  C_5 
REMARK    3  A    between atoms: C_5  and  N_6 
REMARK    4  A    between atoms: N_6  and  C_7 
ROOT
HETATM    1  C   UNL     1       6.762  27.445  56.465  1.00  0.00     0.022 A 
HETATM    2  C   UNL     1       7.572  28.481  57.023  1.00  0.00     0.012 A 
HETATM    3  C   UNL     1       6.938  29.543  57.724  1.00  0.00     0.045 A 
HETATM    4  C   UNL     1       7.682  30.565  58.333  1.00  0.00     0.054 A 
HETATM    5  C   UNL     1       9.070  30.557  58.247  1.00  0.00     0.036 A 
HETATM    6 CL   UNL     1       9.974  31.806  59.002  1.00  0.00    -0.084 Cl
HETATM    7  C   UNL     1       9.723  29.551  57.549  1.00  0.00     0.025 A 
HETATM    8  C   UNL     1       8.986  28.529  56.941  1.00  0.00     0.017 A 
HETATM    9  N   UNL     1       5.595  29.572  57.800  1.00  0.00    -0.365 N 
HETATM   10  H   UNL     1       5.149  30.341  58.300  1.00  0.00     0.165 HD
HETATM   11  C   UNL     1       4.812  28.650  57.233  1.00  0.00     0.090 A 
HETATM   12  C   UNL     1       5.371  27.583  56.551  1.00  0.00     0.041 A 
ENDROOT
BRANCH   1  13
HETATM   13  N   UNL     1       7.345  26.392  55.730  1.00  0.00    -0.283 NA
HETATM   14  H   UNL     1       8.255  26.122  56.099  1.00  0.00     0.128 HD
BRANCH  13  15
HETATM   15  C   UNL     1       6.553  25.158  55.490  1.00  0.00     0.195 C 
BRANCH  15  16
HETATM   16  C   UNL     1       7.349  23.875  55.744  1.00  0.00     0.231 C 
HETATM   17  N   UNL     1       7.270  22.956  54.722  1.00  0.00    -0.352 N 
HETATM   18  H   UNL     1       6.613  23.181  53.980  1.00  0.00     0.163 HD
HETATM   19  O   UNL     1       8.006  23.725  56.770  1.00  0.00    -0.272 OA
BRANCH  17  20
HETATM   20  C   UNL     1       8.025  21.696  54.647  1.00  0.00     0.022 C 
HETATM   21  C   UNL     1       7.854  21.028  53.274  1.00  0.00     0.037 C 
HETATM   22  C   UNL     1       7.578  20.734  55.760  1.00  0.00     0.037 C 
HETATM   23  C   UNL     1       9.516  22.017  54.849  1.00  0.00     0.037 C 
ENDBRANCH  17  20
ENDBRANCH  15  16
ENDBRANCH  13  15
ENDBRANCH   1  13
TORSDOF 4
ENDMDL
MODEL 8
REMARK VINA RESULT:      -7.3     15.645     18.491
REMARK  4 active torsions:
REMARK  status: ('A' for Active; 'I' for Inactive)
REMARK    1  A    between atoms: C_2  and  N_3 
REMARK       I    between atoms: N_3  and  C_4 
REMARK    2  A    between atoms: C_4  and  C_5 
REMARK    3  A    between atoms: C_5  and  N_6 
REMARK    4  A    between atoms: N_6  and  C_7 
ROOT
HETATM    1  C   UNL     1       6.153  34.062  69.254  1.00  0.00     0.022 A 
HETATM    2  C   UNL     1       6.765  33.348  70.330  1.00  0.00     0.012 A 
HETATM    3  C   UNL     1       7.748  34.007  71.117  1.00  0.00     0.045 A 
HETATM    4  C   UNL     1       8.352  33.375  72.214  1.00  0.00     0.054 A 
HETATM    5  C   UNL     1       7.999  32.070  72.542  1.00  0.00     0.036 A 
HETATM    6 CL   UNL     1       8.736  31.306  73.891  1.00  0.00    -0.084 Cl
HETATM    7  C   UNL     1       7.062  31.385  71.781  1.00  0.00     0.025 A 
HETATM    8  C   UNL     1       6.456  32.012  70.687  1.00  0.00     0.017 A 
HETATM    9  N   UNL     1       8.111  35.264  70.800  1.00  0.00    -0.365 N 
HETATM   10  H   UNL     1       8.822  35.726  71.367  1.00  0.00     0.165 HD
HETATM   11  C   UNL     1       7.601  35.931  69.762  1.00  0.00     0.090 A 
HETATM   12  C   UNL     1       6.628  35.348  68.967  1.00  0.00     0.041 A 
ENDROOT
BRANCH   1  13
HETATM   13  N   UNL     1       5.200  33.436  68.425  1.00  0.00    -0.283 NA
HETATM   14  H   UNL     1       4.681  32.709  68.914  1.00  0.00     0.128 HD
BRANCH  13  15
HETATM   15  C   UNL     1       4.231  34.280  67.678  1.00  0.00     0.195 C 
BRANCH  15  16
HETATM   16  C   UNL     1       4.411  34.200  66.159  1.00  0.00     0.231 C 
HETATM   17  N   UNL     1       5.699  33.918  65.763  1.00  0.00    -0.352 N 
HETATM   18  H   UNL     1       6.394  33.907  66.505  1.00  0.00     0.163 HD
HETATM   19  O   UNL     1       3.463  34.356  65.396  1.00  0.00    -0.272 OA
BRANCH  17  20
HETATM   20  C   UNL     1       6.131  33.667  64.380  1.00  0.00     0.022 C 
HETATM   21  C   UNL     1       6.018  34.938  63.524  1.00  0.00     0.037 C 
HETATM   22  C   UNL     1       5.301  32.535  63.754  1.00  0.00     0.037 C 
HETATM   23  C   UNL     1       7.607  33.231  64.410  1.00  0.00     0.037 C 
ENDBRANCH  17  20
ENDBRANCH  15  16
ENDBRANCH  13  15
ENDBRANCH   1  13
TORSDOF 4
ENDMDL
MODEL 9
REMARK VINA RESULT:      -7.1      5.948      9.382
REMARK  4 active torsions:
REMARK  status: ('A' for Active; 'I' for Inactive)
REMARK    1  A    between atoms: C_2  and  N_3 
REMARK       I    between atoms: N_3  and  C_4 
REMARK    2  A    between atoms: C_4  and  C_5 
REMARK    3  A    between atoms: C_5  and  N_6 
REMARK    4  A    between atoms: N_6  and  C_7 
ROOT
HETATM    1  C   UNL     1       7.129  29.038  57.733  1.00  0.00     0.022 A 
HETATM    2  C   UNL     1       7.098  27.742  57.134  1.00  0.00     0.012 A 
HETATM    3  C   UNL     1       6.418  27.576  55.896  1.00  0.00     0.045 A 
HETATM    4  C   UNL     1       6.391  26.339  55.235  1.00  0.00     0.054 A 
HETATM    5  C   UNL     1       7.030  25.239  55.798  1.00  0.00     0.036 A 
HETATM    6 CL   UNL     1       7.000  23.730  54.980  1.00  0.00    -0.084 Cl
HETATM    7  C   UNL     1       7.682  25.356  57.018  1.00  0.00     0.025 A 
HETATM    8  C   UNL     1       7.713  26.588  57.680  1.00  0.00     0.017 A 
HETATM    9  N   UNL     1       5.782  28.628  55.349  1.00  0.00    -0.365 N 
HETATM   10  H   UNL     1       5.292  28.498  54.464  1.00  0.00     0.165 HD
HETATM   11  C   UNL     1       5.742  29.835  55.920  1.00  0.00     0.090 A 
HETATM   12  C   UNL     1       6.399  30.062  57.118  1.00  0.00     0.041 A 
ENDROOT
BRANCH   1  13
HETATM   13  N   UNL     1       7.760  29.240  58.978  1.00  0.00    -0.283 NA
HETATM   14  H   UNL     1       8.133  28.376  59.366  1.00  0.00     0.128 HD
BRANCH  13  15
HETATM   15  C   UNL     1       8.804  30.292  59.093  1.00  0.00     0.195 C 
BRANCH  15  16
HETATM   16  C   UNL     1       8.369  31.477  59.961  1.00  0.00     0.231 C 
HETATM   17  N   UNL     1       7.495  31.139  60.969  1.00  0.00    -0.352 N 
HETATM   18  H   UNL     1       7.155  30.182  60.953  1.00  0.00     0.163 HD
HETATM   19  O   UNL     1       8.801  32.607  59.759  1.00  0.00    -0.272 OA
BRANCH  17  20
HETATM   20  C   UNL     1       7.011  32.049  62.019  1.00  0.00     0.022 C 
HETATM   21  C   UNL     1       6.427  33.335  61.413  1.00  0.00     0.037 C 
HETATM   22  C   UNL     1       8.146  32.395  62.996  1.00  0.00     0.037 C 
HETATM   23  C   UNL     1       5.896  31.331  62.800  1.00  0.00     0.037 C 
ENDBRANCH  17  20
ENDBRANCH  15  16
ENDBRANCH  13  15
ENDBRANCH   1  13
TORSDOF 4
ENDMDL
MODEL 10
REMARK VINA RESULT:      -7.1      3.820      4.734
REMARK  4 active torsions:
REMARK  status: ('A' for Active; 'I' for Inactive)
REMARK    1  A    between atoms: C_2  and  N_3 
REMARK       I    between atoms: N_3  and  C_4 
REMARK    2  A    between atoms: C_4  and  C_5 
REMARK    3  A    between atoms: C_5  and  N_6 
REMARK    4  A    between atoms: N_6  and  C_7 
ROOT
HETATM    1  C   UNL     1       7.527  25.709  55.436  1.00  0.00     0.022 A 
HETATM    2  C   UNL     1       7.833  24.473  54.786  1.00  0.00     0.012 A 
HETATM    3  C   UNL     1       8.414  23.425  55.549  1.00  0.00     0.045 A 
HETATM    4  C   UNL     1       8.694  22.173  54.979  1.00  0.00     0.054 A 
HETATM    5  C   UNL     1       8.413  21.945  53.636  1.00  0.00     0.036 A 
HETATM    6 CL   UNL     1       8.750  20.409  52.948  1.00  0.00    -0.084 Cl
HETATM    7  C   UNL     1       7.868  22.954  52.853  1.00  0.00     0.025 A 
HETATM    8  C   UNL     1       7.586  24.202  53.418  1.00  0.00     0.017 A 
HETATM    9  N   UNL     1       8.707  23.638  56.845  1.00  0.00    -0.365 N 
HETATM   10  H   UNL     1       9.131  22.881  57.383  1.00  0.00     0.165 HD
HETATM   11  C   UNL     1       8.491  24.804  57.460  1.00  0.00     0.090 A 
HETATM   12  C   UNL     1       7.912  25.858  56.774  1.00  0.00     0.041 A 
ENDROOT
BRANCH   1  13
HETATM   13  N   UNL     1       6.984  26.789  54.710  1.00  0.00    -0.283 NA
HETATM   14  H   UNL     1       6.026  26.611  54.414  1.00  0.00     0.128 HD
BRANCH  13  15
HETATM   15  C   UNL     1       7.048  28.154  55.294  1.00  0.00     0.195 C 
BRANCH  15  16
HETATM   16  C   UNL     1       5.667  28.771  55.529  1.00  0.00     0.231 C 
HETATM   17  N   UNL     1       5.598  30.115  55.235  1.00  0.00    -0.352 N 
HETATM   18  H   UNL     1       6.482  30.560  55.008  1.00  0.00     0.163 HD
HETATM   19  O   UNL     1       4.724  28.093  55.924  1.00  0.00    -0.272 OA
BRANCH  17  20
HETATM   20  C   UNL     1       4.374  30.930  55.254  1.00  0.00     0.022 C 
HETATM   21  C   UNL     1       4.700  32.423  55.089  1.00  0.00     0.037 C 
HETATM   22  C   UNL     1       3.596  30.702  56.560  1.00  0.00     0.037 C 
HETATM   23  C   UNL     1       3.488  30.493  54.075  1.00  0.00     0.037 C 
ENDBRANCH  17  20
ENDBRANCH  15  16
ENDBRANCH  13  15
ENDBRANCH   1  13
TORSDOF 4
ENDMDL
