MODEL 1
REMARK VINA RESULT:      -7.6      0.000      0.000
REMARK  5 active torsions:
REMARK  status: ('A' for Active; 'I' for Inactive)
REMARK    1  A    between atoms: C_2  and  O_3 
REMARK    2  A    between atoms: C_4  and  C_5 
REMARK    3  A    between atoms: C_5  and  O_6 
REMARK    4  A    between atoms: C_9  and  C_10 
REMARK    5  A    between atoms: C_22  and  O_23 
ROOT
HETATM    1  C   UNL     1       4.963  28.848  56.388  1.00  0.00     0.047 C 
HETATM    2  C   UNL     1       5.624  28.119  55.207  1.00  0.00     0.073 C 
HETATM    3  C   UNL     1       6.838  27.216  55.629  1.00  0.00     0.133 C 
HETATM    4  C   UNL     1       7.407  26.265  54.516  1.00  0.00     0.074 C 
HETATM    5  C   UNL     1       6.505  26.152  53.331  1.00  0.00     0.030 A 
HETATM    6  C   UNL     1       5.213  26.627  53.297  1.00  0.00     0.042 A 
HETATM    7  N   UNL     1       4.720  26.362  52.051  1.00  0.00    -0.279 N 
HETATM    8  H   UNL     1       3.801  26.570  51.673  1.00  0.00     0.189 HD
HETATM    9  N   UNL     1       5.641  25.796  51.241  1.00  0.00    -0.149 NA
HETATM   10  C   UNL     1       6.700  25.681  52.032  1.00  0.00     0.190 A 
HETATM   11  C   UNL     1       4.535  27.364  54.390  1.00  0.00     0.097 C 
ENDROOT
BRANCH   4  12
HETATM   12  C   UNL     1       7.709  24.827  54.928  1.00  0.00    -0.048 A 
HETATM   13  C   UNL     1       6.947  23.733  54.471  1.00  0.00     0.009 A 
HETATM   14  C   UNL     1       7.229  22.430  54.887  1.00  0.00     0.019 A 
HETATM   15  C   UNL     1       8.280  22.204  55.769  1.00  0.00     0.011 A 
HETATM   16 BR   UNL     1       8.662  20.443  56.337  1.00  0.00    -0.051 Br
HETATM   17  C   UNL     1       9.049  23.267  56.236  1.00  0.00     0.019 A 
HETATM   18  C   UNL     1       8.763  24.570  55.820  1.00  0.00     0.009 A 
ENDBRANCH   4  12
BRANCH   3  19
HETATM   19  C   UNL     1       6.567  26.480  56.924  1.00  0.00     0.266 C 
HETATM   20  O   UNL     1       5.642  25.702  57.111  1.00  0.00    -0.265 OA
BRANCH  19  21
HETATM   21  O   UNL     1       7.512  26.812  57.851  1.00  0.00    -0.326 OA
HETATM   22  C   UNL     1       8.304  27.949  57.509  1.00  0.00     0.213 C 
ENDBRANCH  19  21
ENDBRANCH   3  19
BRANCH   2  23
HETATM   23  O   UNL     1       6.149  29.197  54.391  1.00  0.00    -0.389 OA
HETATM   24  H   UNL     1       7.052  28.962  54.110  1.00  0.00     0.210 HD
ENDBRANCH   2  23
BRANCH  10  25
HETATM   25  O   UNL     1       7.788  25.178  51.462  1.00  0.00    -0.343 OA
HETATM   26  H   UNL     1       8.525  25.671  51.862  1.00  0.00     0.219 HD
ENDBRANCH  10  25
TORSDOF 5
ENDMDL
MODEL 2
REMARK VINA RESULT:      -7.3      2.860      4.917
REMARK  5 active torsions:
REMARK  status: ('A' for Active; 'I' for Inactive)
REMARK    1  A    between atoms: C_2  and  O_3 
REMARK    2  A    between atoms: C_4  and  C_5 
REMARK    3  A    between atoms: C_5  and  O_6 
REMARK    4  A    between atoms: C_9  and  C_10 
REMARK    5  A    between atoms: C_22  and  O_23 
ROOT
HETATM    1  C   UNL     1       5.524  24.453  51.921  1.00  0.00     0.047 C 
HETATM    2  C   UNL     1       5.079  25.474  52.980  1.00  0.00     0.073 C 
HETATM    3  C   UNL     1       6.016  25.520  54.240  1.00  0.00     0.133 C 
HETATM    4  C   UNL     1       5.759  26.697  55.246  1.00  0.00     0.074 C 
HETATM    5  C   UNL     1       4.869  27.757  54.685  1.00  0.00     0.030 A 
HETATM    6  C   UNL     1       4.498  27.832  53.361  1.00  0.00     0.042 A 
HETATM    7  N   UNL     1       3.669  28.911  53.237  1.00  0.00    -0.279 N 
HETATM    8  H   UNL     1       3.209  29.267  52.404  1.00  0.00     0.189 HD
HETATM    9  N   UNL     1       3.422  29.513  54.420  1.00  0.00    -0.149 NA
HETATM   10  C   UNL     1       4.153  28.803  55.271  1.00  0.00     0.190 A 
HETATM   11  C   UNL     1       4.868  26.861  52.305  1.00  0.00     0.097 C 
ENDROOT
BRANCH   4  12
HETATM   12  C   UNL     1       6.988  27.440  55.765  1.00  0.00    -0.048 A 
HETATM   13  C   UNL     1       7.554  27.176  57.028  1.00  0.00     0.009 A 
HETATM   14  C   UNL     1       8.661  27.892  57.488  1.00  0.00     0.019 A 
HETATM   15  C   UNL     1       9.218  28.884  56.688  1.00  0.00     0.011 A 
HETATM   16 BR   UNL     1      10.715  29.856  57.309  1.00  0.00    -0.051 Br
HETATM   17  C   UNL     1       8.678  29.165  55.436  1.00  0.00     0.019 A 
HETATM   18  C   UNL     1       7.568  28.449  54.978  1.00  0.00     0.009 A 
ENDBRANCH   4  12
BRANCH   3  19
HETATM   19  C   UNL     1       7.477  25.406  53.856  1.00  0.00     0.266 C 
HETATM   20  O   UNL     1       8.021  26.036  52.960  1.00  0.00    -0.265 OA
BRANCH  19  21
HETATM   21  O   UNL     1       8.097  24.496  54.664  1.00  0.00    -0.326 OA
HETATM   22  C   UNL     1       7.304  23.355  54.988  1.00  0.00     0.213 C 
ENDBRANCH  19  21
ENDBRANCH   3  19
BRANCH   2  23
HETATM   23  O   UNL     1       3.790  24.973  53.418  1.00  0.00    -0.389 OA
HETATM   24  H   UNL     1       3.259  24.753  52.630  1.00  0.00     0.210 HD
ENDBRANCH   2  23
BRANCH  10  25
HETATM   25  O   UNL     1       4.061  29.164  56.545  1.00  0.00    -0.343 OA
HETATM   26  H   UNL     1       4.531  28.466  57.032  1.00  0.00     0.219 HD
ENDBRANCH  10  25
TORSDOF 5
ENDMDL
MODEL 3
REMARK VINA RESULT:      -7.2      3.300      5.085
REMARK  5 active torsions:
REMARK  status: ('A' for Active; 'I' for Inactive)
REMARK    1  A    between atoms: C_2  and  O_3 
REMARK    2  A    between atoms: C_4  and  C_5 
REMARK    3  A    between atoms: C_5  and  O_6 
REMARK    4  A    between atoms: C_9  and  C_10 
REMARK    5  A    between atoms: C_22  and  O_23 
ROOT
HETATM    1  C   UNL     1       8.473  25.186  58.141  1.00  0.00     0.047 C 
HETATM    2  C   UNL     1       8.184  24.161  57.033  1.00  0.00     0.073 C 
HETATM    3  C   UNL     1       6.904  24.497  56.187  1.00  0.00     0.133 C 
HETATM    4  C   UNL     1       6.684  23.628  54.898  1.00  0.00     0.074 C 
HETATM    5  C   UNL     1       7.890  22.832  54.521  1.00  0.00     0.030 A 
HETATM    6  C   UNL     1       9.135  23.004  55.083  1.00  0.00     0.042 A 
HETATM    7  N   UNL     1       9.967  22.089  54.505  1.00  0.00    -0.279 N 
HETATM    8  H   UNL     1      10.956  21.930  54.677  1.00  0.00     0.189 HD
HETATM    9  N   UNL     1       9.323  21.278  53.639  1.00  0.00    -0.149 NA
HETATM   10  C   UNL     1       8.081  21.745  53.666  1.00  0.00     0.190 A 
HETATM   11  C   UNL     1       9.465  23.952  56.174  1.00  0.00     0.097 C 
ENDROOT
BRANCH   4  12
HETATM   12  C   UNL     1       6.283  24.372  53.627  1.00  0.00    -0.048 A 
HETATM   13  C   UNL     1       7.218  24.744  52.640  1.00  0.00     0.009 A 
HETATM   14  C   UNL     1       6.825  25.449  51.501  1.00  0.00     0.019 A 
HETATM   15  C   UNL     1       5.488  25.793  51.333  1.00  0.00     0.011 A 
HETATM   16 BR   UNL     1       4.954  26.749  49.793  1.00  0.00    -0.051 Br
HETATM   17  C   UNL     1       4.544  25.437  52.292  1.00  0.00     0.019 A 
HETATM   18  C   UNL     1       4.940  24.733  53.433  1.00  0.00     0.009 A 
ENDBRANCH   4  12
BRANCH   3  19
HETATM   19  C   UNL     1       6.793  25.980  55.902  1.00  0.00     0.266 C 
HETATM   20  O   UNL     1       7.630  26.647  55.310  1.00  0.00    -0.265 OA
BRANCH  19  21
HETATM   21  O   UNL     1       5.616  26.460  56.400  1.00  0.00    -0.326 OA
HETATM   22  C   UNL     1       5.123  27.623  55.738  1.00  0.00     0.213 C 
ENDBRANCH  19  21
ENDBRANCH   3  19
BRANCH   2  23
HETATM   23  O   UNL     1       7.912  22.938  57.763  1.00  0.00    -0.389 OA
HETATM   24  H   UNL     1       7.151  22.492  57.348  1.00  0.00     0.210 HD
ENDBRANCH   2  23
BRANCH  10  25
HETATM   25  O   UNL     1       7.205  21.088  52.915  1.00  0.00    -0.343 OA
HETATM   26  H   UNL     1       6.374  21.582  53.018  1.00  0.00     0.219 HD
ENDBRANCH  10  25
TORSDOF 5
ENDMDL
MODEL 4
REMARK VINA RESULT:      -7.2      2.493      3.926
REMARK  5 active torsions:
REMARK  status: ('A' for Active; 'I' for Inactive)
REMARK    1  A    between atoms: C_2  and  O_3 
REMARK    2  A    between atoms: C_4  and  C_5 
REMARK    3  A    between atoms: C_5  and  O_6 
REMARK    4  A    between atoms: C_9  and  C_10 
REMARK    5  A    between atoms: C_22  and  O_23 
ROOT
HETATM    1  C   UNL     1       4.058  28.280  53.639  1.00  0.00     0.047 C 
HETATM    2  C   UNL     1       4.961  27.688  54.733  1.00  0.00     0.073 C 
HETATM    3  C   UNL     1       4.988  26.117  54.740  1.00  0.00     0.133 C 
HETATM    4  C   UNL     1       6.065  25.453  55.670  1.00  0.00     0.074 C 
HETATM    5  C   UNL     1       7.090  26.423  56.159  1.00  0.00     0.030 A 
HETATM    6  C   UNL     1       7.231  27.705  55.676  1.00  0.00     0.042 A 
HETATM    7  N   UNL     1       8.247  28.288  56.377  1.00  0.00    -0.279 N 
HETATM    8  H   UNL     1       8.626  29.226  56.287  1.00  0.00     0.189 HD
HETATM    9  N   UNL     1       8.739  27.482  57.342  1.00  0.00    -0.149 NA
HETATM   10  C   UNL     1       8.030  26.372  57.190  1.00  0.00     0.190 A 
HETATM   11  C   UNL     1       6.372  28.339  54.648  1.00  0.00     0.097 C 
ENDROOT
BRANCH   4  12
HETATM   12  C   UNL     1       6.863  24.293  55.079  1.00  0.00    -0.048 A 
HETATM   13  C   UNL     1       7.608  24.416  53.889  1.00  0.00     0.009 A 
HETATM   14  C   UNL     1       8.306  23.329  53.357  1.00  0.00     0.019 A 
HETATM   15  C   UNL     1       8.267  22.102  54.011  1.00  0.00     0.011 A 
HETATM   16 BR   UNL     1       9.208  20.629  53.292  1.00  0.00    -0.051 Br
HETATM   17  C   UNL     1       7.539  21.954  55.189  1.00  0.00     0.019 A 
HETATM   18  C   UNL     1       6.840  23.043  55.717  1.00  0.00     0.009 A 
ENDBRANCH   4  12
BRANCH   3  19
HETATM   19  C   UNL     1       5.019  25.551  53.336  1.00  0.00     0.266 C 
HETATM   20  O   UNL     1       4.347  24.607  52.943  1.00  0.00    -0.265 OA
BRANCH  19  21
HETATM   21  O   UNL     1       5.906  26.254  52.573  1.00  0.00    -0.326 OA
HETATM   22  C   UNL     1       5.698  26.141  51.166  1.00  0.00     0.213 C 
ENDBRANCH  19  21
ENDBRANCH   3  19
BRANCH   2  23
HETATM   23  O   UNL     1       4.329  28.115  55.966  1.00  0.00    -0.389 OA
HETATM   24  H   UNL     1       3.425  28.417  55.763  1.00  0.00     0.210 HD
ENDBRANCH   2  23
BRANCH  10  25
HETATM   25  O   UNL     1       8.289  25.402  58.060  1.00  0.00    -0.343 OA
HETATM   26  H   UNL     1       7.882  24.609  57.671  1.00  0.00     0.219 HD
ENDBRANCH  10  25
TORSDOF 5
ENDMDL
MODEL 5
REMARK VINA RESULT:      -6.7      3.441      4.984
REMARK  5 active torsions:
REMARK  status: ('A' for Active; 'I' for Inactive)
REMARK    1  A    between atoms: C_2  and  O_3 
REMARK    2  A    between atoms: C_4  and  C_5 
REMARK    3  A    between atoms: C_5  and  O_6 
REMARK    4  A    between atoms: C_9  and  C_10 
REMARK    5  A    between atoms: C_22  and  O_23 
ROOT
HETATM    1  C   UNL     1       3.122  31.105  55.801  1.00  0.00     0.047 C 
HETATM    2  C   UNL     1       4.121  30.152  56.477  1.00  0.00     0.073 C 
HETATM    3  C   UNL     1       4.116  28.705  55.866  1.00  0.00     0.133 C 
HETATM    4  C   UNL     1       5.269  27.753  56.346  1.00  0.00     0.074 C 
HETATM    5  C   UNL     1       6.358  28.476  57.068  1.00  0.00     0.030 A 
HETATM    6  C   UNL     1       6.476  29.847  57.112  1.00  0.00     0.042 A 
HETATM    7  N   UNL     1       7.570  30.132  57.877  1.00  0.00    -0.279 N 
HETATM    8  H   UNL     1       7.957  31.038  58.123  1.00  0.00     0.189 HD
HETATM    9  N   UNL     1       8.142  29.023  58.394  1.00  0.00    -0.149 NA
HETATM   10  C   UNL     1       7.398  28.046  57.893  1.00  0.00     0.190 A 
HETATM   11  C   UNL     1       5.529  30.815  56.509  1.00  0.00     0.097 C 
ENDROOT
BRANCH   4  12
HETATM   12  C   UNL     1       5.978  26.934  55.270  1.00  0.00    -0.048 A 
HETATM   13  C   UNL     1       7.036  27.453  54.499  1.00  0.00     0.009 A 
HETATM   14  C   UNL     1       7.647  26.690  53.501  1.00  0.00     0.019 A 
HETATM   15  C   UNL     1       7.206  25.392  53.263  1.00  0.00     0.011 A 
HETATM   16 BR   UNL     1       8.028  24.358  51.912  1.00  0.00    -0.051 Br
HETATM   17  C   UNL     1       6.161  24.855  54.011  1.00  0.00     0.019 A 
HETATM   18  C   UNL     1       5.550  25.623  55.007  1.00  0.00     0.009 A 
ENDBRANCH   4  12
BRANCH   3  19
HETATM   19  C   UNL     1       3.990  28.733  54.357  1.00  0.00     0.266 C 
HETATM   20  O   UNL     1       3.287  27.981  53.695  1.00  0.00    -0.265 OA
BRANCH  19  21
HETATM   21  O   UNL     1       4.775  29.726  53.847  1.00  0.00    -0.326 OA
HETATM   22  C   UNL     1       4.585  29.976  52.455  1.00  0.00     0.213 C 
ENDBRANCH  19  21
ENDBRANCH   3  19
BRANCH   2  23
HETATM   23  O   UNL     1       3.628  30.049  57.837  1.00  0.00    -0.389 OA
HETATM   24  H   UNL     1       4.321  30.367  58.443  1.00  0.00     0.210 HD
ENDBRANCH   2  23
BRANCH  10  25
HETATM   25  O   UNL     1       7.725  26.820  58.283  1.00  0.00    -0.343 OA
HETATM   26  H   UNL     1       8.357  26.510  57.612  1.00  0.00     0.219 HD
ENDBRANCH  10  25
TORSDOF 5
ENDMDL
MODEL 6
REMARK VINA RESULT:      -6.7      3.318      5.682
REMARK  5 active torsions:
REMARK  status: ('A' for Active; 'I' for Inactive)
REMARK    1  A    between atoms: C_2  and  O_3 
REMARK    2  A    between atoms: C_4  and  C_5 
REMARK    3  A    between atoms: C_5  and  O_6 
REMARK    4  A    between atoms: C_9  and  C_10 
REMARK    5  A    between atoms: C_22  and  O_23 
ROOT
HETATM    1  C   UNL     1       6.201  25.510  51.272  1.00  0.00     0.047 C 
HETATM    2  C   UNL     1       6.846  25.584  52.665  1.00  0.00     0.073 C 
HETATM    3  C   UNL     1       6.887  27.037  53.260  1.00  0.00     0.133 C 
HETATM    4  C   UNL     1       7.313  27.151  54.767  1.00  0.00     0.074 C 
HETATM    5  C   UNL     1       7.312  25.835  55.473  1.00  0.00     0.030 A 
HETATM    6  C   UNL     1       6.776  24.680  54.950  1.00  0.00     0.042 A 
HETATM    7  N   UNL     1       6.983  23.690  55.868  1.00  0.00    -0.279 N 
HETATM    8  H   UNL     1       6.719  22.711  55.818  1.00  0.00     0.189 HD
HETATM    9  N   UNL     1       7.685  24.117  56.940  1.00  0.00    -0.149 NA
HETATM   10  C   UNL     1       7.869  25.405  56.678  1.00  0.00     0.190 A 
HETATM   11  C   UNL     1       6.172  24.541  53.604  1.00  0.00     0.097 C 
ENDROOT
BRANCH   4  12
HETATM   12  C   UNL     1       6.482  28.079  55.649  1.00  0.00    -0.048 A 
HETATM   13  C   UNL     1       5.290  27.661  56.275  1.00  0.00     0.009 A 
HETATM   14  C   UNL     1       4.535  28.541  57.053  1.00  0.00     0.019 A 
HETATM   15  C   UNL     1       4.964  29.854  57.217  1.00  0.00     0.011 A 
HETATM   16 BR   UNL     1       3.943  31.047  58.268  1.00  0.00    -0.051 Br
HETATM   17  C   UNL     1       6.138  30.292  56.610  1.00  0.00     0.019 A 
HETATM   18  C   UNL     1       6.890  29.411  55.829  1.00  0.00     0.009 A 
ENDBRANCH   4  12
BRANCH   3  19
HETATM   19  C   UNL     1       5.610  27.799  52.969  1.00  0.00     0.266 C 
HETATM   20  O   UNL     1       4.482  27.407  53.232  1.00  0.00    -0.265 OA
BRANCH  19  21
HETATM   21  O   UNL     1       5.909  28.990  52.372  1.00  0.00    -0.326 OA
HETATM   22  C   UNL     1       5.342  29.161  51.074  1.00  0.00     0.213 C 
ENDBRANCH  19  21
ENDBRANCH   3  19
BRANCH   2  23
HETATM   23  O   UNL     1       8.217  25.174  52.429  1.00  0.00    -0.389 OA
HETATM   24  H   UNL     1       8.372  24.329  52.888  1.00  0.00     0.210 HD
ENDBRANCH   2  23
BRANCH  10  25
HETATM   25  O   UNL     1       8.584  26.075  57.574  1.00  0.00    -0.343 OA
HETATM   26  H   UNL     1       9.436  26.238  57.135  1.00  0.00     0.219 HD
ENDBRANCH  10  25
TORSDOF 5
ENDMDL
MODEL 7
REMARK VINA RESULT:      -6.7      2.782      4.810
REMARK  5 active torsions:
REMARK  status: ('A' for Active; 'I' for Inactive)
REMARK    1  A    between atoms: C_2  and  O_3 
REMARK    2  A    between atoms: C_4  and  C_5 
REMARK    3  A    between atoms: C_5  and  O_6 
REMARK    4  A    between atoms: C_9  and  C_10 
REMARK    5  A    between atoms: C_22  and  O_23 
ROOT
HETATM    1  C   UNL     1       8.698  22.419  53.800  1.00  0.00     0.047 C 
HETATM    2  C   UNL     1       7.518  23.355  53.494  1.00  0.00     0.073 C 
HETATM    3  C   UNL     1       6.894  24.016  54.775  1.00  0.00     0.133 C 
HETATM    4  C   UNL     1       5.846  25.156  54.519  1.00  0.00     0.074 C 
HETATM    5  C   UNL     1       5.843  25.636  53.105  1.00  0.00     0.030 A 
HETATM    6  C   UNL     1       6.800  25.300  52.174  1.00  0.00     0.042 A 
HETATM    7  N   UNL     1       6.449  25.905  51.001  1.00  0.00    -0.279 N 
HETATM    8  H   UNL     1       6.925  25.878  50.104  1.00  0.00     0.189 HD
HETATM    9  N   UNL     1       5.277  26.570  51.092  1.00  0.00    -0.149 NA
HETATM   10  C   UNL     1       4.935  26.393  52.362  1.00  0.00     0.190 A 
HETATM   11  C   UNL     1       7.939  24.380  52.402  1.00  0.00     0.097 C 
ENDROOT
BRANCH   4  12
HETATM   12  C   UNL     1       5.980  26.418  55.369  1.00  0.00    -0.048 A 
HETATM   13  C   UNL     1       5.275  26.594  56.576  1.00  0.00     0.009 A 
HETATM   14  C   UNL     1       5.395  27.771  57.319  1.00  0.00     0.019 A 
HETATM   15  C   UNL     1       6.225  28.789  56.861  1.00  0.00     0.011 A 
HETATM   16 BR   UNL     1       6.388  30.384  57.862  1.00  0.00    -0.051 Br
HETATM   17  C   UNL     1       6.934  28.640  55.672  1.00  0.00     0.019 A 
HETATM   18  C   UNL     1       6.809  27.462  54.929  1.00  0.00     0.009 A 
ENDBRANCH   4  12
BRANCH   3  19
HETATM   19  C   UNL     1       7.960  24.432  55.767  1.00  0.00     0.266 C 
HETATM   20  O   UNL     1       8.919  25.146  55.511  1.00  0.00    -0.265 OA
BRANCH  19  21
HETATM   21  O   UNL     1       7.687  23.894  56.992  1.00  0.00    -0.326 OA
HETATM   22  C   UNL     1       8.426  22.712  57.298  1.00  0.00     0.213 C 
ENDBRANCH  19  21
ENDBRANCH   3  19
BRANCH   2  23
HETATM   23  O   UNL     1       6.516  22.468  52.933  1.00  0.00    -0.389 OA
HETATM   24  H   UNL     1       6.585  21.602  53.375  1.00  0.00     0.210 HD
ENDBRANCH   2  23
BRANCH  10  25
HETATM   25  O   UNL     1       3.772  26.923  52.721  1.00  0.00    -0.343 OA
HETATM   26  H   UNL     1       3.115  26.237  52.512  1.00  0.00     0.219 HD
ENDBRANCH  10  25
TORSDOF 5
ENDMDL
MODEL 8
REMARK VINA RESULT:      -6.6      3.413      5.627
REMARK  5 active torsions:
REMARK  status: ('A' for Active; 'I' for Inactive)
REMARK    1  A    between atoms: C_2  and  O_3 
REMARK    2  A    between atoms: C_4  and  C_5 
REMARK    3  A    between atoms: C_5  and  O_6 
REMARK    4  A    between atoms: C_9  and  C_10 
REMARK    5  A    between atoms: C_22  and  O_23 
ROOT
HETATM    1  C   UNL     1       3.476  30.444  49.874  1.00  0.00     0.047 C 
HETATM    2  C   UNL     1       3.461  29.926  51.321  1.00  0.00     0.073 C 
HETATM    3  C   UNL     1       3.632  28.369  51.430  1.00  0.00     0.133 C 
HETATM    4  C   UNL     1       3.862  27.803  52.877  1.00  0.00     0.074 C 
HETATM    5  C   UNL     1       4.186  28.867  53.873  1.00  0.00     0.030 A 
HETATM    6  C   UNL     1       4.487  30.169  53.541  1.00  0.00     0.042 A 
HETATM    7  N   UNL     1       4.701  30.843  54.710  1.00  0.00    -0.279 N 
HETATM    8  H   UNL     1       4.945  31.819  54.846  1.00  0.00     0.189 HD
HETATM    9  N   UNL     1       4.492  30.070  55.797  1.00  0.00    -0.149 NA
HETATM   10  C   UNL     1       4.186  28.892  55.269  1.00  0.00     0.190 A 
HETATM   11  C   UNL     1       4.486  30.732  52.170  1.00  0.00     0.097 C 
ENDROOT
BRANCH   4  12
HETATM   12  C   UNL     1       4.960  26.755  53.040  1.00  0.00    -0.048 A 
HETATM   13  C   UNL     1       6.299  27.099  53.312  1.00  0.00     0.009 A 
HETATM   14  C   UNL     1       7.288  26.119  53.428  1.00  0.00     0.019 A 
HETATM   15  C   UNL     1       6.949  24.779  53.273  1.00  0.00     0.011 A 
HETATM   16 BR   UNL     1       8.285  23.452  53.426  1.00  0.00    -0.051 Br
HETATM   17  C   UNL     1       5.632  24.413  53.004  1.00  0.00     0.019 A 
HETATM   18  C   UNL     1       4.645  25.395  52.886  1.00  0.00     0.009 A 
ENDBRANCH   4  12
BRANCH   3  19
HETATM   19  C   UNL     1       4.657  27.847  50.444  1.00  0.00     0.266 C 
HETATM   20  O   UNL     1       5.796  28.273  50.321  1.00  0.00    -0.265 OA
BRANCH  19  21
HETATM   21  O   UNL     1       4.118  26.826  49.716  1.00  0.00    -0.326 OA
HETATM   22  C   UNL     1       4.309  26.938  48.307  1.00  0.00     0.213 C 
ENDBRANCH  19  21
ENDBRANCH   3  19
BRANCH   2  23
HETATM   23  O   UNL     1       2.124  30.248  51.784  1.00  0.00    -0.389 OA
HETATM   24  H   UNL     1       1.998  31.212  51.724  1.00  0.00     0.210 HD
ENDBRANCH   2  23
BRANCH  10  25
HETATM   25  O   UNL     1       3.887  27.935  56.139  1.00  0.00    -0.343 OA
HETATM   26  H   UNL     1       4.739  27.512  56.341  1.00  0.00     0.219 HD
ENDBRANCH  10  25
TORSDOF 5
ENDMDL
MODEL 9
REMARK VINA RESULT:      -6.6      8.875     11.134
REMARK  5 active torsions:
REMARK  status: ('A' for Active; 'I' for Inactive)
REMARK    1  A    between atoms: C_2  and  O_3 
REMARK    2  A    between atoms: C_4  and  C_5 
REMARK    3  A    between atoms: C_5  and  O_6 
REMARK    4  A    between atoms: C_9  and  C_10 
REMARK    5  A    between atoms: C_22  and  O_23 
ROOT
HETATM    1  C   UNL     1       7.408  33.476  64.602  1.00  0.00     0.047 C 
HETATM    2  C   UNL     1       6.198  34.021  63.827  1.00  0.00     0.073 C 
HETATM    3  C   UNL     1       6.346  33.899  62.268  1.00  0.00     0.133 C 
HETATM    4  C   UNL     1       5.058  34.216  61.428  1.00  0.00     0.074 C 
HETATM    5  C   UNL     1       3.821  34.282  62.263  1.00  0.00     0.030 A 
HETATM    6  C   UNL     1       3.756  33.881  63.579  1.00  0.00     0.042 A 
HETATM    7  N   UNL     1       2.480  34.113  64.006  1.00  0.00    -0.279 N 
HETATM    8  H   UNL     1       2.074  33.937  64.920  1.00  0.00     0.189 HD
HETATM    9  N   UNL     1       1.717  34.705  63.062  1.00  0.00    -0.149 NA
HETATM   10  C   UNL     1       2.544  34.794  62.028  1.00  0.00     0.190 A 
HETATM   11  C   UNL     1       4.894  33.379  64.385  1.00  0.00     0.097 C 
ENDROOT
BRANCH   4  12
HETATM   12  C   UNL     1       4.722  33.253  60.292  1.00  0.00    -0.048 A 
HETATM   13  C   UNL     1       5.281  33.378  59.004  1.00  0.00     0.009 A 
HETATM   14  C   UNL     1       4.933  32.499  57.976  1.00  0.00     0.019 A 
HETATM   15  C   UNL     1       4.020  31.480  58.224  1.00  0.00     0.011 A 
HETATM   16 BR   UNL     1       3.545  30.290  56.835  1.00  0.00    -0.051 Br
HETATM   17  C   UNL     1       3.453  31.334  59.488  1.00  0.00     0.019 A 
HETATM   18  C   UNL     1       3.801  32.217  60.514  1.00  0.00     0.009 A 
ENDBRANCH   4  12
BRANCH   3  19
HETATM   19  C   UNL     1       6.980  32.583  61.866  1.00  0.00     0.266 C 
HETATM   20  O   UNL     1       6.585  31.478  62.209  1.00  0.00    -0.265 OA
BRANCH  19  21
HETATM   21  O   UNL     1       8.057  32.817  61.059  1.00  0.00    -0.326 OA
HETATM   22  C   UNL     1       9.192  31.999  61.335  1.00  0.00     0.213 C 
ENDBRANCH  19  21
ENDBRANCH   3  19
BRANCH   2  23
HETATM   23  O   UNL     1       6.193  35.434  64.152  1.00  0.00    -0.389 OA
HETATM   24  H   UNL     1       7.091  35.692  64.429  1.00  0.00     0.210 HD
ENDBRANCH   2  23
BRANCH  10  25
HETATM   25  O   UNL     1       2.050  35.390  60.950  1.00  0.00    -0.343 OA
HETATM   26  H   UNL     1       1.723  34.662  60.395  1.00  0.00     0.219 HD
ENDBRANCH  10  25
TORSDOF 5
ENDMDL
MODEL 10
REMARK VINA RESULT:      -6.5      8.585     10.934
REMARK  5 active torsions:
REMARK  status: ('A' for Active; 'I' for Inactive)
REMARK    1  A    between atoms: C_2  and  O_3 
REMARK    2  A    between atoms: C_4  and  C_5 
REMARK    3  A    between atoms: C_5  and  O_6 
REMARK    4  A    between atoms: C_9  and  C_10 
REMARK    5  A    between atoms: C_22  and  O_23 
ROOT
HETATM    1  C   UNL     1       3.874  34.515  64.785  1.00  0.00     0.047 C 
HETATM    2  C   UNL     1       3.277  34.810  63.400  1.00  0.00     0.073 C 
HETATM    3  C   UNL     1       4.238  34.443  62.213  1.00  0.00     0.133 C 
HETATM    4  C   UNL     1       3.607  34.496  60.776  1.00  0.00     0.074 C 
HETATM    5  C   UNL     1       2.116  34.589  60.799  1.00  0.00     0.030 A 
HETATM    6  C   UNL     1       1.349  34.410  61.928  1.00  0.00     0.042 A 
HETATM    7  N   UNL     1       0.046  34.593  61.562  1.00  0.00    -0.279 N 
HETATM    8  H   UNL     1      -0.790  34.537  62.136  1.00  0.00     0.189 HD
HETATM    9  N   UNL     1      -0.082  34.947  60.265  1.00  0.00    -0.149 NA
HETATM   10  C   UNL     1       1.172  34.937  59.831  1.00  0.00     0.190 A 
HETATM   11  C   UNL     1       1.869  34.156  63.293  1.00  0.00     0.097 C 
ENDROOT
BRANCH   4  12
HETATM   12  C   UNL     1       3.921  33.330  59.842  1.00  0.00    -0.048 A 
HETATM   13  C   UNL     1       3.202  32.119  59.876  1.00  0.00     0.009 A 
HETATM   14  C   UNL     1       3.530  31.059  59.029  1.00  0.00     0.019 A 
HETATM   15  C   UNL     1       4.585  31.197  58.133  1.00  0.00     0.011 A 
HETATM   16 BR   UNL     1       5.034  29.764  56.987  1.00  0.00    -0.051 Br
HETATM   17  C   UNL     1       5.312  32.384  58.079  1.00  0.00     0.019 A 
HETATM   18  C   UNL     1       4.983  33.443  58.930  1.00  0.00     0.009 A 
ENDBRANCH   4  12
BRANCH   3  19
HETATM   19  C   UNL     1       4.970  33.142  62.466  1.00  0.00     0.266 C 
HETATM   20  O   UNL     1       4.448  32.102  62.842  1.00  0.00    -0.265 OA
BRANCH  19  21
HETATM   21  O   UNL     1       6.301  33.303  62.207  1.00  0.00    -0.326 OA
HETATM   22  C   UNL     1       6.976  32.112  61.807  1.00  0.00     0.213 C 
ENDBRANCH  19  21
ENDBRANCH   3  19
BRANCH   2  23
HETATM   23  O   UNL     1       3.118  36.252  63.397  1.00  0.00    -0.389 OA
HETATM   24  H   UNL     1       2.608  36.506  62.607  1.00  0.00     0.210 HD
ENDBRANCH   2  23
BRANCH  10  25
HETATM   25  O   UNL     1       1.343  35.297  58.565  1.00  0.00    -0.343 OA
HETATM   26  H   UNL     1       0.818  34.656  58.055  1.00  0.00     0.219 HD
ENDBRANCH  10  25
TORSDOF 5
ENDMDL
