MODEL 1
REMARK VINA RESULT:      -9.1      0.000      0.000
REMARK  5 active torsions:
REMARK  status: ('A' for Active; 'I' for Inactive)
REMARK    1  A    between atoms: C_5  and  N_6 
REMARK    2  A    between atoms: N_6  and  C_7 
REMARK    3  A    between atoms: C_7  and  C_8 
REMARK       I    between atoms: C_8  and  N_9 
REMARK    4  A    between atoms: N_9  and  N_10 
REMARK    5  A    between atoms: C_11  and  C_12 
ROOT
HETATM    1  C   UNL     1       7.955  29.483  58.127  1.00  0.00     0.250 C 
HETATM    2  N   UNL     1       7.087  28.434  57.844  1.00  0.00    -0.246 N 
HETATM    3  O   UNL     1       9.181  29.395  58.170  1.00  0.00    -0.270 OA
HETATM    4  H   UNL     1       6.090  28.607  57.772  1.00  0.00     0.192 HD
ENDROOT
BRANCH   2   5
HETATM    5  N   UNL     1       7.602  27.181  57.675  1.00  0.00    -0.184 NA
HETATM    6  C   UNL     1       7.369  26.592  56.549  1.00  0.00     0.152 C 
BRANCH   6   7
HETATM    7  C   UNL     1       7.872  25.247  56.346  1.00  0.00     0.011 A 
HETATM    8  C   UNL     1       7.897  24.486  55.132  1.00  0.00     0.004 A 
HETATM    9  C   UNL     1       8.454  23.238  55.434  1.00  0.00     0.043 A 
HETATM   10  C   UNL     1       7.496  24.733  53.803  1.00  0.00     0.014 A 
HETATM   11  C   UNL     1       8.624  22.231  54.476  1.00  0.00     0.030 A 
HETATM   12  N   UNL     1       8.761  23.242  56.771  1.00  0.00    -0.364 N 
HETATM   13  C   UNL     1       8.217  22.503  53.168  1.00  0.00     0.002 A 
HETATM   14  C   UNL     1       7.662  23.736  52.833  1.00  0.00     0.001 A 
HETATM   15  H   UNL     1       9.179  22.467  57.270  1.00  0.00     0.165 HD
HETATM   16  C   UNL     1       8.417  24.442  57.331  1.00  0.00     0.102 A 
ENDBRANCH   6   7
ENDBRANCH   2   5
BRANCH   1  17
HETATM   17  C   UNL     1       7.239  30.799  58.426  1.00  0.00     0.197 C 
BRANCH  17  18
HETATM   18  N   UNL     1       8.172  31.812  58.944  1.00  0.00    -0.284 NA
HETATM   19  H   UNL     1       9.144  31.588  58.723  1.00  0.00     0.128 HD
BRANCH  18  20
HETATM   20  C   UNL     1       8.066  32.184  60.297  1.00  0.00     0.008 A 
HETATM   21  C   UNL     1       9.007  31.852  61.279  1.00  0.00     0.024 A 
HETATM   22  C   UNL     1       8.800  32.176  62.627  1.00  0.00     0.008 A 
HETATM   23  C   UNL     1       7.625  32.811  63.035  1.00  0.00    -0.062 A 
HETATM   24  C   UNL     1       7.364  33.101  64.483  1.00  0.00     0.048 C 
HETATM   25  C   UNL     1       6.666  33.125  62.069  1.00  0.00     0.008 A 
HETATM   26  C   UNL     1       6.886  32.810  60.722  1.00  0.00     0.024 A 
ENDBRANCH  18  20
ENDBRANCH  17  18
ENDBRANCH   1  17
TORSDOF 5
ENDMDL
MODEL 2
REMARK VINA RESULT:      -9.1      1.516      2.127
REMARK  5 active torsions:
REMARK  status: ('A' for Active; 'I' for Inactive)
REMARK    1  A    between atoms: C_5  and  N_6 
REMARK    2  A    between atoms: N_6  and  C_7 
REMARK    3  A    between atoms: C_7  and  C_8 
REMARK       I    between atoms: C_8  and  N_9 
REMARK    4  A    between atoms: N_9  and  N_10 
REMARK    5  A    between atoms: C_11  and  C_12 
ROOT
HETATM    1  C   UNL     1       8.380  28.585  57.211  1.00  0.00     0.250 C 
HETATM    2  N   UNL     1       7.366  27.841  56.620  1.00  0.00    -0.246 N 
HETATM    3  O   UNL     1       9.551  28.609  56.836  1.00  0.00    -0.270 OA
HETATM    4  H   UNL     1       6.412  27.925  56.958  1.00  0.00     0.192 HD
ENDROOT
BRANCH   2   5
HETATM    5  N   UNL     1       7.679  27.000  55.591  1.00  0.00    -0.184 NA
HETATM    6  C   UNL     1       7.064  25.865  55.545  1.00  0.00     0.152 C 
BRANCH   6   7
HETATM    7  C   UNL     1       7.394  24.933  54.485  1.00  0.00     0.011 A 
HETATM    8  C   UNL     1       7.563  23.512  54.576  1.00  0.00     0.004 A 
HETATM    9  C   UNL     1       7.898  23.049  53.299  1.00  0.00     0.043 A 
HETATM   10  C   UNL     1       7.468  22.573  55.623  1.00  0.00     0.014 A 
HETATM   11  C   UNL     1       8.145  21.699  53.022  1.00  0.00     0.030 A 
HETATM   12  N   UNL     1       7.925  24.139  52.465  1.00  0.00    -0.364 N 
HETATM   13  C   UNL     1       8.044  20.790  54.077  1.00  0.00     0.002 A 
HETATM   14  C   UNL     1       7.709  21.217  55.361  1.00  0.00     0.001 A 
HETATM   15  H   UNL     1       8.139  24.103  51.477  1.00  0.00     0.165 HD
HETATM   16  C   UNL     1       7.625  25.275  53.164  1.00  0.00     0.102 A 
ENDBRANCH   6   7
ENDBRANCH   2   5
BRANCH   1  17
HETATM   17  C   UNL     1       7.919  29.378  58.433  1.00  0.00     0.197 C 
BRANCH  17  18
HETATM   18  N   UNL     1       8.972  30.285  58.914  1.00  0.00    -0.284 NA
HETATM   19  H   UNL     1       9.894  29.844  58.901  1.00  0.00     0.128 HD
BRANCH  18  20
HETATM   20  C   UNL     1       8.776  30.941  60.143  1.00  0.00     0.008 A 
HETATM   21  C   UNL     1       9.185  30.430  61.380  1.00  0.00     0.024 A 
HETATM   22  C   UNL     1       8.881  31.090  62.579  1.00  0.00     0.008 A 
HETATM   23  C   UNL     1       8.125  32.264  62.574  1.00  0.00    -0.062 A 
HETATM   24  C   UNL     1       7.737  32.942  63.854  1.00  0.00     0.048 C 
HETATM   25  C   UNL     1       7.688  32.771  61.347  1.00  0.00     0.008 A 
HETATM   26  C   UNL     1       8.007  32.113  60.153  1.00  0.00     0.024 A 
ENDBRANCH  18  20
ENDBRANCH  17  18
ENDBRANCH   1  17
TORSDOF 5
ENDMDL
MODEL 3
REMARK VINA RESULT:      -8.9      1.564     10.104
REMARK  5 active torsions:
REMARK  status: ('A' for Active; 'I' for Inactive)
REMARK    1  A    between atoms: C_5  and  N_6 
REMARK    2  A    between atoms: N_6  and  C_7 
REMARK    3  A    between atoms: C_7  and  C_8 
REMARK       I    between atoms: C_8  and  N_9 
REMARK    4  A    between atoms: N_9  and  N_10 
REMARK    5  A    between atoms: C_11  and  C_12 
ROOT
HETATM    1  C   UNL     1       7.826  27.306  56.965  1.00  0.00     0.250 C 
HETATM    2  N   UNL     1       7.718  28.659  57.263  1.00  0.00    -0.246 N 
HETATM    3  O   UNL     1       8.171  26.431  57.758  1.00  0.00    -0.270 OA
HETATM    4  H   UNL     1       7.370  29.306  56.563  1.00  0.00     0.192 HD
ENDROOT
BRANCH   2   5
HETATM    5  N   UNL     1       8.094  29.092  58.503  1.00  0.00    -0.184 NA
HETATM    6  C   UNL     1       7.766  30.298  58.832  1.00  0.00     0.152 C 
BRANCH   6   7
HETATM    7  C   UNL     1       8.176  30.804  60.128  1.00  0.00     0.011 A 
HETATM    8  C   UNL     1       7.474  31.712  60.986  1.00  0.00     0.004 A 
HETATM    9  C   UNL     1       8.273  31.923  62.115  1.00  0.00     0.043 A 
HETATM   10  C   UNL     1       6.236  32.382  60.911  1.00  0.00     0.014 A 
HETATM   11  C   UNL     1       7.897  32.769  63.165  1.00  0.00     0.030 A 
HETATM   12  N   UNL     1       9.410  31.170  61.955  1.00  0.00    -0.364 N 
HETATM   13  C   UNL     1       6.665  33.420  63.065  1.00  0.00     0.002 A 
HETATM   14  C   UNL     1       5.843  33.230  61.956  1.00  0.00     0.001 A 
HETATM   15  H   UNL     1      10.171  31.126  62.620  1.00  0.00     0.165 HD
HETATM   16  C   UNL     1       9.364  30.494  60.767  1.00  0.00     0.102 A 
ENDBRANCH   6   7
ENDBRANCH   2   5
BRANCH   1  17
HETATM   17  C   UNL     1       7.504  26.977  55.508  1.00  0.00     0.197 C 
BRANCH  17  18
HETATM   18  N   UNL     1       6.618  25.808  55.404  1.00  0.00    -0.284 NA
HETATM   19  H   UNL     1       6.196  25.564  56.302  1.00  0.00     0.128 HD
BRANCH  18  20
HETATM   20  C   UNL     1       7.116  24.648  54.783  1.00  0.00     0.008 A 
HETATM   21  C   UNL     1       7.391  24.546  53.414  1.00  0.00     0.024 A 
HETATM   22  C   UNL     1       7.802  23.335  52.840  1.00  0.00     0.008 A 
HETATM   23  C   UNL     1       7.914  22.180  53.618  1.00  0.00    -0.062 A 
HETATM   24  C   UNL     1       8.287  20.865  53.003  1.00  0.00     0.048 C 
HETATM   25  C   UNL     1       7.618  22.262  54.981  1.00  0.00     0.008 A 
HETATM   26  C   UNL     1       7.221  23.479  55.549  1.00  0.00     0.024 A 
ENDBRANCH  18  20
ENDBRANCH  17  18
ENDBRANCH   1  17
TORSDOF 5
ENDMDL
MODEL 4
REMARK VINA RESULT:      -8.9      1.597      9.969
REMARK  5 active torsions:
REMARK  status: ('A' for Active; 'I' for Inactive)
REMARK    1  A    between atoms: C_5  and  N_6 
REMARK    2  A    between atoms: N_6  and  C_7 
REMARK    3  A    between atoms: C_7  and  C_8 
REMARK       I    between atoms: C_8  and  N_9 
REMARK    4  A    between atoms: N_9  and  N_10 
REMARK    5  A    between atoms: C_11  and  C_12 
ROOT
HETATM    1  C   UNL     1       7.357  27.103  56.779  1.00  0.00     0.250 C 
HETATM    2  N   UNL     1       6.460  28.150  56.612  1.00  0.00    -0.246 N 
HETATM    3  O   UNL     1       7.978  26.860  57.812  1.00  0.00    -0.270 OA
HETATM    4  H   UNL     1       5.946  28.244  55.742  1.00  0.00     0.192 HD
ENDROOT
BRANCH   2   5
HETATM    5  N   UNL     1       6.292  29.044  57.631  1.00  0.00    -0.184 NA
HETATM    6  C   UNL     1       6.943  30.157  57.555  1.00  0.00     0.152 C 
BRANCH   6   7
HETATM    7  C   UNL     1       6.815  31.117  58.634  1.00  0.00     0.011 A 
HETATM    8  C   UNL     1       7.627  31.241  59.809  1.00  0.00     0.004 A 
HETATM    9  C   UNL     1       7.106  32.295  60.567  1.00  0.00     0.043 A 
HETATM   10  C   UNL     1       8.754  30.556  60.306  1.00  0.00     0.014 A 
HETATM   11  C   UNL     1       7.654  32.692  61.793  1.00  0.00     0.030 A 
HETATM   12  N   UNL     1       6.028  32.796  59.881  1.00  0.00    -0.364 N 
HETATM   13  C   UNL     1       8.770  31.995  62.261  1.00  0.00     0.002 A 
HETATM   14  C   UNL     1       9.316  30.942  61.530  1.00  0.00     0.001 A 
HETATM   15  H   UNL     1       5.454  33.569  60.193  1.00  0.00     0.165 HD
HETATM   16  C   UNL     1       5.842  32.098  58.719  1.00  0.00     0.102 A 
ENDBRANCH   6   7
ENDBRANCH   2   5
BRANCH   1  17
HETATM   17  C   UNL     1       7.549  26.260  55.519  1.00  0.00     0.197 C 
BRANCH  17  18
HETATM   18  N   UNL     1       6.579  25.156  55.458  1.00  0.00    -0.284 NA
HETATM   19  H   UNL     1       6.143  24.978  56.364  1.00  0.00     0.128 HD
BRANCH  18  20
HETATM   20  C   UNL     1       6.990  23.940  54.880  1.00  0.00     0.008 A 
HETATM   21  C   UNL     1       7.365  22.809  55.614  1.00  0.00     0.024 A 
HETATM   22  C   UNL     1       7.849  21.656  54.981  1.00  0.00     0.008 A 
HETATM   23  C   UNL     1       8.006  21.618  53.593  1.00  0.00    -0.062 A 
HETATM   24  C   UNL     1       8.586  20.415  52.912  1.00  0.00     0.048 C 
HETATM   25  C   UNL     1       7.659  22.749  52.852  1.00  0.00     0.008 A 
HETATM   26  C   UNL     1       7.163  23.893  53.490  1.00  0.00     0.024 A 
ENDBRANCH  18  20
ENDBRANCH  17  18
ENDBRANCH   1  17
TORSDOF 5
ENDMDL
MODEL 5
REMARK VINA RESULT:      -8.8      6.763     10.189
REMARK  5 active torsions:
REMARK  status: ('A' for Active; 'I' for Inactive)
REMARK    1  A    between atoms: C_5  and  N_6 
REMARK    2  A    between atoms: N_6  and  C_7 
REMARK    3  A    between atoms: C_7  and  C_8 
REMARK       I    between atoms: C_8  and  N_9 
REMARK    4  A    between atoms: N_9  and  N_10 
REMARK    5  A    between atoms: C_11  and  C_12 
ROOT
HETATM    1  C   UNL     1       5.561  26.968  51.530  1.00  0.00     0.250 C 
HETATM    2  N   UNL     1       6.411  25.871  51.456  1.00  0.00    -0.246 N 
HETATM    3  O   UNL     1       4.979  27.346  52.545  1.00  0.00    -0.270 OA
HETATM    4  H   UNL     1       6.896  25.663  50.589  1.00  0.00     0.192 HD
ENDROOT
BRANCH   2   5
HETATM    5  N   UNL     1       6.570  25.085  52.561  1.00  0.00    -0.184 NA
HETATM    6  C   UNL     1       7.770  24.935  53.013  1.00  0.00     0.152 C 
BRANCH   6   7
HETATM    7  C   UNL     1       7.982  24.081  54.166  1.00  0.00     0.011 A 
HETATM    8  C   UNL     1       8.160  22.659  54.193  1.00  0.00     0.004 A 
HETATM    9  C   UNL     1       8.306  22.282  55.533  1.00  0.00     0.043 A 
HETATM   10  C   UNL     1       8.206  21.651  53.208  1.00  0.00     0.014 A 
HETATM   11  C   UNL     1       8.491  20.953  55.932  1.00  0.00     0.030 A 
HETATM   12  N   UNL     1       8.228  23.425  56.288  1.00  0.00    -0.364 N 
HETATM   13  C   UNL     1       8.533  19.976  54.935  1.00  0.00     0.002 A 
HETATM   14  C   UNL     1       8.394  20.317  53.591  1.00  0.00     0.001 A 
HETATM   15  H   UNL     1       8.300  23.456  57.297  1.00  0.00     0.165 HD
HETATM   16  C   UNL     1       8.033  24.512  55.480  1.00  0.00     0.102 A 
ENDBRANCH   6   7
ENDBRANCH   2   5
BRANCH   1  17
HETATM   17  C   UNL     1       5.369  27.680  50.191  1.00  0.00     0.197 C 
BRANCH  17  18
HETATM   18  N   UNL     1       5.030  26.730  49.121  1.00  0.00    -0.284 NA
HETATM   19  H   UNL     1       5.753  26.689  48.400  1.00  0.00     0.128 HD
BRANCH  18  20
HETATM   20  C   UNL     1       3.763  26.831  48.517  1.00  0.00     0.008 A 
HETATM   21  C   UNL     1       3.346  26.055  47.430  1.00  0.00     0.024 A 
HETATM   22  C   UNL     1       2.103  26.266  46.816  1.00  0.00     0.008 A 
HETATM   23  C   UNL     1       1.257  27.287  47.254  1.00  0.00    -0.062 A 
HETATM   24  C   UNL     1      -0.044  27.565  46.562  1.00  0.00     0.048 C 
HETATM   25  C   UNL     1       1.672  28.086  48.322  1.00  0.00     0.008 A 
HETATM   26  C   UNL     1       2.910  27.861  48.938  1.00  0.00     0.024 A 
ENDBRANCH  18  20
ENDBRANCH  17  18
ENDBRANCH   1  17
TORSDOF 5
ENDMDL
MODEL 6
REMARK VINA RESULT:      -8.5      1.969      3.229
REMARK  5 active torsions:
REMARK  status: ('A' for Active; 'I' for Inactive)
REMARK    1  A    between atoms: C_5  and  N_6 
REMARK    2  A    between atoms: N_6  and  C_7 
REMARK    3  A    between atoms: C_7  and  C_8 
REMARK       I    between atoms: C_8  and  N_9 
REMARK    4  A    between atoms: N_9  and  N_10 
REMARK    5  A    between atoms: C_11  and  C_12 
ROOT
HETATM    1  C   UNL     1       9.138  31.404  59.655  1.00  0.00     0.250 C 
HETATM    2  N   UNL     1       8.514  30.164  59.599  1.00  0.00    -0.246 N 
HETATM    3  O   UNL     1       9.624  31.996  58.692  1.00  0.00    -0.270 OA
HETATM    4  H   UNL     1       8.088  29.772  60.434  1.00  0.00     0.192 HD
ENDROOT
BRANCH   2   5
HETATM    5  N   UNL     1       8.493  29.489  58.413  1.00  0.00    -0.184 NA
HETATM    6  C   UNL     1       7.380  28.929  58.069  1.00  0.00     0.152 C 
BRANCH   6   7
HETATM    7  C   UNL     1       7.330  28.176  56.831  1.00  0.00     0.011 A 
HETATM    8  C   UNL     1       7.538  26.771  56.640  1.00  0.00     0.004 A 
HETATM    9  C   UNL     1       7.410  26.511  55.272  1.00  0.00     0.043 A 
HETATM   10  C   UNL     1       7.830  25.691  57.499  1.00  0.00     0.014 A 
HETATM   11  C   UNL     1       7.561  25.232  54.723  1.00  0.00     0.030 A 
HETATM   12  N   UNL     1       7.128  27.705  54.656  1.00  0.00    -0.364 N 
HETATM   13  C   UNL     1       7.849  24.181  55.597  1.00  0.00     0.002 A 
HETATM   14  C   UNL     1       7.981  24.404  56.966  1.00  0.00     0.001 A 
HETATM   15  H   UNL     1       6.982  27.821  53.661  1.00  0.00     0.165 HD
HETATM   16  C   UNL     1       7.077  28.712  55.580  1.00  0.00     0.102 A 
ENDBRANCH   6   7
ENDBRANCH   2   5
BRANCH   1  17
HETATM   17  C   UNL     1       9.208  31.986  61.066  1.00  0.00     0.197 C 
BRANCH  17  18
HETATM   18  N   UNL     1       8.330  31.258  61.993  1.00  0.00    -0.284 NA
HETATM   19  H   UNL     1       7.781  30.539  61.517  1.00  0.00     0.128 HD
BRANCH  18  20
HETATM   20  C   UNL     1       7.497  32.004  62.846  1.00  0.00     0.008 A 
HETATM   21  C   UNL     1       7.962  32.810  63.892  1.00  0.00     0.024 A 
HETATM   22  C   UNL     1       7.076  33.459  64.763  1.00  0.00     0.008 A 
HETATM   23  C   UNL     1       5.696  33.289  64.632  1.00  0.00    -0.062 A 
HETATM   24  C   UNL     1       4.743  33.924  65.600  1.00  0.00     0.048 C 
HETATM   25  C   UNL     1       5.219  32.467  63.609  1.00  0.00     0.008 A 
HETATM   26  C   UNL     1       6.110  31.832  62.734  1.00  0.00     0.024 A 
ENDBRANCH  18  20
ENDBRANCH  17  18
ENDBRANCH   1  17
TORSDOF 5
ENDMDL
MODEL 7
REMARK VINA RESULT:      -8.4      7.267     10.155
REMARK  5 active torsions:
REMARK  status: ('A' for Active; 'I' for Inactive)
REMARK    1  A    between atoms: C_5  and  N_6 
REMARK    2  A    between atoms: N_6  and  C_7 
REMARK    3  A    between atoms: C_7  and  C_8 
REMARK       I    between atoms: C_8  and  N_9 
REMARK    4  A    between atoms: N_9  and  N_10 
REMARK    5  A    between atoms: C_11  and  C_12 
ROOT
HETATM    1  C   UNL     1       5.615  26.495  51.934  1.00  0.00     0.250 C 
HETATM    2  N   UNL     1       6.401  25.444  51.477  1.00  0.00    -0.246 N 
HETATM    3  O   UNL     1       5.047  26.532  53.025  1.00  0.00    -0.270 OA
HETATM    4  H   UNL     1       6.881  25.521  50.586  1.00  0.00     0.192 HD
ENDROOT
BRANCH   2   5
HETATM    5  N   UNL     1       6.504  24.317  52.241  1.00  0.00    -0.184 NA
HETATM    6  C   UNL     1       7.693  23.901  52.525  1.00  0.00     0.152 C 
BRANCH   6   7
HETATM    7  C   UNL     1       7.842  22.688  53.307  1.00  0.00     0.011 A 
HETATM    8  C   UNL     1       8.025  22.566  54.723  1.00  0.00     0.004 A 
HETATM    9  C   UNL     1       8.141  21.202  55.012  1.00  0.00     0.043 A 
HETATM   10  C   UNL     1       8.108  23.484  55.790  1.00  0.00     0.014 A 
HETATM   11  C   UNL     1       8.339  20.715  56.311  1.00  0.00     0.030 A 
HETATM   12  N   UNL     1       8.026  20.523  53.825  1.00  0.00    -0.364 N 
HETATM   13  C   UNL     1       8.418  21.647  57.348  1.00  0.00     0.002 A 
HETATM   14  C   UNL     1       8.304  23.012  57.095  1.00  0.00     0.001 A 
HETATM   15  H   UNL     1       8.072  19.517  53.730  1.00  0.00     0.165 HD
HETATM   16  C   UNL     1       7.847  21.403  52.794  1.00  0.00     0.102 A 
ENDBRANCH   6   7
ENDBRANCH   2   5
BRANCH   1  17
HETATM   17  C   UNL     1       5.477  27.635  50.926  1.00  0.00     0.197 C 
BRANCH  17  18
HETATM   18  N   UNL     1       5.577  27.144  49.543  1.00  0.00    -0.284 NA
HETATM   19  H   UNL     1       6.384  27.534  49.054  1.00  0.00     0.128 HD
BRANCH  18  20
HETATM   20  C   UNL     1       4.437  27.230  48.722  1.00  0.00     0.008 A 
HETATM   21  C   UNL     1       3.903  28.431  48.243  1.00  0.00     0.024 A 
HETATM   22  C   UNL     1       2.713  28.457  47.502  1.00  0.00     0.008 A 
HETATM   23  C   UNL     1       2.005  27.279  47.251  1.00  0.00    -0.062 A 
HETATM   24  C   UNL     1       0.697  27.303  46.518  1.00  0.00     0.048 C 
HETATM   25  C   UNL     1       2.514  26.076  47.746  1.00  0.00     0.008 A 
HETATM   26  C   UNL     1       3.710  26.057  48.474  1.00  0.00     0.024 A 
ENDBRANCH  18  20
ENDBRANCH  17  18
ENDBRANCH   1  17
TORSDOF 5
ENDMDL
MODEL 8
REMARK VINA RESULT:      -8.2      6.155      8.791
REMARK  5 active torsions:
REMARK  status: ('A' for Active; 'I' for Inactive)
REMARK    1  A    between atoms: C_5  and  N_6 
REMARK    2  A    between atoms: N_6  and  C_7 
REMARK    3  A    between atoms: C_7  and  C_8 
REMARK       I    between atoms: C_8  and  N_9 
REMARK    4  A    between atoms: N_9  and  N_10 
REMARK    5  A    between atoms: C_11  and  C_12 
ROOT
HETATM    1  C   UNL     1       5.120  27.887  54.015  1.00  0.00     0.250 C 
HETATM    2  N   UNL     1       6.150  27.068  53.568  1.00  0.00    -0.246 N 
HETATM    3  O   UNL     1       4.616  27.843  55.136  1.00  0.00    -0.270 OA
HETATM    4  H   UNL     1       6.547  27.210  52.645  1.00  0.00     0.192 HD
ENDROOT
BRANCH   2   5
HETATM    5  N   UNL     1       6.605  26.074  54.387  1.00  0.00    -0.184 NA
HETATM    6  C   UNL     1       7.420  25.212  53.876  1.00  0.00     0.152 C 
BRANCH   6   7
HETATM    7  C   UNL     1       7.899  24.124  54.708  1.00  0.00     0.011 A 
HETATM    8  C   UNL     1       8.108  22.755  54.339  1.00  0.00     0.004 A 
HETATM    9  C   UNL     1       8.554  22.079  55.480  1.00  0.00     0.043 A 
HETATM   10  C   UNL     1       7.956  22.020  53.145  1.00  0.00     0.014 A 
HETATM   11  C   UNL     1       8.851  20.711  55.484  1.00  0.00     0.030 A 
HETATM   12  N   UNL     1       8.621  22.998  56.497  1.00  0.00    -0.364 N 
HETATM   13  C   UNL     1       8.692  20.008  54.288  1.00  0.00     0.002 A 
HETATM   14  C   UNL     1       8.252  20.651  53.133  1.00  0.00     0.001 A 
HETATM   15  H   UNL     1       8.915  22.791  57.443  1.00  0.00     0.165 HD
HETATM   16  C   UNL     1       8.230  24.229  56.047  1.00  0.00     0.102 A 
ENDBRANCH   6   7
ENDBRANCH   2   5
BRANCH   1  17
HETATM   17  C   UNL     1       4.617  28.864  52.954  1.00  0.00     0.197 C 
BRANCH  17  18
HETATM   18  N   UNL     1       5.269  28.632  51.656  1.00  0.00    -0.284 NA
HETATM   19  H   UNL     1       5.709  29.479  51.291  1.00  0.00     0.128 HD
BRANCH  18  20
HETATM   20  C   UNL     1       4.525  28.006  50.640  1.00  0.00     0.008 A 
HETATM   21  C   UNL     1       4.879  26.791  50.041  1.00  0.00     0.024 A 
HETATM   22  C   UNL     1       4.143  26.264  48.971  1.00  0.00     0.008 A 
HETATM   23  C   UNL     1       3.051  26.958  48.446  1.00  0.00    -0.062 A 
HETATM   24  C   UNL     1       2.299  26.436  47.258  1.00  0.00     0.048 C 
HETATM   25  C   UNL     1       2.703  28.184  49.018  1.00  0.00     0.008 A 
HETATM   26  C   UNL     1       3.434  28.699  50.095  1.00  0.00     0.024 A 
ENDBRANCH  18  20
ENDBRANCH  17  18
ENDBRANCH   1  17
TORSDOF 5
ENDMDL
MODEL 9
REMARK VINA RESULT:      -7.9      7.471     11.183
REMARK  5 active torsions:
REMARK  status: ('A' for Active; 'I' for Inactive)
REMARK    1  A    between atoms: C_5  and  N_6 
REMARK    2  A    between atoms: N_6  and  C_7 
REMARK    3  A    between atoms: C_7  and  C_8 
REMARK       I    between atoms: C_8  and  N_9 
REMARK    4  A    between atoms: N_9  and  N_10 
REMARK    5  A    between atoms: C_11  and  C_12 
ROOT
HETATM    1  C   UNL     1       5.721  25.783  51.346  1.00  0.00     0.250 C 
HETATM    2  N   UNL     1       5.704  26.831  50.435  1.00  0.00    -0.246 N 
HETATM    3  O   UNL     1       4.757  25.071  51.624  1.00  0.00    -0.270 OA
HETATM    4  H   UNL     1       6.561  27.332  50.222  1.00  0.00     0.192 HD
ENDROOT
BRANCH   2   5
HETATM    5  N   UNL     1       4.521  27.174  49.846  1.00  0.00    -0.184 NA
HETATM    6  C   UNL     1       4.342  26.807  48.620  1.00  0.00     0.152 C 
BRANCH   6   7
HETATM    7  C   UNL     1       3.111  27.181  47.951  1.00  0.00     0.011 A 
HETATM    8  C   UNL     1       2.761  28.451  47.385  1.00  0.00     0.004 A 
HETATM    9  C   UNL     1       1.465  28.336  46.871  1.00  0.00     0.043 A 
HETATM   10  C   UNL     1       3.419  29.692  47.265  1.00  0.00     0.014 A 
HETATM   11  C   UNL     1       0.798  29.399  46.249  1.00  0.00     0.030 A 
HETATM   12  N   UNL     1       1.047  27.050  47.106  1.00  0.00    -0.364 N 
HETATM   13  C   UNL     1       1.473  30.616  46.143  1.00  0.00     0.002 A 
HETATM   14  C   UNL     1       2.766  30.764  46.642  1.00  0.00     0.001 A 
HETATM   15  H   UNL     1       0.143  26.680  46.841  1.00  0.00     0.165 HD
HETATM   16  C   UNL     1       2.025  26.347  47.753  1.00  0.00     0.102 A 
ENDBRANCH   6   7
ENDBRANCH   2   5
BRANCH   1  17
HETATM   17  C   UNL     1       7.074  25.593  52.030  1.00  0.00     0.197 C 
BRANCH  17  18
HETATM   18  N   UNL     1       6.914  25.192  53.436  1.00  0.00    -0.284 NA
HETATM   19  H   UNL     1       7.276  25.898  54.080  1.00  0.00     0.128 HD
BRANCH  18  20
HETATM   20  C   UNL     1       7.371  23.918  53.821  1.00  0.00     0.008 A 
HETATM   21  C   UNL     1       7.771  22.922  52.923  1.00  0.00     0.024 A 
HETATM   22  C   UNL     1       8.132  21.642  53.366  1.00  0.00     0.008 A 
HETATM   23  C   UNL     1       8.067  21.313  54.722  1.00  0.00    -0.062 A 
HETATM   24  C   UNL     1       8.386  19.928  55.199  1.00  0.00     0.048 C 
HETATM   25  C   UNL     1       7.646  22.291  55.626  1.00  0.00     0.008 A 
HETATM   26  C   UNL     1       7.299  23.571  55.178  1.00  0.00     0.024 A 
ENDBRANCH  18  20
ENDBRANCH  17  18
ENDBRANCH   1  17
TORSDOF 5
ENDMDL
MODEL 10
REMARK VINA RESULT:      -7.8      2.468      3.056
REMARK  5 active torsions:
REMARK  status: ('A' for Active; 'I' for Inactive)
REMARK    1  A    between atoms: C_5  and  N_6 
REMARK    2  A    between atoms: N_6  and  C_7 
REMARK    3  A    between atoms: C_7  and  C_8 
REMARK       I    between atoms: C_8  and  N_9 
REMARK    4  A    between atoms: N_9  and  N_10 
REMARK    5  A    between atoms: C_11  and  C_12 
ROOT
HETATM    1  C   UNL     1       7.003  30.456  57.968  1.00  0.00     0.250 C 
HETATM    2  N   UNL     1       7.670  29.528  57.177  1.00  0.00    -0.246 N 
HETATM    3  O   UNL     1       5.862  30.869  57.765  1.00  0.00    -0.270 OA
HETATM    4  H   UNL     1       8.591  29.198  57.450  1.00  0.00     0.192 HD
ENDROOT
BRANCH   2   5
HETATM    5  N   UNL     1       7.069  29.082  56.035  1.00  0.00    -0.184 NA
HETATM    6  C   UNL     1       6.260  28.081  56.144  1.00  0.00     0.152 C 
BRANCH   6   7
HETATM    7  C   UNL     1       5.628  27.559  54.947  1.00  0.00     0.011 A 
HETATM    8  C   UNL     1       6.207  26.732  53.930  1.00  0.00     0.004 A 
HETATM    9  C   UNL     1       5.220  26.505  52.965  1.00  0.00     0.043 A 
HETATM   10  C   UNL     1       7.479  26.157  53.731  1.00  0.00     0.014 A 
HETATM   11  C   UNL     1       5.443  25.736  51.816  1.00  0.00     0.030 A 
HETATM   12  N   UNL     1       4.086  27.158  53.381  1.00  0.00    -0.364 N 
HETATM   13  C   UNL     1       6.712  25.179  51.644  1.00  0.00     0.002 A 
HETATM   14  C   UNL     1       7.718  25.383  52.587  1.00  0.00     0.001 A 
HETATM   15  H   UNL     1       3.209  27.168  52.877  1.00  0.00     0.165 HD
HETATM   16  C   UNL     1       4.318  27.795  54.569  1.00  0.00     0.102 A 
ENDBRANCH   6   7
ENDBRANCH   2   5
BRANCH   1  17
HETATM   17  C   UNL     1       7.840  30.971  59.138  1.00  0.00     0.197 C 
BRANCH  17  18
HETATM   18  N   UNL     1       7.414  32.316  59.553  1.00  0.00    -0.284 NA
HETATM   19  H   UNL     1       7.883  33.049  59.018  1.00  0.00     0.128 HD
BRANCH  18  20
HETATM   20  C   UNL     1       7.447  32.632  60.924  1.00  0.00     0.008 A 
HETATM   21  C   UNL     1       8.354  32.079  61.835  1.00  0.00     0.024 A 
HETATM   22  C   UNL     1       8.278  32.368  63.205  1.00  0.00     0.008 A 
HETATM   23  C   UNL     1       7.267  33.192  63.705  1.00  0.00    -0.062 A 
HETATM   24  C   UNL     1       7.137  33.453  65.176  1.00  0.00     0.048 C 
HETATM   25  C   UNL     1       6.341  33.730  62.809  1.00  0.00     0.008 A 
HETATM   26  C   UNL     1       6.431  33.447  61.440  1.00  0.00     0.024 A 
ENDBRANCH  18  20
ENDBRANCH  17  18
ENDBRANCH   1  17
TORSDOF 5
ENDMDL
