MODEL 1
REMARK VINA RESULT:     -10.6      0.000      0.000
REMARK  8 active torsions:
REMARK  status: ('A' for Active; 'I' for Inactive)
REMARK    1  A    between atoms: C_2  and  C_3 
REMARK    2  A    between atoms: C_3  and  C_4 
REMARK    3  A    between atoms: C_7  and  N_8 
REMARK       I    between atoms: N_8  and  C_9 
REMARK    4  A    between atoms: C_9  and  C_10 
REMARK    5  A    between atoms: C_13  and  N_14 
REMARK       I    between atoms: N_14  and  C_15 
REMARK    6  A    between atoms: C_15  and  C_16 
REMARK    7  A    between atoms: C_16  and  C_17 
REMARK    8  A    between atoms: C_19  and  N_20 
ROOT
HETATM    1  C   UNL     1       7.360  30.924  59.257  1.00  0.00     0.032 A 
HETATM    2  C   UNL     1       8.246  29.875  58.991  1.00  0.00     0.019 A 
HETATM    3  C   UNL     1       8.068  29.064  57.861  1.00  0.00     0.030 A 
HETATM    4  C   UNL     1       7.019  29.297  56.967  1.00  0.00     0.034 A 
HETATM    5  C   UNL     1       6.151  30.365  57.218  1.00  0.00     0.030 A 
HETATM    6  C   UNL     1       6.318  31.170  58.352  1.00  0.00     0.019 A 
ENDROOT
BRANCH   4   7
HETATM    7  N   UNL     1       6.784  28.528  55.806  1.00  0.00    -0.327 N 
HETATM    8  C   UNL     1       5.732  27.656  55.581  1.00  0.00     0.223 C 
HETATM    9  O   UNL     1       4.821  27.410  56.364  1.00  0.00    -0.273 OA
HETATM   10  H   UNL     1       7.438  28.667  55.046  1.00  0.00     0.169 HD
BRANCH   8  11
HETATM   11  C   UNL     1       5.833  26.953  54.238  1.00  0.00     0.128 C 
BRANCH  11  12
HETATM   12  C   UNL     1       7.158  26.211  54.111  1.00  0.00     0.158 C 
HETATM   13  S   UNL     1       7.349  24.921  55.381  1.00  0.00    -0.077 SA
HETATM   14  C   UNL     1       8.101  23.868  54.192  1.00  0.00     0.168 C 
HETATM   15  N   UNL     1       7.995  24.251  52.962  1.00  0.00    -0.189 NA
HETATM   16  C   UNL     1       7.292  25.427  52.820  1.00  0.00     0.260 C 
HETATM   17  O   UNL     1       6.863  25.833  51.747  1.00  0.00    -0.270 OA
BRANCH  14  18
HETATM   18  N   UNL     1       8.796  22.760  54.622  1.00  0.00    -0.360 N 
HETATM   19  C   UNL     1       8.804  22.302  56.014  1.00  0.00     0.125 C 
HETATM   20  C   UNL     1       7.830  21.132  56.172  1.00  0.00     0.020 C 
HETATM   21  C   UNL     1       8.148  20.007  55.188  1.00  0.00     0.003 C 
HETATM   22  C   UNL     1       8.214  20.537  53.757  1.00  0.00     0.020 C 
HETATM   23  C   UNL     1       9.174  21.720  53.660  1.00  0.00     0.125 C 
ENDBRANCH  14  18
ENDBRANCH  11  12
ENDBRANCH   8  11
ENDBRANCH   4   7
BRANCH   1  24
HETATM   24  C   UNL     1       7.491  31.823  60.447  1.00  0.00     0.256 C 
HETATM   25  N   UNL     1       6.578  31.612  61.467  1.00  0.00    -0.323 N 
HETATM   26  H   UNL     1       5.855  30.925  61.312  1.00  0.00     0.169 HD
HETATM   27  O   UNL     1       8.365  32.682  60.422  1.00  0.00    -0.267 OA
BRANCH  25  28
HETATM   28  C   UNL     1       6.485  32.307  62.694  1.00  0.00     0.035 A 
HETATM   29  C   UNL     1       7.577  32.643  63.491  1.00  0.00     0.030 A 
HETATM   30  C   UNL     1       7.399  33.348  64.689  1.00  0.00     0.010 A 
HETATM   31  C   UNL     1       6.123  33.739  65.114  1.00  0.00    -0.054 A 
HETATM   32  C   UNL     1       5.025  33.377  64.322  1.00  0.00     0.010 A 
HETATM   33  C   UNL     1       5.205  32.673  63.125  1.00  0.00     0.030 A 
BRANCH  31  34
HETATM   34  C   UNL     1       5.895  34.507  66.408  1.00  0.00     0.014 C 
HETATM   35  C   UNL     1       6.899  34.119  67.501  1.00  0.00     0.015 C 
BRANCH  34  36
HETATM   36  C   UNL     1       4.433  34.344  66.866  1.00  0.00     0.004 C 
HETATM   37  C   UNL     1       3.600  35.607  66.692  1.00  0.00     0.006 C 
ENDBRANCH  34  36
ENDBRANCH  31  34
ENDBRANCH  25  28
ENDBRANCH   1  24
TORSDOF 8
ENDMDL
MODEL 2
REMARK VINA RESULT:     -10.1      3.921     13.554
REMARK  8 active torsions:
REMARK  status: ('A' for Active; 'I' for Inactive)
REMARK    1  A    between atoms: C_2  and  C_3 
REMARK    2  A    between atoms: C_3  and  C_4 
REMARK    3  A    between atoms: C_7  and  N_8 
REMARK       I    between atoms: N_8  and  C_9 
REMARK    4  A    between atoms: C_9  and  C_10 
REMARK    5  A    between atoms: C_13  and  N_14 
REMARK       I    between atoms: N_14  and  C_15 
REMARK    6  A    between atoms: C_15  and  C_16 
REMARK    7  A    between atoms: C_16  and  C_17 
REMARK    8  A    between atoms: C_19  and  N_20 
ROOT
HETATM    1  C   UNL     1       8.036  30.500  59.297  1.00  0.00     0.032 A 
HETATM    2  C   UNL     1       8.705  30.459  60.525  1.00  0.00     0.019 A 
HETATM    3  C   UNL     1       8.347  31.337  61.558  1.00  0.00     0.030 A 
HETATM    4  C   UNL     1       7.307  32.256  61.393  1.00  0.00     0.034 A 
HETATM    5  C   UNL     1       6.619  32.275  60.175  1.00  0.00     0.030 A 
HETATM    6  C   UNL     1       6.981  31.409  59.136  1.00  0.00     0.019 A 
ENDROOT
BRANCH   4   7
HETATM    7  N   UNL     1       6.888  33.164  62.390  1.00  0.00    -0.327 N 
HETATM    8  C   UNL     1       5.892  32.967  63.332  1.00  0.00     0.223 C 
HETATM    9  O   UNL     1       5.206  31.958  63.455  1.00  0.00    -0.273 OA
HETATM   10  H   UNL     1       7.405  34.033  62.440  1.00  0.00     0.169 HD
BRANCH   8  11
HETATM   11  C   UNL     1       5.670  34.187  64.211  1.00  0.00     0.128 C 
BRANCH  11  12
HETATM   12  C   UNL     1       5.445  33.778  65.661  1.00  0.00     0.158 C 
HETATM   13  S   UNL     1       6.810  34.303  66.745  1.00  0.00    -0.077 SA
HETATM   14  C   UNL     1       5.651  34.698  68.006  1.00  0.00     0.168 C 
HETATM   15  N   UNL     1       4.413  34.725  67.636  1.00  0.00    -0.189 NA
HETATM   16  C   UNL     1       4.241  34.444  66.298  1.00  0.00     0.260 C 
HETATM   17  O   UNL     1       3.199  34.658  65.691  1.00  0.00    -0.270 OA
BRANCH  14  18
HETATM   18  N   UNL     1       6.101  34.888  69.293  1.00  0.00    -0.360 N 
HETATM   19  C   UNL     1       5.807  33.967  70.395  1.00  0.00     0.125 C 
HETATM   20  C   UNL     1       7.015  33.061  70.639  1.00  0.00     0.020 C 
HETATM   21  C   UNL     1       8.283  33.878  70.888  1.00  0.00     0.003 C 
HETATM   22  C   UNL     1       8.512  34.885  69.761  1.00  0.00     0.020 C 
HETATM   23  C   UNL     1       7.268  35.741  69.538  1.00  0.00     0.125 C 
ENDBRANCH  14  18
ENDBRANCH  11  12
ENDBRANCH   8  11
ENDBRANCH   4   7
BRANCH   1  24
HETATM   24  C   UNL     1       8.372  29.593  58.153  1.00  0.00     0.256 C 
HETATM   25  N   UNL     1       7.460  28.585  57.895  1.00  0.00    -0.323 N 
HETATM   26  H   UNL     1       6.679  28.487  58.527  1.00  0.00     0.169 HD
HETATM   27  O   UNL     1       9.424  29.791  57.556  1.00  0.00    -0.267 OA
BRANCH  25  28
HETATM   28  C   UNL     1       7.526  27.606  56.878  1.00  0.00     0.035 A 
HETATM   29  C   UNL     1       7.358  27.871  55.521  1.00  0.00     0.030 A 
HETATM   30  C   UNL     1       7.455  26.842  54.573  1.00  0.00     0.010 A 
HETATM   31  C   UNL     1       7.730  25.525  54.962  1.00  0.00    -0.054 A 
HETATM   32  C   UNL     1       7.874  25.259  56.331  1.00  0.00     0.010 A 
HETATM   33  C   UNL     1       7.777  26.287  57.276  1.00  0.00     0.030 A 
BRANCH  31  34
HETATM   34  C   UNL     1       7.844  24.386  53.959  1.00  0.00     0.014 C 
HETATM   35  C   UNL     1       6.496  24.037  53.317  1.00  0.00     0.015 C 
BRANCH  34  36
HETATM   36  C   UNL     1       8.514  23.167  54.622  1.00  0.00     0.004 C 
HETATM   37  C   UNL     1       7.690  21.891  54.517  1.00  0.00     0.006 C 
ENDBRANCH  34  36
ENDBRANCH  31  34
ENDBRANCH  25  28
ENDBRANCH   1  24
TORSDOF 8
ENDMDL
MODEL 3
REMARK VINA RESULT:     -10.0      2.961     12.298
REMARK  8 active torsions:
REMARK  status: ('A' for Active; 'I' for Inactive)
REMARK    1  A    between atoms: C_2  and  C_3 
REMARK    2  A    between atoms: C_3  and  C_4 
REMARK    3  A    between atoms: C_7  and  N_8 
REMARK       I    between atoms: N_8  and  C_9 
REMARK    4  A    between atoms: C_9  and  C_10 
REMARK    5  A    between atoms: C_13  and  N_14 
REMARK       I    between atoms: N_14  and  C_15 
REMARK    6  A    between atoms: C_15  and  C_16 
REMARK    7  A    between atoms: C_16  and  C_17 
REMARK    8  A    between atoms: C_19  and  N_20 
ROOT
HETATM    1  C   UNL     1       5.975  28.678  55.759  1.00  0.00     0.032 A 
HETATM    2  C   UNL     1       4.792  29.214  55.242  1.00  0.00     0.019 A 
HETATM    3  C   UNL     1       4.142  30.267  55.901  1.00  0.00     0.030 A 
HETATM    4  C   UNL     1       4.669  30.816  57.073  1.00  0.00     0.034 A 
HETATM    5  C   UNL     1       5.869  30.299  57.573  1.00  0.00     0.030 A 
HETATM    6  C   UNL     1       6.515  29.239  56.925  1.00  0.00     0.019 A 
ENDROOT
BRANCH   4   7
HETATM    7  N   UNL     1       4.074  31.881  57.785  1.00  0.00    -0.327 N 
HETATM    8  C   UNL     1       4.429  33.219  57.736  1.00  0.00     0.223 C 
HETATM    9  O   UNL     1       5.327  33.701  57.054  1.00  0.00    -0.273 OA
HETATM   10  H   UNL     1       3.277  31.636  58.359  1.00  0.00     0.169 HD
BRANCH   8  11
HETATM   11  C   UNL     1       3.607  34.076  58.684  1.00  0.00     0.128 C 
BRANCH  11  12
HETATM   12  C   UNL     1       3.431  33.383  60.029  1.00  0.00     0.158 C 
HETATM   13  S   UNL     1       5.016  32.822  60.727  1.00  0.00    -0.077 SA
HETATM   14  C   UNL     1       4.471  33.292  62.331  1.00  0.00     0.168 C 
HETATM   15  N   UNL     1       3.402  34.018  62.366  1.00  0.00    -0.189 NA
HETATM   16  C   UNL     1       2.896  34.296  61.115  1.00  0.00     0.260 C 
HETATM   17  O   UNL     1       2.051  35.158  60.904  1.00  0.00    -0.270 OA
BRANCH  14  18
HETATM   18  N   UNL     1       5.150  32.824  63.433  1.00  0.00    -0.360 N 
HETATM   19  C   UNL     1       6.395  32.055  63.348  1.00  0.00     0.125 C 
HETATM   20  C   UNL     1       7.585  32.977  63.629  1.00  0.00     0.020 C 
HETATM   21  C   UNL     1       7.432  33.688  64.973  1.00  0.00     0.003 C 
HETATM   22  C   UNL     1       6.087  34.409  65.058  1.00  0.00     0.020 C 
HETATM   23  C   UNL     1       4.939  33.455  64.740  1.00  0.00     0.125 C 
ENDBRANCH  14  18
ENDBRANCH  11  12
ENDBRANCH   8  11
ENDBRANCH   4   7
BRANCH   1  24
HETATM   24  C   UNL     1       6.716  27.551  55.107  1.00  0.00     0.256 C 
HETATM   25  N   UNL     1       6.460  26.288  55.611  1.00  0.00    -0.323 N 
HETATM   26  H   UNL     1       5.854  26.220  56.417  1.00  0.00     0.169 HD
HETATM   27  O   UNL     1       7.501  27.828  54.207  1.00  0.00    -0.267 OA
BRANCH  25  28
HETATM   28  C   UNL     1       7.011  25.061  55.178  1.00  0.00     0.035 A 
HETATM   29  C   UNL     1       6.547  24.336  54.082  1.00  0.00     0.030 A 
HETATM   30  C   UNL     1       7.162  23.133  53.709  1.00  0.00     0.010 A 
HETATM   31  C   UNL     1       8.259  22.631  54.420  1.00  0.00    -0.054 A 
HETATM   32  C   UNL     1       8.707  23.351  55.535  1.00  0.00     0.010 A 
HETATM   33  C   UNL     1       8.092  24.553  55.907  1.00  0.00     0.030 A 
BRANCH  31  34
HETATM   34  C   UNL     1       8.951  21.329  54.039  1.00  0.00     0.014 C 
HETATM   35  C   UNL     1       8.272  20.635  52.852  1.00  0.00     0.015 C 
BRANCH  34  36
HETATM   36  C   UNL     1       9.063  20.413  55.272  1.00  0.00     0.004 C 
HETATM   37  C   UNL     1       7.743  20.222  56.007  1.00  0.00     0.006 C 
ENDBRANCH  34  36
ENDBRANCH  31  34
ENDBRANCH  25  28
ENDBRANCH   1  24
TORSDOF 8
ENDMDL
MODEL 4
REMARK VINA RESULT:     -10.0      3.038     12.887
REMARK  8 active torsions:
REMARK  status: ('A' for Active; 'I' for Inactive)
REMARK    1  A    between atoms: C_2  and  C_3 
REMARK    2  A    between atoms: C_3  and  C_4 
REMARK    3  A    between atoms: C_7  and  N_8 
REMARK       I    between atoms: N_8  and  C_9 
REMARK    4  A    between atoms: C_9  and  C_10 
REMARK    5  A    between atoms: C_13  and  N_14 
REMARK       I    between atoms: N_14  and  C_15 
REMARK    6  A    between atoms: C_15  and  C_16 
REMARK    7  A    between atoms: C_16  and  C_17 
REMARK    8  A    between atoms: C_19  and  N_20 
ROOT
HETATM    1  C   UNL     1       6.579  28.589  56.516  1.00  0.00     0.032 A 
HETATM    2  C   UNL     1       7.412  29.432  57.259  1.00  0.00     0.019 A 
HETATM    3  C   UNL     1       6.867  30.463  58.037  1.00  0.00     0.030 A 
HETATM    4  C   UNL     1       5.485  30.659  58.105  1.00  0.00     0.034 A 
HETATM    5  C   UNL     1       4.651  29.796  57.385  1.00  0.00     0.030 A 
HETATM    6  C   UNL     1       5.192  28.772  56.596  1.00  0.00     0.019 A 
ENDROOT
BRANCH   4   7
HETATM    7  N   UNL     1       4.866  31.669  58.873  1.00  0.00    -0.327 N 
HETATM    8  C   UNL     1       4.872  33.031  58.621  1.00  0.00     0.223 C 
HETATM    9  O   UNL     1       5.421  33.585  57.675  1.00  0.00    -0.273 OA
HETATM   10  H   UNL     1       4.327  31.350  59.669  1.00  0.00     0.169 HD
BRANCH   8  11
HETATM   11  C   UNL     1       4.151  33.827  59.696  1.00  0.00     0.128 C 
BRANCH  11  12
HETATM   12  C   UNL     1       4.863  33.699  61.036  1.00  0.00     0.158 C 
HETATM   13  S   UNL     1       4.984  35.293  61.907  1.00  0.00    -0.077 SA
HETATM   14  C   UNL     1       4.672  34.478  63.433  1.00  0.00     0.168 C 
HETATM   15  N   UNL     1       4.254  33.258  63.338  1.00  0.00    -0.189 NA
HETATM   16  C   UNL     1       4.122  32.831  62.035  1.00  0.00     0.260 C 
HETATM   17  O   UNL     1       3.514  31.817  61.714  1.00  0.00    -0.270 OA
BRANCH  14  18
HETATM   18  N   UNL     1       4.942  35.136  64.611  1.00  0.00    -0.360 N 
HETATM   19  C   UNL     1       4.014  36.082  65.239  1.00  0.00     0.125 C 
HETATM   20  C   UNL     1       3.269  35.386  66.380  1.00  0.00     0.020 C 
HETATM   21  C   UNL     1       4.242  34.772  67.386  1.00  0.00     0.003 C 
HETATM   22  C   UNL     1       5.246  33.857  66.686  1.00  0.00     0.020 C 
HETATM   23  C   UNL     1       5.938  34.589  65.539  1.00  0.00     0.125 C 
ENDBRANCH  14  18
ENDBRANCH  11  12
ENDBRANCH   8  11
ENDBRANCH   4   7
BRANCH   1  24
HETATM   24  C   UNL     1       7.098  27.472  55.662  1.00  0.00     0.256 C 
HETATM   25  N   UNL     1       6.980  26.200  56.195  1.00  0.00    -0.323 N 
HETATM   26  H   UNL     1       6.624  26.118  57.136  1.00  0.00     0.169 HD
HETATM   27  O   UNL     1       7.602  27.764  54.584  1.00  0.00    -0.267 OA
BRANCH  25  28
HETATM   28  C   UNL     1       7.377  24.980  55.603  1.00  0.00     0.035 A 
HETATM   29  C   UNL     1       6.748  24.401  54.503  1.00  0.00     0.030 A 
HETATM   30  C   UNL     1       7.215  23.193  53.965  1.00  0.00     0.010 A 
HETATM   31  C   UNL     1       8.328  22.542  54.512  1.00  0.00    -0.054 A 
HETATM   32  C   UNL     1       8.942  23.116  55.633  1.00  0.00     0.010 A 
HETATM   33  C   UNL     1       8.475  24.322  56.169  1.00  0.00     0.030 A 
BRANCH  31  34
HETATM   34  C   UNL     1       8.862  21.231  53.951  1.00  0.00     0.014 C 
HETATM   35  C   UNL     1       7.966  20.665  52.842  1.00  0.00     0.015 C 
BRANCH  34  36
HETATM   36  C   UNL     1       9.094  20.225  55.094  1.00  0.00     0.004 C 
HETATM   37  C   UNL     1       7.867  20.010  55.969  1.00  0.00     0.006 C 
ENDBRANCH  34  36
ENDBRANCH  31  34
ENDBRANCH  25  28
ENDBRANCH   1  24
TORSDOF 8
ENDMDL
MODEL 5
REMARK VINA RESULT:      -9.8      1.400      1.837
REMARK  8 active torsions:
REMARK  status: ('A' for Active; 'I' for Inactive)
REMARK    1  A    between atoms: C_2  and  C_3 
REMARK    2  A    between atoms: C_3  and  C_4 
REMARK    3  A    between atoms: C_7  and  N_8 
REMARK       I    between atoms: N_8  and  C_9 
REMARK    4  A    between atoms: C_9  and  C_10 
REMARK    5  A    between atoms: C_13  and  N_14 
REMARK       I    between atoms: N_14  and  C_15 
REMARK    6  A    between atoms: C_15  and  C_16 
REMARK    7  A    between atoms: C_16  and  C_17 
REMARK    8  A    between atoms: C_19  and  N_20 
ROOT
HETATM    1  C   UNL     1       6.922  30.740  58.072  1.00  0.00     0.032 A 
HETATM    2  C   UNL     1       7.616  29.541  57.883  1.00  0.00     0.019 A 
HETATM    3  C   UNL     1       7.312  28.707  56.798  1.00  0.00     0.030 A 
HETATM    4  C   UNL     1       6.326  29.062  55.873  1.00  0.00     0.034 A 
HETATM    5  C   UNL     1       5.654  30.277  56.045  1.00  0.00     0.030 A 
HETATM    6  C   UNL     1       5.946  31.107  57.136  1.00  0.00     0.019 A 
ENDROOT
BRANCH   4   7
HETATM    7  N   UNL     1       5.973  28.278  54.753  1.00  0.00    -0.327 N 
HETATM    8  C   UNL     1       6.822  27.787  53.776  1.00  0.00     0.223 C 
HETATM    9  O   UNL     1       8.036  27.954  53.727  1.00  0.00    -0.273 OA
HETATM   10  H   UNL     1       4.996  28.017  54.688  1.00  0.00     0.169 HD
BRANCH   8  11
HETATM   11  C   UNL     1       6.083  27.030  52.685  1.00  0.00     0.128 C 
BRANCH  11  12
HETATM   12  C   UNL     1       6.198  25.525  52.895  1.00  0.00     0.158 C 
HETATM   13  S   UNL     1       7.879  24.911  52.567  1.00  0.00    -0.077 SA
HETATM   14  C   UNL     1       7.738  23.808  53.929  1.00  0.00     0.168 C 
HETATM   15  N   UNL     1       6.733  24.020  54.715  1.00  0.00    -0.189 NA
HETATM   16  C   UNL     1       5.962  25.094  54.330  1.00  0.00     0.260 C 
HETATM   17  O   UNL     1       5.124  25.619  55.054  1.00  0.00    -0.270 OA
BRANCH  14  18
HETATM   18  N   UNL     1       8.636  22.772  54.048  1.00  0.00    -0.360 N 
HETATM   19  C   UNL     1       9.309  22.428  55.303  1.00  0.00     0.125 C 
HETATM   20  C   UNL     1       8.607  21.231  55.950  1.00  0.00     0.020 C 
HETATM   21  C   UNL     1       8.529  20.046  54.988  1.00  0.00     0.003 C 
HETATM   22  C   UNL     1       7.897  20.462  53.660  1.00  0.00     0.020 C 
HETATM   23  C   UNL     1       8.614  21.675  53.074  1.00  0.00     0.125 C 
ENDBRANCH  14  18
ENDBRANCH  11  12
ENDBRANCH   8  11
ENDBRANCH   4   7
BRANCH   1  24
HETATM   24  C   UNL     1       7.195  31.672  59.212  1.00  0.00     0.256 C 
HETATM   25  N   UNL     1       6.199  31.765  60.169  1.00  0.00    -0.323 N 
HETATM   26  H   UNL     1       5.341  31.260  60.000  1.00  0.00     0.169 HD
HETATM   27  O   UNL     1       8.252  32.294  59.202  1.00  0.00    -0.267 OA
BRANCH  25  28
HETATM   28  C   UNL     1       6.203  32.555  61.340  1.00  0.00     0.035 A 
HETATM   29  C   UNL     1       5.541  33.775  61.466  1.00  0.00     0.030 A 
HETATM   30  C   UNL     1       5.582  34.490  62.671  1.00  0.00     0.010 A 
HETATM   31  C   UNL     1       6.282  33.998  63.780  1.00  0.00    -0.054 A 
HETATM   32  C   UNL     1       6.967  32.783  63.640  1.00  0.00     0.010 A 
HETATM   33  C   UNL     1       6.924  32.069  62.436  1.00  0.00     0.030 A 
BRANCH  31  34
HETATM   34  C   UNL     1       6.345  34.748  65.103  1.00  0.00     0.014 C 
HETATM   35  C   UNL     1       6.850  33.864  66.250  1.00  0.00     0.015 C 
BRANCH  34  36
HETATM   36  C   UNL     1       4.979  35.389  65.410  1.00  0.00     0.004 C 
HETATM   37  C   UNL     1       3.989  34.427  66.052  1.00  0.00     0.006 C 
ENDBRANCH  34  36
ENDBRANCH  31  34
ENDBRANCH  25  28
ENDBRANCH   1  24
TORSDOF 8
ENDMDL
MODEL 6
REMARK VINA RESULT:      -9.8      3.480     12.703
REMARK  8 active torsions:
REMARK  status: ('A' for Active; 'I' for Inactive)
REMARK    1  A    between atoms: C_2  and  C_3 
REMARK    2  A    between atoms: C_3  and  C_4 
REMARK    3  A    between atoms: C_7  and  N_8 
REMARK       I    between atoms: N_8  and  C_9 
REMARK    4  A    between atoms: C_9  and  C_10 
REMARK    5  A    between atoms: C_13  and  N_14 
REMARK       I    between atoms: N_14  and  C_15 
REMARK    6  A    between atoms: C_15  and  C_16 
REMARK    7  A    between atoms: C_16  and  C_17 
REMARK    8  A    between atoms: C_19  and  N_20 
ROOT
HETATM    1  C   UNL     1       7.107  29.209  57.805  1.00  0.00     0.032 A 
HETATM    2  C   UNL     1       7.730  30.137  58.645  1.00  0.00     0.019 A 
HETATM    3  C   UNL     1       7.079  31.329  58.995  1.00  0.00     0.030 A 
HETATM    4  C   UNL     1       5.791  31.607  58.530  1.00  0.00     0.034 A 
HETATM    5  C   UNL     1       5.156  30.664  57.714  1.00  0.00     0.030 A 
HETATM    6  C   UNL     1       5.808  29.478  57.352  1.00  0.00     0.019 A 
ENDROOT
BRANCH   4   7
HETATM    7  N   UNL     1       5.072  32.781  58.846  1.00  0.00    -0.327 N 
HETATM    8  C   UNL     1       3.794  32.859  59.374  1.00  0.00     0.223 C 
HETATM    9  O   UNL     1       3.072  31.910  59.658  1.00  0.00    -0.273 OA
HETATM   10  H   UNL     1       5.568  33.652  58.707  1.00  0.00     0.169 HD
BRANCH   8  11
HETATM   11  C   UNL     1       3.314  34.293  59.531  1.00  0.00     0.128 C 
BRANCH  11  12
HETATM   12  C   UNL     1       3.063  34.624  60.996  1.00  0.00     0.158 C 
HETATM   13  S   UNL     1       4.436  34.095  62.067  1.00  0.00    -0.077 SA
HETATM   14  C   UNL     1       4.253  35.562  63.019  1.00  0.00     0.168 C 
HETATM   15  N   UNL     1       3.496  36.473  62.500  1.00  0.00    -0.189 NA
HETATM   16  C   UNL     1       2.980  36.113  61.274  1.00  0.00     0.260 C 
HETATM   17  O   UNL     1       2.453  36.907  60.505  1.00  0.00    -0.270 OA
BRANCH  14  18
HETATM   18  N   UNL     1       4.852  35.636  64.257  1.00  0.00    -0.360 N 
HETATM   19  C   UNL     1       4.352  36.480  65.346  1.00  0.00     0.125 C 
HETATM   20  C   UNL     1       3.560  35.622  66.335  1.00  0.00     0.020 C 
HETATM   21  C   UNL     1       4.395  34.448  66.846  1.00  0.00     0.003 C 
HETATM   22  C   UNL     1       4.968  33.640  65.683  1.00  0.00     0.020 C 
HETATM   23  C   UNL     1       5.721  34.546  64.711  1.00  0.00     0.125 C 
ENDBRANCH  14  18
ENDBRANCH  11  12
ENDBRANCH   8  11
ENDBRANCH   4   7
BRANCH   1  24
HETATM   24  C   UNL     1       7.749  27.921  57.391  1.00  0.00     0.256 C 
HETATM   25  N   UNL     1       6.884  26.873  57.128  1.00  0.00    -0.323 N 
HETATM   26  H   UNL     1       5.900  27.024  57.298  1.00  0.00     0.169 HD
HETATM   27  O   UNL     1       8.973  27.882  57.341  1.00  0.00    -0.267 OA
BRANCH  25  28
HETATM   28  C   UNL     1       7.220  25.564  56.715  1.00  0.00     0.035 A 
HETATM   29  C   UNL     1       8.085  24.720  57.409  1.00  0.00     0.030 A 
HETATM   30  C   UNL     1       8.354  23.427  56.938  1.00  0.00     0.010 A 
HETATM   31  C   UNL     1       7.758  22.947  55.765  1.00  0.00    -0.054 A 
HETATM   32  C   UNL     1       6.908  23.807  55.058  1.00  0.00     0.010 A 
HETATM   33  C   UNL     1       6.640  25.099  55.530  1.00  0.00     0.030 A 
BRANCH  31  34
HETATM   34  C   UNL     1       8.027  21.548  55.228  1.00  0.00     0.014 C 
HETATM   35  C   UNL     1       8.855  20.700  56.201  1.00  0.00     0.015 C 
BRANCH  34  36
HETATM   36  C   UNL     1       8.667  21.635  53.830  1.00  0.00     0.004 C 
HETATM   37  C   UNL     1       8.187  20.550  52.876  1.00  0.00     0.006 C 
ENDBRANCH  34  36
ENDBRANCH  31  34
ENDBRANCH  25  28
ENDBRANCH   1  24
TORSDOF 8
ENDMDL
MODEL 7
REMARK VINA RESULT:      -9.3      3.988     13.183
REMARK  8 active torsions:
REMARK  status: ('A' for Active; 'I' for Inactive)
REMARK    1  A    between atoms: C_2  and  C_3 
REMARK    2  A    between atoms: C_3  and  C_4 
REMARK    3  A    between atoms: C_7  and  N_8 
REMARK       I    between atoms: N_8  and  C_9 
REMARK    4  A    between atoms: C_9  and  C_10 
REMARK    5  A    between atoms: C_13  and  N_14 
REMARK       I    between atoms: N_14  and  C_15 
REMARK    6  A    between atoms: C_15  and  C_16 
REMARK    7  A    between atoms: C_16  and  C_17 
REMARK    8  A    between atoms: C_19  and  N_20 
ROOT
HETATM    1  C   UNL     1       7.166  28.753  55.693  1.00  0.00     0.032 A 
HETATM    2  C   UNL     1       6.247  29.703  56.149  1.00  0.00     0.019 A 
HETATM    3  C   UNL     1       6.374  30.256  57.431  1.00  0.00     0.030 A 
HETATM    4  C   UNL     1       7.428  29.887  58.272  1.00  0.00     0.034 A 
HETATM    5  C   UNL     1       8.364  28.959  57.803  1.00  0.00     0.030 A 
HETATM    6  C   UNL     1       8.233  28.395  56.528  1.00  0.00     0.019 A 
ENDROOT
BRANCH   4   7
HETATM    7  N   UNL     1       7.623  30.408  59.570  1.00  0.00    -0.327 N 
HETATM    8  C   UNL     1       8.330  31.547  59.915  1.00  0.00     0.223 C 
HETATM    9  O   UNL     1       8.906  32.300  59.137  1.00  0.00    -0.273 OA
HETATM   10  H   UNL     1       7.157  29.909  60.319  1.00  0.00     0.169 HD
BRANCH   8  11
HETATM   11  C   UNL     1       8.382  31.770  61.418  1.00  0.00     0.128 C 
BRANCH  11  12
HETATM   12  C   UNL     1       7.638  33.042  61.803  1.00  0.00     0.158 C 
HETATM   13  S   UNL     1       6.011  33.162  60.994  1.00  0.00    -0.077 SA
HETATM   14  C   UNL     1       5.330  33.831  62.470  1.00  0.00     0.168 C 
HETATM   15  N   UNL     1       6.078  33.738  63.520  1.00  0.00    -0.189 NA
HETATM   16  C   UNL     1       7.280  33.112  63.276  1.00  0.00     0.260 C 
HETATM   17  O   UNL     1       8.020  32.700  64.161  1.00  0.00    -0.270 OA
BRANCH  14  18
HETATM   18  N   UNL     1       4.105  34.457  62.419  1.00  0.00    -0.360 N 
HETATM   19  C   UNL     1       3.491  35.124  63.570  1.00  0.00     0.125 C 
HETATM   20  C   UNL     1       3.707  36.635  63.459  1.00  0.00     0.020 C 
HETATM   21  C   UNL     1       3.186  37.176  62.128  1.00  0.00     0.003 C 
HETATM   22  C   UNL     1       3.784  36.402  60.954  1.00  0.00     0.020 C 
HETATM   23  C   UNL     1       3.568  34.901  61.128  1.00  0.00     0.125 C 
ENDBRANCH  14  18
ENDBRANCH  11  12
ENDBRANCH   8  11
ENDBRANCH   4   7
BRANCH   1  24
HETATM   24  C   UNL     1       7.085  28.121  54.337  1.00  0.00     0.256 C 
HETATM   25  N   UNL     1       5.952  28.420  53.599  1.00  0.00    -0.323 N 
HETATM   26  H   UNL     1       5.238  28.978  54.044  1.00  0.00     0.169 HD
HETATM   27  O   UNL     1       7.998  27.379  53.997  1.00  0.00    -0.267 OA
BRANCH  25  28
HETATM   28  C   UNL     1       5.630  27.970  52.299  1.00  0.00     0.035 A 
HETATM   29  C   UNL     1       5.392  26.638  51.966  1.00  0.00     0.030 A 
HETATM   30  C   UNL     1       5.062  26.277  50.653  1.00  0.00     0.010 A 
HETATM   31  C   UNL     1       4.957  27.242  49.643  1.00  0.00    -0.054 A 
HETATM   32  C   UNL     1       5.222  28.577  49.977  1.00  0.00     0.010 A 
HETATM   33  C   UNL     1       5.551  28.936  51.289  1.00  0.00     0.030 A 
BRANCH  31  34
HETATM   34  C   UNL     1       4.599  26.884  48.207  1.00  0.00     0.014 C 
HETATM   35  C   UNL     1       4.834  28.050  47.240  1.00  0.00     0.015 C 
BRANCH  34  36
HETATM   36  C   UNL     1       3.156  26.346  48.143  1.00  0.00     0.004 C 
HETATM   37  C   UNL     1       3.075  24.873  47.766  1.00  0.00     0.006 C 
ENDBRANCH  34  36
ENDBRANCH  31  34
ENDBRANCH  25  28
ENDBRANCH   1  24
TORSDOF 8
ENDMDL
MODEL 8
REMARK VINA RESULT:      -9.3      3.965     12.492
REMARK  8 active torsions:
REMARK  status: ('A' for Active; 'I' for Inactive)
REMARK    1  A    between atoms: C_2  and  C_3 
REMARK    2  A    between atoms: C_3  and  C_4 
REMARK    3  A    between atoms: C_7  and  N_8 
REMARK       I    between atoms: N_8  and  C_9 
REMARK    4  A    between atoms: C_9  and  C_10 
REMARK    5  A    between atoms: C_13  and  N_14 
REMARK       I    between atoms: N_14  and  C_15 
REMARK    6  A    between atoms: C_15  and  C_16 
REMARK    7  A    between atoms: C_16  and  C_17 
REMARK    8  A    between atoms: C_19  and  N_20 
ROOT
HETATM    1  C   UNL     1       8.347  30.544  59.551  1.00  0.00     0.032 A 
HETATM    2  C   UNL     1       9.149  30.457  60.694  1.00  0.00     0.019 A 
HETATM    3  C   UNL     1       8.921  31.303  61.788  1.00  0.00     0.030 A 
HETATM    4  C   UNL     1       7.879  32.235  61.771  1.00  0.00     0.034 A 
HETATM    5  C   UNL     1       7.059  32.300  60.639  1.00  0.00     0.030 A 
HETATM    6  C   UNL     1       7.291  31.465  59.539  1.00  0.00     0.019 A 
ENDROOT
BRANCH   4   7
HETATM    7  N   UNL     1       7.586  33.113  62.837  1.00  0.00    -0.327 N 
HETATM    8  C   UNL     1       6.501  33.050  63.695  1.00  0.00     0.223 C 
HETATM    9  O   UNL     1       5.610  32.208  63.668  1.00  0.00    -0.273 OA
HETATM   10  H   UNL     1       8.270  33.839  63.011  1.00  0.00     0.169 HD
BRANCH   8  11
HETATM   11  C   UNL     1       6.476  34.199  64.690  1.00  0.00     0.128 C 
BRANCH  11  12
HETATM   12  C   UNL     1       5.443  35.243  64.287  1.00  0.00     0.158 C 
HETATM   13  S   UNL     1       5.552  35.675  62.522  1.00  0.00    -0.077 SA
HETATM   14  C   UNL     1       3.798  35.752  62.436  1.00  0.00     0.168 C 
HETATM   15  N   UNL     1       3.168  35.265  63.455  1.00  0.00    -0.189 NA
HETATM   16  C   UNL     1       4.010  34.761  64.422  1.00  0.00     0.260 C 
HETATM   17  O   UNL     1       3.634  34.040  65.337  1.00  0.00    -0.270 OA
BRANCH  14  18
HETATM   18  N   UNL     1       3.206  36.366  61.355  1.00  0.00    -0.360 N 
HETATM   19  C   UNL     1       3.328  37.799  61.074  1.00  0.00     0.125 C 
HETATM   20  C   UNL     1       4.382  38.019  59.987  1.00  0.00     0.020 C 
HETATM   21  C   UNL     1       4.067  37.206  58.733  1.00  0.00     0.003 C 
HETATM   22  C   UNL     1       3.864  35.731  59.076  1.00  0.00     0.020 C 
HETATM   23  C   UNL     1       2.827  35.568  60.184  1.00  0.00     0.125 C 
ENDBRANCH  14  18
ENDBRANCH  11  12
ENDBRANCH   8  11
ENDBRANCH   4   7
BRANCH   1  24
HETATM   24  C   UNL     1       8.540  29.672  58.348  1.00  0.00     0.256 C 
HETATM   25  N   UNL     1       7.633  28.637  58.200  1.00  0.00    -0.323 N 
HETATM   26  H   UNL     1       6.957  28.499  58.937  1.00  0.00     0.169 HD
HETATM   27  O   UNL     1       9.487  29.919  57.609  1.00  0.00    -0.267 OA
BRANCH  25  28
HETATM   28  C   UNL     1       7.582  27.681  57.161  1.00  0.00     0.035 A 
HETATM   29  C   UNL     1       7.957  26.347  57.302  1.00  0.00     0.030 A 
HETATM   30  C   UNL     1       7.861  25.459  56.222  1.00  0.00     0.010 A 
HETATM   31  C   UNL     1       7.380  25.883  54.977  1.00  0.00    -0.054 A 
HETATM   32  C   UNL     1       7.027  27.232  54.833  1.00  0.00     0.010 A 
HETATM   33  C   UNL     1       7.124  28.119  55.913  1.00  0.00     0.030 A 
BRANCH  31  34
HETATM   34  C   UNL     1       7.261  24.944  53.786  1.00  0.00     0.014 C 
HETATM   35  C   UNL     1       5.803  24.729  53.357  1.00  0.00     0.015 C 
BRANCH  34  36
HETATM   36  C   UNL     1       7.989  23.620  54.084  1.00  0.00     0.004 C 
HETATM   37  C   UNL     1       7.884  22.604  52.955  1.00  0.00     0.006 C 
ENDBRANCH  34  36
ENDBRANCH  31  34
ENDBRANCH  25  28
ENDBRANCH   1  24
TORSDOF 8
ENDMDL
MODEL 9
REMARK VINA RESULT:      -9.2      2.961      4.628
REMARK  8 active torsions:
REMARK  status: ('A' for Active; 'I' for Inactive)
REMARK    1  A    between atoms: C_2  and  C_3 
REMARK    2  A    between atoms: C_3  and  C_4 
REMARK    3  A    between atoms: C_7  and  N_8 
REMARK       I    between atoms: N_8  and  C_9 
REMARK    4  A    between atoms: C_9  and  C_10 
REMARK    5  A    between atoms: C_13  and  N_14 
REMARK       I    between atoms: N_14  and  C_15 
REMARK    6  A    between atoms: C_15  and  C_16 
REMARK    7  A    between atoms: C_16  and  C_17 
REMARK    8  A    between atoms: C_19  and  N_20 
ROOT
HETATM    1  C   UNL     1       7.640  30.521  58.873  1.00  0.00     0.032 A 
HETATM    2  C   UNL     1       8.789  29.801  58.530  1.00  0.00     0.019 A 
HETATM    3  C   UNL     1       8.736  28.810  57.539  1.00  0.00     0.030 A 
HETATM    4  C   UNL     1       7.546  28.534  56.861  1.00  0.00     0.034 A 
HETATM    5  C   UNL     1       6.405  29.277  57.184  1.00  0.00     0.030 A 
HETATM    6  C   UNL     1       6.450  30.259  58.182  1.00  0.00     0.019 A 
ENDROOT
BRANCH   4   7
HETATM    7  N   UNL     1       7.420  27.558  55.848  1.00  0.00    -0.327 N 
HETATM    8  C   UNL     1       7.889  27.640  54.548  1.00  0.00     0.223 C 
HETATM    9  O   UNL     1       8.499  28.585  54.060  1.00  0.00    -0.273 OA
HETATM   10  H   UNL     1       6.974  26.692  56.124  1.00  0.00     0.169 HD
BRANCH   8  11
HETATM   11  C   UNL     1       7.519  26.422  53.716  1.00  0.00     0.128 C 
BRANCH  11  12
HETATM   12  C   UNL     1       6.119  26.568  53.133  1.00  0.00     0.158 C 
HETATM   13  S   UNL     1       6.027  27.892  51.887  1.00  0.00    -0.077 SA
HETATM   14  C   UNL     1       4.951  26.898  50.915  1.00  0.00     0.168 C 
HETATM   15  N   UNL     1       4.866  25.658  51.271  1.00  0.00    -0.189 NA
HETATM   16  C   UNL     1       5.657  25.350  52.356  1.00  0.00     0.260 C 
HETATM   17  O   UNL     1       5.919  24.203  52.698  1.00  0.00    -0.270 OA
BRANCH  14  18
HETATM   18  N   UNL     1       4.229  27.485  49.901  1.00  0.00    -0.360 N 
HETATM   19  C   UNL     1       4.047  28.933  49.773  1.00  0.00     0.125 C 
HETATM   20  C   UNL     1       5.017  29.480  48.723  1.00  0.00     0.020 C 
HETATM   21  C   UNL     1       4.858  28.754  47.388  1.00  0.00     0.003 C 
HETATM   22  C   UNL     1       4.970  27.242  47.572  1.00  0.00     0.020 C 
HETATM   23  C   UNL     1       4.006  26.753  48.649  1.00  0.00     0.125 C 
ENDBRANCH  14  18
ENDBRANCH  11  12
ENDBRANCH   8  11
ENDBRANCH   4   7
BRANCH   1  24
HETATM   24  C   UNL     1       7.628  31.588  59.924  1.00  0.00     0.256 C 
HETATM   25  N   UNL     1       7.014  31.253  61.118  1.00  0.00    -0.323 N 
HETATM   26  H   UNL     1       6.562  30.351  61.175  1.00  0.00     0.169 HD
HETATM   27  O   UNL     1       8.131  32.671  59.646  1.00  0.00    -0.267 OA
BRANCH  25  28
HETATM   28  C   UNL     1       6.872  32.061  62.268  1.00  0.00     0.035 A 
HETATM   29  C   UNL     1       7.932  32.481  63.069  1.00  0.00     0.030 A 
HETATM   30  C   UNL     1       7.706  33.296  64.186  1.00  0.00     0.010 A 
HETATM   31  C   UNL     1       6.413  33.717  64.524  1.00  0.00    -0.054 A 
HETATM   32  C   UNL     1       5.347  33.272  63.731  1.00  0.00     0.010 A 
HETATM   33  C   UNL     1       5.575  32.457  62.615  1.00  0.00     0.030 A 
BRANCH  31  34
HETATM   34  C   UNL     1       6.133  34.604  65.729  1.00  0.00     0.014 C 
HETATM   35  C   UNL     1       6.214  33.832  67.052  1.00  0.00     0.015 C 
BRANCH  34  36
HETATM   36  C   UNL     1       4.784  35.325  65.549  1.00  0.00     0.004 C 
HETATM   37  C   UNL     1       4.874  36.568  64.675  1.00  0.00     0.006 C 
ENDBRANCH  34  36
ENDBRANCH  31  34
ENDBRANCH  25  28
ENDBRANCH   1  24
TORSDOF 8
ENDMDL
MODEL 10
REMARK VINA RESULT:      -9.2      3.890     13.664
REMARK  8 active torsions:
REMARK  status: ('A' for Active; 'I' for Inactive)
REMARK    1  A    between atoms: C_2  and  C_3 
REMARK    2  A    between atoms: C_3  and  C_4 
REMARK    3  A    between atoms: C_7  and  N_8 
REMARK       I    between atoms: N_8  and  C_9 
REMARK    4  A    between atoms: C_9  and  C_10 
REMARK    5  A    between atoms: C_13  and  N_14 
REMARK       I    between atoms: N_14  and  C_15 
REMARK    6  A    between atoms: C_15  and  C_16 
REMARK    7  A    between atoms: C_16  and  C_17 
REMARK    8  A    between atoms: C_19  and  N_20 
ROOT
HETATM    1  C   UNL     1       5.738  31.331  58.430  1.00  0.00     0.032 A 
HETATM    2  C   UNL     1       4.509  31.847  58.852  1.00  0.00     0.019 A 
HETATM    3  C   UNL     1       4.424  32.607  60.027  1.00  0.00     0.030 A 
HETATM    4  C   UNL     1       5.562  32.882  60.790  1.00  0.00     0.034 A 
HETATM    5  C   UNL     1       6.796  32.391  60.350  1.00  0.00     0.030 A 
HETATM    6  C   UNL     1       6.884  31.621  59.183  1.00  0.00     0.019 A 
ENDROOT
BRANCH   4   7
HETATM    7  N   UNL     1       5.553  33.646  61.978  1.00  0.00    -0.327 N 
HETATM    8  C   UNL     1       4.663  33.538  63.033  1.00  0.00     0.223 C 
HETATM    9  O   UNL     1       3.728  32.748  63.107  1.00  0.00    -0.273 OA
HETATM   10  H   UNL     1       6.308  34.314  62.077  1.00  0.00     0.169 HD
BRANCH   8  11
HETATM   11  C   UNL     1       4.921  34.566  64.122  1.00  0.00     0.128 C 
BRANCH  11  12
HETATM   12  C   UNL     1       5.013  33.898  65.488  1.00  0.00     0.158 C 
HETATM   13  S   UNL     1       6.684  34.015  66.201  1.00  0.00    -0.077 SA
HETATM   14  C   UNL     1       5.982  34.283  67.791  1.00  0.00     0.168 C 
HETATM   15  N   UNL     1       4.715  34.539  67.804  1.00  0.00    -0.189 NA
HETATM   16  C   UNL     1       4.154  34.563  66.546  1.00  0.00     0.260 C 
HETATM   17  O   UNL     1       3.044  35.024  66.310  1.00  0.00    -0.270 OA
BRANCH  14  18
HETATM   18  N   UNL     1       6.777  34.146  68.906  1.00  0.00    -0.360 N 
HETATM   19  C   UNL     1       7.993  34.933  69.132  1.00  0.00     0.125 C 
HETATM   20  C   UNL     1       7.689  36.076  70.103  1.00  0.00     0.020 C 
HETATM   21  C   UNL     1       7.085  35.552  71.406  1.00  0.00     0.003 C 
HETATM   22  C   UNL     1       5.870  34.669  71.128  1.00  0.00     0.020 C 
HETATM   23  C   UNL     1       6.218  33.566  70.131  1.00  0.00     0.125 C 
ENDBRANCH  14  18
ENDBRANCH  11  12
ENDBRANCH   8  11
ENDBRANCH   4   7
BRANCH   1  24
HETATM   24  C   UNL     1       5.896  30.509  57.187  1.00  0.00     0.256 C 
HETATM   25  N   UNL     1       6.476  29.264  57.357  1.00  0.00    -0.323 N 
HETATM   26  H   UNL     1       6.810  29.025  58.280  1.00  0.00     0.169 HD
HETATM   27  O   UNL     1       5.532  31.001  56.126  1.00  0.00    -0.267 OA
BRANCH  25  28
HETATM   28  C   UNL     1       6.732  28.292  56.364  1.00  0.00     0.035 A 
HETATM   29  C   UNL     1       7.489  28.522  55.217  1.00  0.00     0.030 A 
HETATM   30  C   UNL     1       7.709  27.497  54.287  1.00  0.00     0.010 A 
HETATM   31  C   UNL     1       7.180  26.215  54.486  1.00  0.00    -0.054 A 
HETATM   32  C   UNL     1       6.399  25.995  55.628  1.00  0.00     0.010 A 
HETATM   33  C   UNL     1       6.180  27.020  56.557  1.00  0.00     0.030 A 
BRANCH  31  34
HETATM   34  C   UNL     1       7.402  25.080  53.497  1.00  0.00     0.014 C 
HETATM   35  C   UNL     1       6.086  24.558  52.905  1.00  0.00     0.015 C 
BRANCH  34  36
HETATM   36  C   UNL     1       8.236  23.964  54.154  1.00  0.00     0.004 C 
HETATM   37  C   UNL     1       7.437  22.701  54.443  1.00  0.00     0.006 C 
ENDBRANCH  34  36
ENDBRANCH  31  34
ENDBRANCH  25  28
ENDBRANCH   1  24
TORSDOF 8
ENDMDL
