MODEL 1
REMARK VINA RESULT:      -7.9      0.000      0.000
REMARK  3 active torsions:
REMARK  status: ('A' for Active; 'I' for Inactive)
REMARK    1  A    between atoms: C_4  and  C_5 
REMARK    2  A    between atoms: C_11  and  C_12 
REMARK    3  A    between atoms: C_21  and  N_22 
ROOT
HETATM    1  C   UNL     1       5.229  27.214  54.297  1.00  0.00     0.098 A 
HETATM    2  N   UNL     1       4.036  27.662  53.854  1.00  0.00    -0.172 NA
HETATM    3  N   UNL     1       3.627  28.537  54.791  1.00  0.00    -0.256 N 
HETATM    4  H   UNL     1       2.769  29.052  54.638  1.00  0.00     0.191 HD
HETATM    5  C   UNL     1       4.499  28.642  55.822  1.00  0.00     0.175 A 
HETATM    6  C   UNL     1       5.508  27.746  55.589  1.00  0.00     0.036 A 
HETATM    7  C   UNL     1       6.608  27.592  56.595  1.00  0.00     0.077 C 
HETATM    8  C   UNL     1       6.661  28.907  57.423  1.00  0.00     0.076 C 
HETATM    9  C   UNL     1       7.896  29.249  58.047  1.00  0.00     0.100 C 
HETATM   10  N   UNL     1       8.898  29.516  58.569  1.00  0.00    -0.192 NA
HETATM   11  C   UNL     1       5.595  29.751  57.522  1.00  0.00     0.140 C 
HETATM   12  O   UNL     1       4.403  29.521  56.811  1.00  0.00    -0.279 OA
ENDROOT
BRANCH   7  13
HETATM   13  C   UNL     1       6.406  26.377  57.578  1.00  0.00     0.003 C 
HETATM   14  C   UNL     1       5.654  25.150  57.007  1.00  0.00     0.032 C 
HETATM   15  C   UNL     1       6.506  24.259  56.155  1.00  0.00    -0.030 C 
HETATM   16  C   UNL     1       7.846  24.286  56.183  1.00  0.00    -0.031 C 
HETATM   17  C   UNL     1       8.626  25.177  57.101  1.00  0.00     0.027 C 
HETATM   18  C   UNL     1       7.746  25.859  58.157  1.00  0.00     0.009 C 
ENDBRANCH   7  13
BRANCH  11  19
HETATM   19  N   UNL     1       5.550  30.905  58.271  1.00  0.00    -0.282 NA
HETATM   20  H   UNL     1       4.873  31.601  57.966  1.00  0.00     0.126 HD
HETATM   21  H   UNL     1       6.477  31.293  58.431  1.00  0.00     0.126 HD
ENDBRANCH  11  19
BRANCH   1  22
HETATM   22  C   UNL     1       6.032  26.306  53.482  1.00  0.00    -0.005 A 
HETATM   23  C   UNL     1       7.397  26.541  53.271  1.00  0.00     0.014 A 
HETATM   24  C   UNL     1       8.159  25.655  52.504  1.00  0.00     0.001 A 
HETATM   25  C   UNL     1       7.560  24.534  51.932  1.00  0.00     0.000 A 
HETATM   26  C   UNL     1       6.197  24.302  52.115  1.00  0.00     0.001 A 
HETATM   27  C   UNL     1       5.436  25.188  52.882  1.00  0.00     0.014 A 
ENDBRANCH   1  22
TORSDOF 3
ENDMDL
MODEL 2
REMARK VINA RESULT:      -7.6      2.995      6.233
REMARK  3 active torsions:
REMARK  status: ('A' for Active; 'I' for Inactive)
REMARK    1  A    between atoms: C_4  and  C_5 
REMARK    2  A    between atoms: C_11  and  C_12 
REMARK    3  A    between atoms: C_21  and  N_22 
ROOT
HETATM    1  C   UNL     1       8.180  26.103  57.288  1.00  0.00     0.098 A 
HETATM    2  N   UNL     1       8.507  25.287  58.311  1.00  0.00    -0.172 NA
HETATM    3  N   UNL     1       8.301  24.044  57.839  1.00  0.00    -0.256 N 
HETATM    4  H   UNL     1       8.541  23.252  58.423  1.00  0.00     0.191 HD
HETATM    5  C   UNL     1       7.833  24.040  56.568  1.00  0.00     0.175 A 
HETATM    6  C   UNL     1       7.660  25.347  56.199  1.00  0.00     0.036 A 
HETATM    7  C   UNL     1       7.097  25.666  54.847  1.00  0.00     0.077 C 
HETATM    8  C   UNL     1       7.365  24.436  53.935  1.00  0.00     0.076 C 
HETATM    9  C   UNL     1       7.432  24.655  52.528  1.00  0.00     0.100 C 
HETATM   10  N   UNL     1       7.468  24.833  51.382  1.00  0.00    -0.192 NA
HETATM   11  C   UNL     1       7.588  23.188  54.438  1.00  0.00     0.140 C 
HETATM   12  O   UNL     1       7.667  22.954  55.823  1.00  0.00    -0.279 OA
ENDROOT
BRANCH   7  13
HETATM   13  C   UNL     1       5.549  25.966  54.858  1.00  0.00     0.003 C 
HETATM   14  C   UNL     1       5.046  26.940  55.951  1.00  0.00     0.032 C 
HETATM   15  C   UNL     1       5.277  28.385  55.628  1.00  0.00    -0.030 C 
HETATM   16  C   UNL     1       5.532  28.824  54.387  1.00  0.00    -0.031 C 
HETATM   17  C   UNL     1       5.567  27.920  53.192  1.00  0.00     0.027 C 
HETATM   18  C   UNL     1       5.046  26.510  53.497  1.00  0.00     0.009 C 
ENDBRANCH   7  13
BRANCH  11  19
HETATM   19  N   UNL     1       7.787  22.046  53.696  1.00  0.00    -0.282 NA
HETATM   20  H   UNL     1       8.603  21.494  53.949  1.00  0.00     0.126 HD
HETATM   21  H   UNL     1       7.718  22.222  52.697  1.00  0.00     0.126 HD
ENDBRANCH  11  19
BRANCH   1  22
HETATM   22  C   UNL     1       8.371  27.547  57.400  1.00  0.00    -0.005 A 
HETATM   23  C   UNL     1       7.536  28.325  58.214  1.00  0.00     0.014 A 
HETATM   24  C   UNL     1       7.740  29.703  58.327  1.00  0.00     0.001 A 
HETATM   25  C   UNL     1       8.772  30.317  57.620  1.00  0.00     0.000 A 
HETATM   26  C   UNL     1       9.594  29.557  56.789  1.00  0.00     0.001 A 
HETATM   27  C   UNL     1       9.391  28.179  56.675  1.00  0.00     0.014 A 
ENDBRANCH   1  22
TORSDOF 3
ENDMDL
MODEL 3
REMARK VINA RESULT:      -7.4      2.239      2.931
REMARK  3 active torsions:
REMARK  status: ('A' for Active; 'I' for Inactive)
REMARK    1  A    between atoms: C_4  and  C_5 
REMARK    2  A    between atoms: C_11  and  C_12 
REMARK    3  A    between atoms: C_21  and  N_22 
ROOT
HETATM    1  C   UNL     1       6.228  24.461  53.275  1.00  0.00     0.098 A 
HETATM    2  N   UNL     1       5.175  24.354  52.438  1.00  0.00    -0.172 NA
HETATM    3  N   UNL     1       4.523  25.525  52.554  1.00  0.00    -0.256 N 
HETATM    4  H   UNL     1       3.719  25.699  51.963  1.00  0.00     0.191 HD
HETATM    5  C   UNL     1       5.103  26.359  53.450  1.00  0.00     0.175 A 
HETATM    6  C   UNL     1       6.159  25.684  54.003  1.00  0.00     0.036 A 
HETATM    7  C   UNL     1       6.973  26.336  55.078  1.00  0.00     0.077 C 
HETATM    8  C   UNL     1       6.785  27.873  54.931  1.00  0.00     0.076 C 
HETATM    9  C   UNL     1       7.814  28.720  55.436  1.00  0.00     0.100 C 
HETATM   10  N   UNL     1       8.645  29.407  55.864  1.00  0.00    -0.192 NA
HETATM   11  C   UNL     1       5.708  28.419  54.296  1.00  0.00     0.140 C 
HETATM   12  O   UNL     1       4.740  27.617  53.663  1.00  0.00    -0.279 OA
ENDROOT
BRANCH   7  13
HETATM   13  C   UNL     1       6.558  25.909  56.537  1.00  0.00     0.003 C 
HETATM   14  C   UNL     1       6.158  24.425  56.731  1.00  0.00     0.032 C 
HETATM   15  C   UNL     1       7.326  23.492  56.839  1.00  0.00    -0.030 C 
HETATM   16  C   UNL     1       8.568  23.908  57.126  1.00  0.00    -0.031 C 
HETATM   17  C   UNL     1       8.906  25.340  57.409  1.00  0.00     0.027 C 
HETATM   18  C   UNL     1       7.661  26.221  57.579  1.00  0.00     0.009 C 
ENDBRANCH   7  13
BRANCH  11  19
HETATM   19  N   UNL     1       5.449  29.764  54.165  1.00  0.00    -0.282 NA
HETATM   20  H   UNL     1       5.063  30.219  54.989  1.00  0.00     0.126 HD
HETATM   21  H   UNL     1       4.933  29.973  53.314  1.00  0.00     0.126 HD
ENDBRANCH  11  19
BRANCH   1  22
HETATM   22  C   UNL     1       7.231  23.402  53.345  1.00  0.00    -0.005 A 
HETATM   23  C   UNL     1       8.570  23.695  53.638  1.00  0.00     0.014 A 
HETATM   24  C   UNL     1       9.518  22.671  53.721  1.00  0.00     0.001 A 
HETATM   25  C   UNL     1       9.137  21.348  53.502  1.00  0.00     0.000 A 
HETATM   26  C   UNL     1       7.813  21.047  53.187  1.00  0.00     0.001 A 
HETATM   27  C   UNL     1       6.865  22.071  53.104  1.00  0.00     0.014 A 
ENDBRANCH   1  22
TORSDOF 3
ENDMDL
MODEL 4
REMARK VINA RESULT:      -7.3      7.831     11.103
REMARK  3 active torsions:
REMARK  status: ('A' for Active; 'I' for Inactive)
REMARK    1  A    between atoms: C_4  and  C_5 
REMARK    2  A    between atoms: C_11  and  C_12 
REMARK    3  A    between atoms: C_21  and  N_22 
ROOT
HETATM    1  C   UNL     1       6.344  32.828  62.495  1.00  0.00     0.098 A 
HETATM    2  N   UNL     1       7.541  32.218  62.611  1.00  0.00    -0.172 NA
HETATM    3  N   UNL     1       7.971  32.537  63.847  1.00  0.00    -0.256 N 
HETATM    4  H   UNL     1       8.837  32.134  64.183  1.00  0.00     0.191 HD
HETATM    5  C   UNL     1       7.106  33.344  64.507  1.00  0.00     0.175 A 
HETATM    6  C   UNL     1       6.081  33.628  63.644  1.00  0.00     0.036 A 
HETATM    7  C   UNL     1       4.984  34.552  64.076  1.00  0.00     0.077 C 
HETATM    8  C   UNL     1       4.958  34.541  65.631  1.00  0.00     0.076 C 
HETATM    9  C   UNL     1       3.733  34.876  66.277  1.00  0.00     0.100 C 
HETATM   10  N   UNL     1       2.739  35.167  66.800  1.00  0.00    -0.192 NA
HETATM   11  C   UNL     1       6.039  34.173  66.377  1.00  0.00     0.140 C 
HETATM   12  O   UNL     1       7.223  33.704  65.779  1.00  0.00    -0.279 OA
ENDROOT
BRANCH   7  13
HETATM   13  C   UNL     1       5.172  36.036  63.580  1.00  0.00     0.003 C 
HETATM   14  C   UNL     1       5.824  36.218  62.187  1.00  0.00     0.032 C 
HETATM   15  C   UNL     1       4.881  36.003  61.043  1.00  0.00    -0.030 C 
HETATM   16  C   UNL     1       3.548  36.031  61.181  1.00  0.00    -0.031 C 
HETATM   17  C   UNL     1       2.867  36.324  62.483  1.00  0.00     0.027 C 
HETATM   18  C   UNL     1       3.837  36.824  63.561  1.00  0.00     0.009 C 
ENDBRANCH   7  13
BRANCH  11  19
HETATM   19  N   UNL     1       6.108  34.181  67.751  1.00  0.00    -0.282 NA
HETATM   20  H   UNL     1       5.221  34.064  68.236  1.00  0.00     0.126 HD
HETATM   21  H   UNL     1       6.656  34.962  68.102  1.00  0.00     0.126 HD
ENDBRANCH  11  19
BRANCH   1  22
HETATM   22  C   UNL     1       5.521  32.627  61.304  1.00  0.00    -0.005 A 
HETATM   23  C   UNL     1       4.153  32.346  61.411  1.00  0.00     0.014 A 
HETATM   24  C   UNL     1       3.372  32.174  60.265  1.00  0.00     0.001 A 
HETATM   25  C   UNL     1       3.955  32.271  59.002  1.00  0.00     0.000 A 
HETATM   26  C   UNL     1       5.320  32.527  58.883  1.00  0.00     0.001 A 
HETATM   27  C   UNL     1       6.101  32.699  60.030  1.00  0.00     0.014 A 
ENDBRANCH   1  22
TORSDOF 3
ENDMDL
MODEL 5
REMARK VINA RESULT:      -7.3     10.175     11.991
REMARK  3 active torsions:
REMARK  status: ('A' for Active; 'I' for Inactive)
REMARK    1  A    between atoms: C_4  and  C_5 
REMARK    2  A    between atoms: C_11  and  C_12 
REMARK    3  A    between atoms: C_21  and  N_22 
ROOT
HETATM    1  C   UNL     1       3.208  34.217  63.287  1.00  0.00     0.098 A 
HETATM    2  N   UNL     1       2.155  33.625  63.885  1.00  0.00    -0.172 NA
HETATM    3  N   UNL     1       1.100  33.932  63.109  1.00  0.00    -0.256 N 
HETATM    4  H   UNL     1       0.194  33.539  63.334  1.00  0.00     0.191 HD
HETATM    5  C   UNL     1       1.437  34.717  62.057  1.00  0.00     0.175 A 
HETATM    6  C   UNL     1       2.773  34.997  62.176  1.00  0.00     0.036 A 
HETATM    7  C   UNL     1       3.432  35.897  61.177  1.00  0.00     0.077 C 
HETATM    8  C   UNL     1       2.568  35.864  59.886  1.00  0.00     0.076 C 
HETATM    9  C   UNL     1       3.208  36.170  58.650  1.00  0.00     0.100 C 
HETATM   10  N   UNL     1       3.728  36.438  57.648  1.00  0.00    -0.192 NA
HETATM   11  C   UNL     1       1.253  35.503  59.896  1.00  0.00     0.140 C 
HETATM   12  O   UNL     1       0.619  35.060  61.072  1.00  0.00    -0.279 OA
ENDROOT
BRANCH   7  13
HETATM   13  C   UNL     1       3.568  37.391  61.662  1.00  0.00     0.003 C 
HETATM   14  C   UNL     1       3.630  37.614  63.193  1.00  0.00     0.032 C 
HETATM   15  C   UNL     1       4.978  37.346  63.790  1.00  0.00    -0.030 C 
HETATM   16  C   UNL     1       6.103  37.295  63.062  1.00  0.00    -0.031 C 
HETATM   17  C   UNL     1       6.131  37.544  61.585  1.00  0.00     0.027 C 
HETATM   18  C   UNL     1       4.804  38.098  61.050  1.00  0.00     0.009 C 
ENDBRANCH   7  13
BRANCH  11  19
HETATM   19  N   UNL     1       0.413  35.492  58.806  1.00  0.00    -0.282 NA
HETATM   20  H   UNL     1       0.712  34.911  58.026  1.00  0.00     0.126 HD
HETATM   21  H   UNL     1       0.142  36.431  58.523  1.00  0.00     0.126 HD
ENDBRANCH  11  19
BRANCH   1  22
HETATM   22  C   UNL     1       4.561  34.020  63.800  1.00  0.00    -0.005 A 
HETATM   23  C   UNL     1       5.631  33.754  62.935  1.00  0.00     0.014 A 
HETATM   24  C   UNL     1       6.924  33.586  63.436  1.00  0.00     0.001 A 
HETATM   25  C   UNL     1       7.158  33.672  64.808  1.00  0.00     0.000 A 
HETATM   26  C   UNL     1       6.099  33.913  65.681  1.00  0.00     0.001 A 
HETATM   27  C   UNL     1       4.805  34.081  65.179  1.00  0.00     0.014 A 
ENDBRANCH   1  22
TORSDOF 3
ENDMDL
MODEL 6
REMARK VINA RESULT:      -7.2      7.431     10.812
REMARK  3 active torsions:
REMARK  status: ('A' for Active; 'I' for Inactive)
REMARK    1  A    between atoms: C_4  and  C_5 
REMARK    2  A    between atoms: C_11  and  C_12 
REMARK    3  A    between atoms: C_21  and  N_22 
ROOT
HETATM    1  C   UNL     1       6.095  34.588  63.560  1.00  0.00     0.098 A 
HETATM    2  N   UNL     1       6.297  34.403  64.881  1.00  0.00    -0.172 NA
HETATM    3  N   UNL     1       7.051  33.290  64.960  1.00  0.00    -0.256 N 
HETATM    4  H   UNL     1       7.382  32.987  65.868  1.00  0.00     0.191 HD
HETATM    5  C   UNL     1       7.312  32.749  63.746  1.00  0.00     0.175 A 
HETATM    6  C   UNL     1       6.646  33.504  62.818  1.00  0.00     0.036 A 
HETATM    7  C   UNL     1       6.702  33.117  61.371  1.00  0.00     0.077 C 
HETATM    8  C   UNL     1       7.982  32.257  61.174  1.00  0.00     0.076 C 
HETATM    9  C   UNL     1       8.558  32.212  59.871  1.00  0.00     0.100 C 
HETATM   10  N   UNL     1       9.013  32.164  58.805  1.00  0.00    -0.192 NA
HETATM   11  C   UNL     1       8.587  31.601  62.205  1.00  0.00     0.140 C 
HETATM   12  O   UNL     1       8.131  31.729  63.530  1.00  0.00    -0.279 OA
ENDROOT
BRANCH   7  13
HETATM   13  C   UNL     1       5.451  32.289  60.887  1.00  0.00     0.003 C 
HETATM   14  C   UNL     1       4.087  32.678  61.509  1.00  0.00     0.032 C 
HETATM   15  C   UNL     1       3.464  33.893  60.891  1.00  0.00    -0.030 C 
HETATM   16  C   UNL     1       3.830  34.373  59.694  1.00  0.00    -0.031 C 
HETATM   17  C   UNL     1       4.868  33.718  58.834  1.00  0.00     0.027 C 
HETATM   18  C   UNL     1       5.276  32.332  59.348  1.00  0.00     0.009 C 
ENDBRANCH   7  13
BRANCH  11  19
HETATM   19  N   UNL     1       9.692  30.786  62.101  1.00  0.00    -0.282 NA
HETATM   20  H   UNL     1      10.326  31.001  61.336  1.00  0.00     0.126 HD
HETATM   21  H   UNL     1       9.446  29.801  62.153  1.00  0.00     0.126 HD
ENDBRANCH  11  19
BRANCH   1  22
HETATM   22  C   UNL     1       5.389  35.772  63.076  1.00  0.00    -0.005 A 
HETATM   23  C   UNL     1       5.997  36.660  62.179  1.00  0.00     0.014 A 
HETATM   24  C   UNL     1       5.304  37.778  61.708  1.00  0.00     0.001 A 
HETATM   25  C   UNL     1       4.002  38.025  62.139  1.00  0.00     0.000 A 
HETATM   26  C   UNL     1       3.394  37.161  63.049  1.00  0.00     0.001 A 
HETATM   27  C   UNL     1       4.087  36.043  63.519  1.00  0.00     0.014 A 
ENDBRANCH   1  22
TORSDOF 3
ENDMDL
MODEL 7
REMARK VINA RESULT:      -7.1      2.450      6.077
REMARK  3 active torsions:
REMARK  status: ('A' for Active; 'I' for Inactive)
REMARK    1  A    between atoms: C_4  and  C_5 
REMARK    2  A    between atoms: C_11  and  C_12 
REMARK    3  A    between atoms: C_21  and  N_22 
ROOT
HETATM    1  C   UNL     1       7.771  27.488  57.246  1.00  0.00     0.098 A 
HETATM    2  N   UNL     1       8.100  26.324  57.842  1.00  0.00    -0.172 NA
HETATM    3  N   UNL     1       7.300  25.406  57.270  1.00  0.00    -0.256 N 
HETATM    4  H   UNL     1       7.413  24.432  57.522  1.00  0.00     0.191 HD
HETATM    5  C   UNL     1       6.459  25.945  56.355  1.00  0.00     0.175 A 
HETATM    6  C   UNL     1       6.668  27.299  56.365  1.00  0.00     0.036 A 
HETATM    7  C   UNL     1       5.838  28.182  55.484  1.00  0.00     0.077 C 
HETATM    8  C   UNL     1       5.300  27.300  54.322  1.00  0.00     0.076 C 
HETATM    9  C   UNL     1       4.957  27.948  53.100  1.00  0.00     0.100 C 
HETATM   10  N   UNL     1       4.662  28.482  52.113  1.00  0.00    -0.192 NA
HETATM   11  C   UNL     1       5.201  25.944  54.421  1.00  0.00     0.140 C 
HETATM   12  O   UNL     1       5.657  25.251  55.557  1.00  0.00    -0.279 OA
ENDROOT
BRANCH   7  13
HETATM   13  C   UNL     1       4.617  28.851  56.225  1.00  0.00     0.003 C 
HETATM   14  C   UNL     1       4.946  29.642  57.514  1.00  0.00     0.032 C 
HETATM   15  C   UNL     1       5.486  31.017  57.260  1.00  0.00    -0.030 C 
HETATM   16  C   UNL     1       5.347  31.651  56.087  1.00  0.00    -0.031 C 
HETATM   17  C   UNL     1       4.601  31.067  54.926  1.00  0.00     0.027 C 
HETATM   18  C   UNL     1       3.817  29.802  55.300  1.00  0.00     0.009 C 
ENDBRANCH   7  13
BRANCH  11  19
HETATM   19  N   UNL     1       4.695  25.102  53.456  1.00  0.00    -0.282 NA
HETATM   20  H   UNL     1       4.344  25.557  52.617  1.00  0.00     0.126 HD
HETATM   21  H   UNL     1       4.045  24.423  53.845  1.00  0.00     0.126 HD
ENDBRANCH  11  19
BRANCH   1  22
HETATM   22  C   UNL     1       8.510  28.712  57.547  1.00  0.00    -0.005 A 
HETATM   23  C   UNL     1       8.210  29.475  58.683  1.00  0.00     0.014 A 
HETATM   24  C   UNL     1       8.936  30.634  58.971  1.00  0.00     0.001 A 
HETATM   25  C   UNL     1       9.961  31.045  58.120  1.00  0.00     0.000 A 
HETATM   26  C   UNL     1      10.254  30.306  56.975  1.00  0.00     0.001 A 
HETATM   27  C   UNL     1       9.527  29.148  56.687  1.00  0.00     0.014 A 
ENDBRANCH   1  22
TORSDOF 3
ENDMDL
MODEL 8
REMARK VINA RESULT:      -7.0      6.704     10.758
REMARK  3 active torsions:
REMARK  status: ('A' for Active; 'I' for Inactive)
REMARK    1  A    between atoms: C_4  and  C_5 
REMARK    2  A    between atoms: C_11  and  C_12 
REMARK    3  A    between atoms: C_21  and  N_22 
ROOT
HETATM    1  C   UNL     1       6.740  33.632  63.082  1.00  0.00     0.098 A 
HETATM    2  N   UNL     1       7.735  33.051  63.784  1.00  0.00    -0.172 NA
HETATM    3  N   UNL     1       8.170  32.049  62.997  1.00  0.00    -0.256 N 
HETATM    4  H   UNL     1       8.968  31.502  63.297  1.00  0.00     0.191 HD
HETATM    5  C   UNL     1       7.475  31.956  61.838  1.00  0.00     0.175 A 
HETATM    6  C   UNL     1       6.487  32.904  61.885  1.00  0.00     0.036 A 
HETATM    7  C   UNL     1       5.510  33.011  60.754  1.00  0.00     0.077 C 
HETATM    8  C   UNL     1       6.186  32.386  59.501  1.00  0.00     0.076 C 
HETATM    9  C   UNL     1       5.739  32.820  58.219  1.00  0.00     0.100 C 
HETATM   10  N   UNL     1       5.360  33.162  57.177  1.00  0.00    -0.192 NA
HETATM   11  C   UNL     1       7.213  31.493  59.593  1.00  0.00     0.140 C 
HETATM   12  O   UNL     1       7.776  31.143  60.834  1.00  0.00    -0.279 OA
ENDROOT
BRANCH   7  13
HETATM   13  C   UNL     1       4.145  32.268  61.020  1.00  0.00     0.003 C 
HETATM   14  C   UNL     1       3.557  32.404  62.446  1.00  0.00     0.032 C 
HETATM   15  C   UNL     1       2.846  33.701  62.687  1.00  0.00    -0.030 C 
HETATM   16  C   UNL     1       2.421  34.497  61.695  1.00  0.00    -0.031 C 
HETATM   17  C   UNL     1       2.576  34.148  60.246  1.00  0.00     0.027 C 
HETATM   18  C   UNL     1       3.036  32.701  60.028  1.00  0.00     0.009 C 
ENDBRANCH   7  13
BRANCH  11  19
HETATM   19  N   UNL     1       7.830  30.865  58.536  1.00  0.00    -0.282 NA
HETATM   20  H   UNL     1       7.207  30.454  57.844  1.00  0.00     0.126 HD
HETATM   21  H   UNL     1       8.561  30.228  58.844  1.00  0.00     0.126 HD
ENDBRANCH  11  19
BRANCH   1  22
HETATM   22  C   UNL     1       6.082  34.836  63.585  1.00  0.00    -0.005 A 
HETATM   23  C   UNL     1       5.984  35.989  62.795  1.00  0.00     0.014 A 
HETATM   24  C   UNL     1       5.335  37.128  63.281  1.00  0.00     0.001 A 
HETATM   25  C   UNL     1       4.790  37.128  64.564  1.00  0.00     0.000 A 
HETATM   26  C   UNL     1       4.902  35.994  65.368  1.00  0.00     0.001 A 
HETATM   27  C   UNL     1       5.551  34.855  64.882  1.00  0.00     0.014 A 
ENDBRANCH   1  22
TORSDOF 3
ENDMDL
MODEL 9
REMARK VINA RESULT:      -6.9      3.198      6.161
REMARK  3 active torsions:
REMARK  status: ('A' for Active; 'I' for Inactive)
REMARK    1  A    between atoms: C_4  and  C_5 
REMARK    2  A    between atoms: C_11  and  C_12 
REMARK    3  A    between atoms: C_21  and  N_22 
ROOT
HETATM    1  C   UNL     1       7.087  26.630  54.175  1.00  0.00     0.098 A 
HETATM    2  N   UNL     1       7.401  25.324  54.050  1.00  0.00    -0.172 NA
HETATM    3  N   UNL     1       6.843  24.946  52.885  1.00  0.00    -0.256 N 
HETATM    4  H   UNL     1       7.001  24.004  52.549  1.00  0.00     0.191 HD
HETATM    5  C   UNL     1       6.166  25.952  52.280  1.00  0.00     0.175 A 
HETATM    6  C   UNL     1       6.225  27.036  53.116  1.00  0.00     0.036 A 
HETATM    7  C   UNL     1       5.515  28.300  52.739  1.00  0.00     0.077 C 
HETATM    8  C   UNL     1       5.335  28.284  51.194  1.00  0.00     0.076 C 
HETATM    9  C   UNL     1       5.197  29.537  50.529  1.00  0.00     0.100 C 
HETATM   10  N   UNL     1       5.066  30.558  49.992  1.00  0.00    -0.192 NA
HETATM   11  C   UNL     1       5.361  27.130  50.468  1.00  0.00     0.140 C 
HETATM   12  O   UNL     1       5.632  25.887  51.068  1.00  0.00    -0.279 OA
ENDROOT
BRANCH   7  13
HETATM   13  C   UNL     1       4.101  28.461  53.416  1.00  0.00     0.003 C 
HETATM   14  C   UNL     1       4.035  28.200  54.940  1.00  0.00     0.032 C 
HETATM   15  C   UNL     1       4.514  29.349  55.774  1.00  0.00    -0.030 C 
HETATM   16  C   UNL     1       4.624  30.599  55.300  1.00  0.00    -0.031 C 
HETATM   17  C   UNL     1       4.238  30.979  53.902  1.00  0.00     0.027 C 
HETATM   18  C   UNL     1       3.486  29.862  53.169  1.00  0.00     0.009 C 
ENDBRANCH   7  13
BRANCH  11  19
HETATM   19  N   UNL     1       5.165  27.031  49.110  1.00  0.00    -0.282 NA
HETATM   20  H   UNL     1       4.239  26.723  48.821  1.00  0.00     0.126 HD
HETATM   21  H   UNL     1       5.917  26.522  48.651  1.00  0.00     0.126 HD
ENDBRANCH  11  19
BRANCH   1  22
HETATM   22  C   UNL     1       7.611  27.417  55.289  1.00  0.00    -0.005 A 
HETATM   23  C   UNL     1       7.366  27.042  56.616  1.00  0.00     0.014 A 
HETATM   24  C   UNL     1       7.888  27.792  57.674  1.00  0.00     0.001 A 
HETATM   25  C   UNL     1       8.651  28.929  57.413  1.00  0.00     0.000 A 
HETATM   26  C   UNL     1       8.883  29.325  56.097  1.00  0.00     0.001 A 
HETATM   27  C   UNL     1       8.360  28.575  55.039  1.00  0.00     0.014 A 
ENDBRANCH   1  22
TORSDOF 3
ENDMDL
MODEL 10
REMARK VINA RESULT:      -6.8      9.110     11.227
REMARK  3 active torsions:
REMARK  status: ('A' for Active; 'I' for Inactive)
REMARK    1  A    between atoms: C_4  and  C_5 
REMARK    2  A    between atoms: C_11  and  C_12 
REMARK    3  A    between atoms: C_21  and  N_22 
ROOT
HETATM    1  C   UNL     1       4.321  33.220  61.838  1.00  0.00     0.098 A 
HETATM    2  N   UNL     1       3.564  32.116  61.678  1.00  0.00    -0.172 NA
HETATM    3  N   UNL     1       2.644  32.460  60.757  1.00  0.00    -0.256 N 
HETATM    4  H   UNL     1       1.993  31.757  60.429  1.00  0.00     0.191 HD
HETATM    5  C   UNL     1       2.771  33.745  60.348  1.00  0.00     0.175 A 
HETATM    6  C   UNL     1       3.787  34.301  61.079  1.00  0.00     0.036 A 
HETATM    7  C   UNL     1       4.133  35.746  60.885  1.00  0.00     0.077 C 
HETATM    8  C   UNL     1       3.628  36.155  59.473  1.00  0.00     0.076 C 
HETATM    9  C   UNL     1       4.270  37.254  58.830  1.00  0.00     0.100 C 
HETATM   10  N   UNL     1       4.782  38.160  58.318  1.00  0.00    -0.192 NA
HETATM   11  C   UNL     1       2.644  35.471  58.823  1.00  0.00     0.140 C 
HETATM   12  O   UNL     1       2.079  34.300  59.362  1.00  0.00    -0.279 OA
ENDROOT
BRANCH   7  13
HETATM   13  C   UNL     1       3.484  36.703  61.957  1.00  0.00     0.003 C 
HETATM   14  C   UNL     1       3.680  36.307  63.441  1.00  0.00     0.032 C 
HETATM   15  C   UNL     1       5.023  36.673  63.994  1.00  0.00    -0.030 C 
HETATM   16  C   UNL     1       5.829  37.576  63.417  1.00  0.00    -0.031 C 
HETATM   17  C   UNL     1       5.449  38.342  62.186  1.00  0.00     0.027 C 
HETATM   18  C   UNL     1       3.972  38.167  61.810  1.00  0.00     0.009 C 
ENDBRANCH   7  13
BRANCH  11  19
HETATM   19  N   UNL     1       2.113  35.797  57.596  1.00  0.00    -0.282 NA
HETATM   20  H   UNL     1       1.241  35.332  57.355  1.00  0.00     0.126 HD
HETATM   21  H   UNL     1       2.808  35.752  56.854  1.00  0.00     0.126 HD
ENDBRANCH  11  19
BRANCH   1  22
HETATM   22  C   UNL     1       5.498  33.195  62.704  1.00  0.00    -0.005 A 
HETATM   23  C   UNL     1       5.377  33.348  64.091  1.00  0.00     0.014 A 
HETATM   24  C   UNL     1       6.508  33.303  64.911  1.00  0.00     0.001 A 
HETATM   25  C   UNL     1       7.770  33.116  64.349  1.00  0.00     0.000 A 
HETATM   26  C   UNL     1       7.906  32.986  62.968  1.00  0.00     0.001 A 
HETATM   27  C   UNL     1       6.774  33.031  62.148  1.00  0.00     0.014 A 
ENDBRANCH   1  22
TORSDOF 3
ENDMDL
