MODEL 1
REMARK VINA RESULT:      -9.0      0.000      0.000
REMARK  8 active torsions:
REMARK  status: ('A' for Active; 'I' for Inactive)
REMARK    1  A    between atoms: C_2  and  C_3 
REMARK    2  A    between atoms: C_3  and  O_4 
REMARK    3  A    between atoms: O_4  and  C_5 
REMARK    4  A    between atoms: C_6  and  C_7 
REMARK    5  A    between atoms: C_11  and  C_12 
REMARK       I    between atoms: C_12  and  N_13 
REMARK    6  A    between atoms: N_13  and  N_14 
REMARK    7  A    between atoms: C_15  and  C_16 
REMARK    8  A    between atoms: C_18  and  O_19 
ROOT
HETATM    1  C   UNL     1       7.337  23.619  53.098  1.00  0.00     0.092 A 
HETATM    2  N   UNL     1       8.260  24.368  52.479  1.00  0.00    -0.174 NA
HETATM    3  N   UNL     1       7.552  25.313  51.844  1.00  0.00    -0.272 N 
HETATM    4  H   UNL     1       8.043  26.001  51.279  1.00  0.00     0.189 HD
HETATM    5  C   UNL     1       6.205  25.263  52.078  1.00  0.00     0.121 A 
HETATM    6  C   UNL     1       6.034  24.148  52.874  1.00  0.00     0.071 A 
ENDROOT
BRANCH   5   7
HETATM    7  C   UNL     1       5.311  26.257  51.536  1.00  0.00     0.289 C 
HETATM    8  N   UNL     1       5.279  26.306  50.148  1.00  0.00    -0.242 N 
HETATM    9  H   UNL     1       5.849  25.675  49.603  1.00  0.00     0.192 HD
HETATM   10  O   UNL     1       4.626  26.965  52.269  1.00  0.00    -0.264 OA
BRANCH   8  11
HETATM   11  N   UNL     1       4.397  27.130  49.510  1.00  0.00    -0.184 NA
HETATM   12  C   UNL     1       3.482  26.536  48.812  1.00  0.00     0.150 C 
BRANCH  12  13
HETATM   13  C   UNL     1       2.443  27.298  48.090  1.00  0.00    -0.014 A 
HETATM   14  C   UNL     1       1.710  26.700  47.061  1.00  0.00     0.049 A 
HETATM   15  C   UNL     1       0.750  27.451  46.391  1.00  0.00     0.066 A 
HETATM   16  C   UNL     1       0.513  28.779  46.733  1.00  0.00     0.036 A 
HETATM   17  C   UNL     1       1.246  29.371  47.762  1.00  0.00     0.004 A 
HETATM   18  C   UNL     1       2.214  28.632  48.445  1.00  0.00     0.013 A 
BRANCH  15  19
HETATM   19  O   UNL     1       0.010  26.915  45.378  1.00  0.00    -0.361 OA
HETATM   20  H   UNL     1       0.578  26.320  44.860  1.00  0.00     0.217 HD
ENDBRANCH  15  19
ENDBRANCH  12  13
ENDBRANCH   8  11
ENDBRANCH   5   7
BRANCH   1  21
HETATM   21  C   UNL     1       7.684  22.479  53.947  1.00  0.00     0.028 A 
HETATM   22  C   UNL     1       7.627  22.533  55.353  1.00  0.00     0.081 A 
HETATM   23  C   UNL     1       7.988  21.400  56.097  1.00  0.00     0.038 A 
HETATM   24  C   UNL     1       8.384  20.222  55.459  1.00  0.00     0.003 A 
HETATM   25  C   UNL     1       8.434  20.164  54.070  1.00  0.00     0.001 A 
HETATM   26  C   UNL     1       8.088  21.286  53.319  1.00  0.00     0.017 A 
BRANCH  22  27
HETATM   27  O   UNL     1       7.284  23.728  55.935  1.00  0.00    -0.350 OA
BRANCH  27  28
HETATM   28  C   UNL     1       8.208  24.260  56.885  1.00  0.00     0.175 C 
BRANCH  28  29
HETATM   29  C   UNL     1       7.991  25.769  56.967  1.00  0.00     0.022 C 
HETATM   30  C   UNL     1       7.336  26.311  55.708  1.00  0.00     0.007 C 
ENDBRANCH  28  29
ENDBRANCH  27  28
ENDBRANCH  22  27
ENDBRANCH   1  21
TORSDOF 8
ENDMDL
MODEL 2
REMARK VINA RESULT:      -8.8      6.303     10.105
REMARK  8 active torsions:
REMARK  status: ('A' for Active; 'I' for Inactive)
REMARK    1  A    between atoms: C_2  and  C_3 
REMARK    2  A    between atoms: C_3  and  O_4 
REMARK    3  A    between atoms: O_4  and  C_5 
REMARK    4  A    between atoms: C_6  and  C_7 
REMARK    5  A    between atoms: C_11  and  C_12 
REMARK       I    between atoms: C_12  and  N_13 
REMARK    6  A    between atoms: N_13  and  N_14 
REMARK    7  A    between atoms: C_15  and  C_16 
REMARK    8  A    between atoms: C_18  and  O_19 
ROOT
HETATM    1  C   UNL     1       8.483  29.985  58.838  1.00  0.00     0.092 A 
HETATM    2  N   UNL     1       9.608  30.100  58.120  1.00  0.00    -0.174 NA
HETATM    3  N   UNL     1       9.518  29.129  57.199  1.00  0.00    -0.272 N 
HETATM    4  H   UNL     1      10.280  29.005  56.537  1.00  0.00     0.189 HD
HETATM    5  C   UNL     1       8.345  28.425  57.234  1.00  0.00     0.121 A 
HETATM    6  C   UNL     1       7.662  28.946  58.314  1.00  0.00     0.071 A 
ENDROOT
BRANCH   5   7
HETATM    7  C   UNL     1       8.056  27.400  56.261  1.00  0.00     0.289 C 
HETATM    8  N   UNL     1       8.202  26.102  56.731  1.00  0.00    -0.242 N 
HETATM    9  H   UNL     1       8.486  25.935  57.686  1.00  0.00     0.192 HD
HETATM   10  O   UNL     1       7.684  27.688  55.126  1.00  0.00    -0.264 OA
BRANCH   8  11
HETATM   11  N   UNL     1       7.857  25.042  55.942  1.00  0.00    -0.184 NA
HETATM   12  C   UNL     1       8.765  24.131  55.801  1.00  0.00     0.150 C 
BRANCH  12  13
HETATM   13  C   UNL     1       8.524  22.915  54.999  1.00  0.00    -0.014 A 
HETATM   14  C   UNL     1       8.848  21.653  55.506  1.00  0.00     0.049 A 
HETATM   15  C   UNL     1       8.622  20.530  54.717  1.00  0.00     0.066 A 
HETATM   16  C   UNL     1       8.080  20.648  53.441  1.00  0.00     0.036 A 
HETATM   17  C   UNL     1       7.757  21.910  52.939  1.00  0.00     0.004 A 
HETATM   18  C   UNL     1       7.978  23.048  53.717  1.00  0.00     0.013 A 
BRANCH  15  19
HETATM   19  O   UNL     1       8.922  19.277  55.164  1.00  0.00    -0.361 OA
HETATM   20  H   UNL     1       9.030  19.310  56.130  1.00  0.00     0.217 HD
ENDBRANCH  15  19
ENDBRANCH  12  13
ENDBRANCH   8  11
ENDBRANCH   5   7
BRANCH   1  21
HETATM   21  C   UNL     1       8.155  30.887  59.942  1.00  0.00     0.028 A 
HETATM   22  C   UNL     1       7.301  31.995  59.790  1.00  0.00     0.081 A 
HETATM   23  C   UNL     1       7.044  32.820  60.896  1.00  0.00     0.038 A 
HETATM   24  C   UNL     1       7.613  32.542  62.142  1.00  0.00     0.003 A 
HETATM   25  C   UNL     1       8.452  31.444  62.296  1.00  0.00     0.001 A 
HETATM   26  C   UNL     1       8.723  30.622  61.203  1.00  0.00     0.017 A 
BRANCH  22  27
HETATM   27  O   UNL     1       6.809  32.258  58.536  1.00  0.00    -0.350 OA
BRANCH  27  28
HETATM   28  C   UNL     1       5.447  32.682  58.464  1.00  0.00     0.175 C 
BRANCH  28  29
HETATM   29  C   UNL     1       4.556  31.465  58.695  1.00  0.00     0.022 C 
HETATM   30  C   UNL     1       3.482  31.745  59.732  1.00  0.00     0.007 C 
ENDBRANCH  28  29
ENDBRANCH  27  28
ENDBRANCH  22  27
ENDBRANCH   1  21
TORSDOF 8
ENDMDL
MODEL 3
REMARK VINA RESULT:      -8.7      7.515     11.761
REMARK  8 active torsions:
REMARK  status: ('A' for Active; 'I' for Inactive)
REMARK    1  A    between atoms: C_2  and  C_3 
REMARK    2  A    between atoms: C_3  and  O_4 
REMARK    3  A    between atoms: O_4  and  C_5 
REMARK    4  A    between atoms: C_6  and  C_7 
REMARK    5  A    between atoms: C_11  and  C_12 
REMARK       I    between atoms: C_12  and  N_13 
REMARK    6  A    between atoms: N_13  and  N_14 
REMARK    7  A    between atoms: C_15  and  C_16 
REMARK    8  A    between atoms: C_18  and  O_19 
ROOT
HETATM    1  C   UNL     1       8.307  28.145  57.071  1.00  0.00     0.092 A 
HETATM    2  N   UNL     1       9.354  28.841  56.608  1.00  0.00    -0.174 NA
HETATM    3  N   UNL     1       9.367  29.958  57.350  1.00  0.00    -0.272 N 
HETATM    4  H   UNL     1      10.075  30.664  57.167  1.00  0.00     0.189 HD
HETATM    5  C   UNL     1       8.415  29.994  58.332  1.00  0.00     0.121 A 
HETATM    6  C   UNL     1       7.690  28.833  58.154  1.00  0.00     0.071 A 
ENDROOT
BRANCH   5   7
HETATM    7  C   UNL     1       8.344  31.089  59.270  1.00  0.00     0.289 C 
HETATM    8  N   UNL     1       7.628  30.811  60.426  1.00  0.00    -0.242 N 
HETATM    9  H   UNL     1       7.212  29.900  60.561  1.00  0.00     0.192 HD
HETATM   10  O   UNL     1       8.907  32.156  59.044  1.00  0.00    -0.264 OA
BRANCH   8  11
HETATM   11  N   UNL     1       7.576  31.726  61.439  1.00  0.00    -0.184 NA
HETATM   12  C   UNL     1       6.619  31.559  62.294  1.00  0.00     0.150 C 
BRANCH  12  13
HETATM   13  C   UNL     1       6.454  32.454  63.457  1.00  0.00    -0.014 A 
HETATM   14  C   UNL     1       5.180  32.757  63.946  1.00  0.00     0.049 A 
HETATM   15  C   UNL     1       5.061  33.616  65.033  1.00  0.00     0.066 A 
HETATM   16  C   UNL     1       6.187  34.172  65.633  1.00  0.00     0.036 A 
HETATM   17  C   UNL     1       7.457  33.866  65.142  1.00  0.00     0.004 A 
HETATM   18  C   UNL     1       7.595  33.005  64.052  1.00  0.00     0.013 A 
BRANCH  15  19
HETATM   19  O   UNL     1       3.841  33.945  65.547  1.00  0.00    -0.361 OA
HETATM   20  H   UNL     1       3.921  34.792  66.018  1.00  0.00     0.217 HD
ENDBRANCH  15  19
ENDBRANCH  12  13
ENDBRANCH   8  11
ENDBRANCH   5   7
BRANCH   1  21
HETATM   21  C   UNL     1       7.946  26.824  56.554  1.00  0.00     0.028 A 
HETATM   22  C   UNL     1       7.181  26.649  55.385  1.00  0.00     0.081 A 
HETATM   23  C   UNL     1       6.866  25.350  54.960  1.00  0.00     0.038 A 
HETATM   24  C   UNL     1       7.318  24.236  55.673  1.00  0.00     0.003 A 
HETATM   25  C   UNL     1       8.080  24.406  56.824  1.00  0.00     0.001 A 
HETATM   26  C   UNL     1       8.391  25.693  57.262  1.00  0.00     0.017 A 
BRANCH  22  27
HETATM   27  O   UNL     1       6.716  27.773  54.749  1.00  0.00    -0.350 OA
BRANCH  27  28
HETATM   28  C   UNL     1       5.314  27.815  54.478  1.00  0.00     0.175 C 
BRANCH  28  29
HETATM   29  C   UNL     1       4.593  28.218  55.761  1.00  0.00     0.022 C 
HETATM   30  C   UNL     1       4.761  29.698  56.059  1.00  0.00     0.007 C 
ENDBRANCH  28  29
ENDBRANCH  27  28
ENDBRANCH  22  27
ENDBRANCH   1  21
TORSDOF 8
ENDMDL
MODEL 4
REMARK VINA RESULT:      -8.6      6.604     10.902
REMARK  8 active torsions:
REMARK  status: ('A' for Active; 'I' for Inactive)
REMARK    1  A    between atoms: C_2  and  C_3 
REMARK    2  A    between atoms: C_3  and  O_4 
REMARK    3  A    between atoms: O_4  and  C_5 
REMARK    4  A    between atoms: C_6  and  C_7 
REMARK    5  A    between atoms: C_11  and  C_12 
REMARK       I    between atoms: C_12  and  N_13 
REMARK    6  A    between atoms: N_13  and  N_14 
REMARK    7  A    between atoms: C_15  and  C_16 
REMARK    8  A    between atoms: C_18  and  O_19 
ROOT
HETATM    1  C   UNL     1       8.451  31.666  60.197  1.00  0.00     0.092 A 
HETATM    2  N   UNL     1       9.327  32.325  59.426  1.00  0.00    -0.174 NA
HETATM    3  N   UNL     1       9.623  31.461  58.444  1.00  0.00    -0.272 N 
HETATM    4  H   UNL     1      10.296  31.735  57.733  1.00  0.00     0.189 HD
HETATM    5  C   UNL     1       8.923  30.286  58.496  1.00  0.00     0.121 A 
HETATM    6  C   UNL     1       8.169  30.383  59.648  1.00  0.00     0.071 A 
ENDROOT
BRANCH   5   7
HETATM    7  C   UNL     1       9.065  29.282  57.469  1.00  0.00     0.289 C 
HETATM    8  N   UNL     1       8.087  28.297  57.489  1.00  0.00    -0.242 N 
HETATM    9  H   UNL     1       7.352  28.323  58.182  1.00  0.00     0.192 HD
HETATM   10  O   UNL     1       9.971  29.342  56.642  1.00  0.00    -0.264 OA
BRANCH   8  11
HETATM   11  N   UNL     1       8.046  27.349  56.507  1.00  0.00    -0.184 NA
HETATM   12  C   UNL     1       7.985  26.123  56.916  1.00  0.00     0.150 C 
BRANCH  12  13
HETATM   13  C   UNL     1       7.907  24.993  55.968  1.00  0.00    -0.014 A 
HETATM   14  C   UNL     1       8.568  23.791  56.238  1.00  0.00     0.049 A 
HETATM   15  C   UNL     1       8.486  22.753  55.316  1.00  0.00     0.066 A 
HETATM   16  C   UNL     1       7.760  22.898  54.138  1.00  0.00     0.036 A 
HETATM   17  C   UNL     1       7.101  24.099  53.872  1.00  0.00     0.004 A 
HETATM   18  C   UNL     1       7.172  25.151  54.787  1.00  0.00     0.013 A 
BRANCH  15  19
HETATM   19  O   UNL     1       9.113  21.562  55.532  1.00  0.00    -0.361 OA
HETATM   20  H   UNL     1       8.485  20.953  55.955  1.00  0.00     0.217 HD
ENDBRANCH  15  19
ENDBRANCH  12  13
ENDBRANCH   8  11
ENDBRANCH   5   7
BRANCH   1  21
HETATM   21  C   UNL     1       7.835  32.266  61.381  1.00  0.00     0.028 A 
HETATM   22  C   UNL     1       6.597  32.935  61.337  1.00  0.00     0.081 A 
HETATM   23  C   UNL     1       6.077  33.494  62.515  1.00  0.00     0.038 A 
HETATM   24  C   UNL     1       6.766  33.378  63.725  1.00  0.00     0.003 A 
HETATM   25  C   UNL     1       7.986  32.711  63.773  1.00  0.00     0.001 A 
HETATM   26  C   UNL     1       8.518  32.160  62.607  1.00  0.00     0.017 A 
BRANCH  22  27
HETATM   27  O   UNL     1       5.984  33.069  60.116  1.00  0.00    -0.350 OA
BRANCH  27  28
HETATM   28  C   UNL     1       4.710  32.442  59.973  1.00  0.00     0.175 C 
BRANCH  28  29
HETATM   29  C   UNL     1       4.742  31.580  58.714  1.00  0.00     0.022 C 
HETATM   30  C   UNL     1       5.363  32.321  57.542  1.00  0.00     0.007 C 
ENDBRANCH  28  29
ENDBRANCH  27  28
ENDBRANCH  22  27
ENDBRANCH   1  21
TORSDOF 8
ENDMDL
MODEL 5
REMARK VINA RESULT:      -8.4      1.739      2.196
REMARK  8 active torsions:
REMARK  status: ('A' for Active; 'I' for Inactive)
REMARK    1  A    between atoms: C_2  and  C_3 
REMARK    2  A    between atoms: C_3  and  O_4 
REMARK    3  A    between atoms: O_4  and  C_5 
REMARK    4  A    between atoms: C_6  and  C_7 
REMARK    5  A    between atoms: C_11  and  C_12 
REMARK       I    between atoms: C_12  and  N_13 
REMARK    6  A    between atoms: N_13  and  N_14 
REMARK    7  A    between atoms: C_15  and  C_16 
REMARK    8  A    between atoms: C_18  and  O_19 
ROOT
HETATM    1  C   UNL     1       6.418  24.640  52.895  1.00  0.00     0.092 A 
HETATM    2  N   UNL     1       5.144  24.752  53.297  1.00  0.00    -0.174 NA
HETATM    3  N   UNL     1       4.579  25.568  52.395  1.00  0.00    -0.272 N 
HETATM    4  H   UNL     1       3.601  25.821  52.504  1.00  0.00     0.189 HD
HETATM    5  C   UNL     1       5.410  25.941  51.373  1.00  0.00     0.121 A 
HETATM    6  C   UNL     1       6.626  25.370  51.690  1.00  0.00     0.071 A 
ENDROOT
BRANCH   5   7
HETATM    7  C   UNL     1       4.935  26.752  50.278  1.00  0.00     0.289 C 
HETATM    8  N   UNL     1       4.054  26.105  49.423  1.00  0.00    -0.242 N 
HETATM    9  H   UNL     1       3.790  25.144  49.595  1.00  0.00     0.192 HD
HETATM   10  O   UNL     1       5.280  27.924  50.159  1.00  0.00    -0.264 OA
BRANCH   8  11
HETATM   11  N   UNL     1       3.451  26.791  48.409  1.00  0.00    -0.184 NA
HETATM   12  C   UNL     1       2.243  27.192  48.646  1.00  0.00     0.150 C 
BRANCH  12  13
HETATM   13  C   UNL     1       1.476  27.970  47.652  1.00  0.00    -0.014 A 
HETATM   14  C   UNL     1       1.635  29.356  47.558  1.00  0.00     0.049 A 
HETATM   15  C   UNL     1       0.886  30.060  46.622  1.00  0.00     0.066 A 
HETATM   16  C   UNL     1      -0.011  29.405  45.784  1.00  0.00     0.036 A 
HETATM   17  C   UNL     1      -0.165  28.021  45.879  1.00  0.00     0.004 A 
HETATM   18  C   UNL     1       0.579  27.299  46.814  1.00  0.00     0.013 A 
BRANCH  15  19
HETATM   19  O   UNL     1       1.001  31.413  46.492  1.00  0.00    -0.361 OA
HETATM   20  H   UNL     1       0.568  31.683  45.665  1.00  0.00     0.217 HD
ENDBRANCH  15  19
ENDBRANCH  12  13
ENDBRANCH   8  11
ENDBRANCH   5   7
BRANCH   1  21
HETATM   21  C   UNL     1       7.394  23.799  53.588  1.00  0.00     0.028 A 
HETATM   22  C   UNL     1       7.989  24.173  54.807  1.00  0.00     0.081 A 
HETATM   23  C   UNL     1       8.926  23.317  55.405  1.00  0.00     0.038 A 
HETATM   24  C   UNL     1       9.257  22.095  54.812  1.00  0.00     0.003 A 
HETATM   25  C   UNL     1       8.664  21.719  53.611  1.00  0.00     0.001 A 
HETATM   26  C   UNL     1       7.739  22.567  53.002  1.00  0.00     0.017 A 
BRANCH  22  27
HETATM   27  O   UNL     1       7.673  25.406  55.323  1.00  0.00    -0.350 OA
BRANCH  27  28
HETATM   28  C   UNL     1       7.429  25.462  56.729  1.00  0.00     0.175 C 
BRANCH  28  29
HETATM   29  C   UNL     1       5.948  25.180  56.967  1.00  0.00     0.022 C 
HETATM   30  C   UNL     1       5.101  26.426  56.773  1.00  0.00     0.007 C 
ENDBRANCH  28  29
ENDBRANCH  27  28
ENDBRANCH  22  27
ENDBRANCH   1  21
TORSDOF 8
ENDMDL
MODEL 6
REMARK VINA RESULT:      -8.2      5.755      9.583
REMARK  8 active torsions:
REMARK  status: ('A' for Active; 'I' for Inactive)
REMARK    1  A    between atoms: C_2  and  C_3 
REMARK    2  A    between atoms: C_3  and  O_4 
REMARK    3  A    between atoms: O_4  and  C_5 
REMARK    4  A    between atoms: C_6  and  C_7 
REMARK    5  A    between atoms: C_11  and  C_12 
REMARK       I    between atoms: C_12  and  N_13 
REMARK    6  A    between atoms: N_13  and  N_14 
REMARK    7  A    between atoms: C_15  and  C_16 
REMARK    8  A    between atoms: C_18  and  O_19 
ROOT
HETATM    1  C   UNL     1       6.545  30.386  57.276  1.00  0.00     0.092 A 
HETATM    2  N   UNL     1       5.858  30.745  56.183  1.00  0.00    -0.174 NA
HETATM    3  N   UNL     1       6.124  29.781  55.289  1.00  0.00    -0.272 N 
HETATM    4  H   UNL     1       5.721  29.847  54.358  1.00  0.00     0.189 HD
HETATM    5  C   UNL     1       6.900  28.763  55.772  1.00  0.00     0.121 A 
HETATM    6  C   UNL     1       7.212  29.147  57.061  1.00  0.00     0.071 A 
ENDROOT
BRANCH   5   7
HETATM    7  C   UNL     1       7.211  27.608  54.964  1.00  0.00     0.289 C 
HETATM    8  N   UNL     1       6.896  26.391  55.553  1.00  0.00    -0.242 N 
HETATM    9  H   UNL     1       6.479  26.364  56.473  1.00  0.00     0.192 HD
HETATM   10  O   UNL     1       7.689  27.730  53.839  1.00  0.00    -0.264 OA
BRANCH   8  11
HETATM   11  N   UNL     1       7.043  25.229  54.852  1.00  0.00    -0.184 NA
HETATM   12  C   UNL     1       7.651  24.272  55.476  1.00  0.00     0.150 C 
BRANCH  12  13
HETATM   13  C   UNL     1       7.858  22.949  54.853  1.00  0.00    -0.014 A 
HETATM   14  C   UNL     1       8.218  21.846  55.631  1.00  0.00     0.049 A 
HETATM   15  C   UNL     1       8.420  20.618  55.009  1.00  0.00     0.066 A 
HETATM   16  C   UNL     1       8.267  20.479  53.633  1.00  0.00     0.036 A 
HETATM   17  C   UNL     1       7.906  21.584  52.860  1.00  0.00     0.004 A 
HETATM   18  C   UNL     1       7.700  22.823  53.468  1.00  0.00     0.013 A 
BRANCH  15  19
HETATM   19  O   UNL     1       8.775  19.511  55.723  1.00  0.00    -0.361 OA
HETATM   20  H   UNL     1       7.966  19.050  56.002  1.00  0.00     0.217 HD
ENDBRANCH  15  19
ENDBRANCH  12  13
ENDBRANCH   8  11
ENDBRANCH   5   7
BRANCH   1  21
HETATM   21  C   UNL     1       6.508  31.155  58.520  1.00  0.00     0.028 A 
HETATM   22  C   UNL     1       7.595  31.210  59.412  1.00  0.00     0.081 A 
HETATM   23  C   UNL     1       7.477  31.961  60.591  1.00  0.00     0.038 A 
HETATM   24  C   UNL     1       6.303  32.664  60.876  1.00  0.00     0.003 A 
HETATM   25  C   UNL     1       5.230  32.617  59.993  1.00  0.00     0.001 A 
HETATM   26  C   UNL     1       5.331  31.866  58.823  1.00  0.00     0.017 A 
BRANCH  22  27
HETATM   27  O   UNL     1       8.707  30.461  59.115  1.00  0.00    -0.350 OA
BRANCH  27  28
HETATM   28  C   UNL     1       9.922  31.182  58.911  1.00  0.00     0.175 C 
BRANCH  28  29
HETATM   29  C   UNL     1      10.338  31.013  57.453  1.00  0.00     0.022 C 
HETATM   30  C   UNL     1      11.236  29.802  57.261  1.00  0.00     0.007 C 
ENDBRANCH  28  29
ENDBRANCH  27  28
ENDBRANCH  22  27
ENDBRANCH   1  21
TORSDOF 8
ENDMDL
MODEL 7
REMARK VINA RESULT:      -8.0      8.699     12.107
REMARK  8 active torsions:
REMARK  status: ('A' for Active; 'I' for Inactive)
REMARK    1  A    between atoms: C_2  and  C_3 
REMARK    2  A    between atoms: C_3  and  O_4 
REMARK    3  A    between atoms: O_4  and  C_5 
REMARK    4  A    between atoms: C_6  and  C_7 
REMARK    5  A    between atoms: C_11  and  C_12 
REMARK       I    between atoms: C_12  and  N_13 
REMARK    6  A    between atoms: N_13  and  N_14 
REMARK    7  A    between atoms: C_15  and  C_16 
REMARK    8  A    between atoms: C_18  and  O_19 
ROOT
HETATM    1  C   UNL     1       6.990  32.140  62.876  1.00  0.00     0.092 A 
HETATM    2  N   UNL     1       7.987  31.249  62.974  1.00  0.00    -0.174 NA
HETATM    3  N   UNL     1       8.180  30.823  61.717  1.00  0.00    -0.272 N 
HETATM    4  H   UNL     1       8.887  30.116  61.540  1.00  0.00     0.189 HD
HETATM    5  C   UNL     1       7.400  31.450  60.783  1.00  0.00     0.121 A 
HETATM    6  C   UNL     1       6.594  32.297  61.518  1.00  0.00     0.071 A 
ENDROOT
BRANCH   5   7
HETATM    7  C   UNL     1       7.541  31.166  59.376  1.00  0.00     0.289 C 
HETATM    8  N   UNL     1       7.776  29.830  59.079  1.00  0.00    -0.242 N 
HETATM    9  H   UNL     1       7.831  29.146  59.820  1.00  0.00     0.192 HD
HETATM   10  O   UNL     1       7.428  32.053  58.534  1.00  0.00    -0.264 OA
BRANCH   8  11
HETATM   11  N   UNL     1       7.823  29.413  57.779  1.00  0.00    -0.184 NA
HETATM   12  C   UNL     1       7.334  28.237  57.552  1.00  0.00     0.150 C 
BRANCH  12  13
HETATM   13  C   UNL     1       7.292  27.665  56.191  1.00  0.00    -0.014 A 
HETATM   14  C   UNL     1       7.049  28.483  55.084  1.00  0.00     0.049 A 
HETATM   15  C   UNL     1       7.001  27.910  53.818  1.00  0.00     0.066 A 
HETATM   16  C   UNL     1       7.192  26.542  53.643  1.00  0.00     0.036 A 
HETATM   17  C   UNL     1       7.436  25.729  54.752  1.00  0.00     0.004 A 
HETATM   18  C   UNL     1       7.487  26.289  56.030  1.00  0.00     0.013 A 
BRANCH  15  19
HETATM   19  O   UNL     1       6.765  28.663  52.706  1.00  0.00    -0.361 OA
HETATM   20  H   UNL     1       6.247  29.444  52.965  1.00  0.00     0.217 HD
ENDBRANCH  15  19
ENDBRANCH  12  13
ENDBRANCH   8  11
ENDBRANCH   5   7
BRANCH   1  21
HETATM   21  C   UNL     1       6.479  32.883  64.028  1.00  0.00     0.028 A 
HETATM   22  C   UNL     1       5.108  33.132  64.224  1.00  0.00     0.081 A 
HETATM   23  C   UNL     1       4.698  33.863  65.349  1.00  0.00     0.038 A 
HETATM   24  C   UNL     1       5.632  34.328  66.279  1.00  0.00     0.003 A 
HETATM   25  C   UNL     1       6.987  34.077  66.091  1.00  0.00     0.001 A 
HETATM   26  C   UNL     1       7.408  33.360  64.972  1.00  0.00     0.017 A 
BRANCH  22  27
HETATM   27  O   UNL     1       4.234  32.701  63.257  1.00  0.00    -0.350 OA
BRANCH  27  28
HETATM   28  C   UNL     1       3.202  33.614  62.882  1.00  0.00     0.175 C 
BRANCH  28  29
HETATM   29  C   UNL     1       3.507  34.127  61.477  1.00  0.00     0.022 C 
HETATM   30  C   UNL     1       4.324  35.408  61.512  1.00  0.00     0.007 C 
ENDBRANCH  28  29
ENDBRANCH  27  28
ENDBRANCH  22  27
ENDBRANCH   1  21
TORSDOF 8
ENDMDL
MODEL 8
REMARK VINA RESULT:      -7.7      6.705     10.524
REMARK  8 active torsions:
REMARK  status: ('A' for Active; 'I' for Inactive)
REMARK    1  A    between atoms: C_2  and  C_3 
REMARK    2  A    between atoms: C_3  and  O_4 
REMARK    3  A    between atoms: O_4  and  C_5 
REMARK    4  A    between atoms: C_6  and  C_7 
REMARK    5  A    between atoms: C_11  and  C_12 
REMARK       I    between atoms: C_12  and  N_13 
REMARK    6  A    between atoms: N_13  and  N_14 
REMARK    7  A    between atoms: C_15  and  C_16 
REMARK    8  A    between atoms: C_18  and  O_19 
ROOT
HETATM    1  C   UNL     1       5.044  31.621  58.721  1.00  0.00     0.092 A 
HETATM    2  N   UNL     1       4.089  30.696  58.554  1.00  0.00    -0.174 NA
HETATM    3  N   UNL     1       4.663  29.758  57.785  1.00  0.00    -0.272 N 
HETATM    4  H   UNL     1       4.116  28.949  57.504  1.00  0.00     0.189 HD
HETATM    5  C   UNL     1       5.980  29.993  57.498  1.00  0.00     0.121 A 
HETATM    6  C   UNL     1       6.247  31.218  58.075  1.00  0.00     0.071 A 
ENDROOT
BRANCH   5   7
HETATM    7  C   UNL     1       6.766  29.042  56.749  1.00  0.00     0.289 C 
HETATM    8  N   UNL     1       6.599  27.721  57.143  1.00  0.00    -0.242 N 
HETATM    9  H   UNL     1       5.964  27.490  57.894  1.00  0.00     0.192 HD
HETATM   10  O   UNL     1       7.490  29.403  55.826  1.00  0.00    -0.264 OA
BRANCH   8  11
HETATM   11  N   UNL     1       7.204  26.715  56.446  1.00  0.00    -0.184 NA
HETATM   12  C   UNL     1       6.466  26.124  55.562  1.00  0.00     0.150 C 
BRANCH  12  13
HETATM   13  C   UNL     1       6.994  25.036  54.714  1.00  0.00    -0.014 A 
HETATM   14  C   UNL     1       7.076  23.729  55.203  1.00  0.00     0.049 A 
HETATM   15  C   UNL     1       7.592  22.732  54.383  1.00  0.00     0.066 A 
HETATM   16  C   UNL     1       8.024  23.019  53.092  1.00  0.00     0.036 A 
HETATM   17  C   UNL     1       7.939  24.325  52.607  1.00  0.00     0.004 A 
HETATM   18  C   UNL     1       7.423  25.338  53.417  1.00  0.00     0.013 A 
BRANCH  15  19
HETATM   19  O   UNL     1       7.696  21.442  54.814  1.00  0.00    -0.361 OA
HETATM   20  H   UNL     1       8.634  21.242  54.971  1.00  0.00     0.217 HD
ENDBRANCH  15  19
ENDBRANCH  12  13
ENDBRANCH   8  11
ENDBRANCH   5   7
BRANCH   1  21
HETATM   21  C   UNL     1       4.848  32.819  59.537  1.00  0.00     0.028 A 
HETATM   22  C   UNL     1       5.507  33.018  60.765  1.00  0.00     0.081 A 
HETATM   23  C   UNL     1       5.257  34.189  61.496  1.00  0.00     0.038 A 
HETATM   24  C   UNL     1       4.378  35.161  61.010  1.00  0.00     0.003 A 
HETATM   25  C   UNL     1       3.731  34.970  59.793  1.00  0.00     0.001 A 
HETATM   26  C   UNL     1       3.964  33.806  59.062  1.00  0.00     0.017 A 
BRANCH  22  27
HETATM   27  O   UNL     1       6.319  32.012  61.227  1.00  0.00    -0.350 OA
BRANCH  27  28
HETATM   28  C   UNL     1       7.698  32.338  61.400  1.00  0.00     0.175 C 
BRANCH  28  29
HETATM   29  C   UNL     1       8.140  31.831  62.770  1.00  0.00     0.022 C 
HETATM   30  C   UNL     1       7.824  32.832  63.868  1.00  0.00     0.007 C 
ENDBRANCH  28  29
ENDBRANCH  27  28
ENDBRANCH  22  27
ENDBRANCH   1  21
TORSDOF 8
ENDMDL
MODEL 9
REMARK VINA RESULT:      -7.6      3.068      3.580
REMARK  8 active torsions:
REMARK  status: ('A' for Active; 'I' for Inactive)
REMARK    1  A    between atoms: C_2  and  C_3 
REMARK    2  A    between atoms: C_3  and  O_4 
REMARK    3  A    between atoms: O_4  and  C_5 
REMARK    4  A    between atoms: C_6  and  C_7 
REMARK    5  A    between atoms: C_11  and  C_12 
REMARK       I    between atoms: C_12  and  N_13 
REMARK    6  A    between atoms: N_13  and  N_14 
REMARK    7  A    between atoms: C_15  and  C_16 
REMARK    8  A    between atoms: C_18  and  O_19 
ROOT
HETATM    1  C   UNL     1       6.426  24.488  52.975  1.00  0.00     0.092 A 
HETATM    2  N   UNL     1       5.134  24.599  53.313  1.00  0.00    -0.174 NA
HETATM    3  N   UNL     1       4.611  25.403  52.375  1.00  0.00    -0.272 N 
HETATM    4  H   UNL     1       3.627  25.652  52.433  1.00  0.00     0.189 HD
HETATM    5  C   UNL     1       5.489  25.768  51.391  1.00  0.00     0.121 A 
HETATM    6  C   UNL     1       6.690  25.205  51.774  1.00  0.00     0.071 A 
ENDROOT
BRANCH   5   7
HETATM    7  C   UNL     1       5.066  26.564  50.265  1.00  0.00     0.289 C 
HETATM    8  N   UNL     1       5.735  27.773  50.131  1.00  0.00    -0.242 N 
HETATM    9  H   UNL     1       6.457  28.032  50.789  1.00  0.00     0.192 HD
HETATM   10  O   UNL     1       4.201  26.162  49.491  1.00  0.00    -0.264 OA
BRANCH   8  11
HETATM   11  N   UNL     1       5.503  28.571  49.048  1.00  0.00    -0.184 NA
HETATM   12  C   UNL     1       5.232  29.809  49.313  1.00  0.00     0.150 C 
BRANCH  12  13
HETATM   13  C   UNL     1       4.985  30.795  48.241  1.00  0.00    -0.014 A 
HETATM   14  C   UNL     1       5.374  32.128  48.398  1.00  0.00     0.049 A 
HETATM   15  C   UNL     1       5.112  33.033  47.375  1.00  0.00     0.066 A 
HETATM   16  C   UNL     1       4.475  32.627  46.206  1.00  0.00     0.036 A 
HETATM   17  C   UNL     1       4.090  31.294  46.053  1.00  0.00     0.004 A 
HETATM   18  C   UNL     1       4.345  30.373  47.070  1.00  0.00     0.013 A 
BRANCH  15  19
HETATM   19  O   UNL     1       5.469  34.345  47.480  1.00  0.00    -0.361 OA
HETATM   20  H   UNL     1       5.396  34.757  46.602  1.00  0.00     0.217 HD
ENDBRANCH  15  19
ENDBRANCH  12  13
ENDBRANCH   8  11
ENDBRANCH   5   7
BRANCH   1  21
HETATM   21  C   UNL     1       7.370  23.659  53.725  1.00  0.00     0.028 A 
HETATM   22  C   UNL     1       7.791  23.978  55.029  1.00  0.00     0.081 A 
HETATM   23  C   UNL     1       8.709  23.137  55.678  1.00  0.00     0.038 A 
HETATM   24  C   UNL     1       9.191  21.986  55.050  1.00  0.00     0.003 A 
HETATM   25  C   UNL     1       8.770  21.664  53.764  1.00  0.00     0.001 A 
HETATM   26  C   UNL     1       7.866  22.497  53.105  1.00  0.00     0.017 A 
BRANCH  22  27
HETATM   27  O   UNL     1       7.332  25.147  55.583  1.00  0.00    -0.350 OA
BRANCH  27  28
HETATM   28  C   UNL     1       6.433  25.017  56.685  1.00  0.00     0.175 C 
BRANCH  28  29
HETATM   29  C   UNL     1       5.467  26.198  56.653  1.00  0.00     0.022 C 
HETATM   30  C   UNL     1       6.196  27.523  56.792  1.00  0.00     0.007 C 
ENDBRANCH  28  29
ENDBRANCH  27  28
ENDBRANCH  22  27
ENDBRANCH   1  21
TORSDOF 8
ENDMDL
MODEL 10
REMARK VINA RESULT:      -7.5      1.327      3.021
REMARK  8 active torsions:
REMARK  status: ('A' for Active; 'I' for Inactive)
REMARK    1  A    between atoms: C_2  and  C_3 
REMARK    2  A    between atoms: C_3  and  O_4 
REMARK    3  A    between atoms: O_4  and  C_5 
REMARK    4  A    between atoms: C_6  and  C_7 
REMARK    5  A    between atoms: C_11  and  C_12 
REMARK       I    between atoms: C_12  and  N_13 
REMARK    6  A    between atoms: N_13  and  N_14 
REMARK    7  A    between atoms: C_15  and  C_16 
REMARK    8  A    between atoms: C_18  and  O_19 
ROOT
HETATM    1  C   UNL     1       6.837  25.662  53.522  1.00  0.00     0.092 A 
HETATM    2  N   UNL     1       7.285  25.565  52.263  1.00  0.00    -0.174 NA
HETATM    3  N   UNL     1       6.382  26.237  51.534  1.00  0.00    -0.272 N 
HETATM    4  H   UNL     1       6.501  26.287  50.525  1.00  0.00     0.189 HD
HETATM    5  C   UNL     1       5.395  26.835  52.270  1.00  0.00     0.121 A 
HETATM    6  C   UNL     1       5.653  26.452  53.570  1.00  0.00     0.071 A 
ENDROOT
BRANCH   5   7
HETATM    7  C   UNL     1       4.391  27.663  51.646  1.00  0.00     0.289 C 
HETATM    8  N   UNL     1       4.264  27.480  50.276  1.00  0.00    -0.242 N 
HETATM    9  H   UNL     1       4.845  26.807  49.796  1.00  0.00     0.192 HD
HETATM   10  O   UNL     1       3.703  28.435  52.308  1.00  0.00    -0.264 OA
BRANCH   8  11
HETATM   11  N   UNL     1       3.279  28.126  49.584  1.00  0.00    -0.184 NA
HETATM   12  C   UNL     1       2.976  27.614  48.435  1.00  0.00     0.150 C 
BRANCH  12  13
HETATM   13  C   UNL     1       1.911  28.189  47.588  1.00  0.00    -0.014 A 
HETATM   14  C   UNL     1       0.778  27.438  47.264  1.00  0.00     0.049 A 
HETATM   15  C   UNL     1      -0.198  28.005  46.452  1.00  0.00     0.066 A 
HETATM   16  C   UNL     1      -0.060  29.301  45.964  1.00  0.00     0.036 A 
HETATM   17  C   UNL     1       1.073  30.048  46.291  1.00  0.00     0.004 A 
HETATM   18  C   UNL     1       2.062  29.494  47.106  1.00  0.00     0.013 A 
BRANCH  15  19
HETATM   19  O   UNL     1      -1.322  27.314  46.105  1.00  0.00    -0.361 OA
HETATM   20  H   UNL     1      -1.472  27.427  45.151  1.00  0.00     0.217 HD
ENDBRANCH  15  19
ENDBRANCH  12  13
ENDBRANCH   8  11
ENDBRANCH   5   7
BRANCH   1  21
HETATM   21  C   UNL     1       7.553  25.088  54.661  1.00  0.00     0.028 A 
HETATM   22  C   UNL     1       8.270  23.879  54.577  1.00  0.00     0.081 A 
HETATM   23  C   UNL     1       8.922  23.388  55.718  1.00  0.00     0.038 A 
HETATM   24  C   UNL     1       8.879  24.093  56.925  1.00  0.00     0.003 A 
HETATM   25  C   UNL     1       8.178  25.291  57.008  1.00  0.00     0.001 A 
HETATM   26  C   UNL     1       7.517  25.784  55.883  1.00  0.00     0.017 A 
BRANCH  22  27
HETATM   27  O   UNL     1       8.239  23.197  53.386  1.00  0.00    -0.350 OA
BRANCH  27  28
HETATM   28  C   UNL     1       7.537  21.953  53.386  1.00  0.00     0.175 C 
BRANCH  28  29
HETATM   29  C   UNL     1       8.554  20.832  53.188  1.00  0.00     0.022 C 
HETATM   30  C   UNL     1       8.678  19.962  54.427  1.00  0.00     0.007 C 
ENDBRANCH  28  29
ENDBRANCH  27  28
ENDBRANCH  22  27
ENDBRANCH   1  21
TORSDOF 8
ENDMDL
