MODEL 1
REMARK VINA RESULT:      -9.2      0.000      0.000
REMARK  6 active torsions:
REMARK  status: ('A' for Active; 'I' for Inactive)
REMARK    1  A    between atoms: C_2  and  C_3 
REMARK    2  A    between atoms: C_3  and  C_4 
REMARK    3  A    between atoms: C_4  and  C_5 
REMARK    4  A    between atoms: C_4  and  C_21 
REMARK       I    between atoms: C_5  and  N_6 
REMARK    5  A    between atoms: N_6  and  C_7 
REMARK    6  A    between atoms: C_14  and  C_15 
REMARK       I    between atoms: C_15  and  N_16 
ROOT
HETATM    1  C   UNL     1       5.997  27.115  52.696  1.00  0.00     0.035 A 
HETATM    2  C   UNL     1       5.506  26.656  51.466  1.00  0.00     0.046 A 
HETATM    3  C   UNL     1       4.667  27.490  50.696  1.00  0.00     0.030 A 
HETATM    4  C   UNL     1       4.331  28.744  51.192  1.00  0.00     0.063 A 
HETATM    5  N   UNL     1       3.510  29.298  50.251  1.00  0.00    -0.277 N 
HETATM    6  H   UNL     1       3.063  30.207  50.286  1.00  0.00     0.189 HD
HETATM    7  N   UNL     1       3.307  28.531  49.167  1.00  0.00    -0.168 NA
HETATM    8  C   UNL     1       4.022  27.412  49.425  1.00  0.00     0.156 A 
HETATM    9  C   UNL     1       4.802  29.232  52.413  1.00  0.00     0.034 A 
HETATM   10  C   UNL     1       5.655  28.397  53.145  1.00  0.00     0.032 A 
ENDROOT
BRANCH   1  11
HETATM   11  N   UNL     1       6.868  26.360  53.512  1.00  0.00    -0.327 N 
HETATM   12  C   UNL     1       6.512  25.327  54.368  1.00  0.00     0.231 C 
HETATM   13  O   UNL     1       5.357  25.019  54.655  1.00  0.00    -0.272 OA
HETATM   14  H   UNL     1       7.826  26.679  53.550  1.00  0.00     0.169 HD
BRANCH  12  15
HETATM   15  C   UNL     1       7.729  24.632  55.024  1.00  0.00     0.115 C 
BRANCH  15  16
HETATM   16  C   UNL     1       7.697  24.835  56.570  1.00  0.00    -0.001 C 
HETATM   17  C   UNL     1       9.060  24.548  57.221  1.00  0.00     0.011 C 
BRANCH  16  18
HETATM   18  C   UNL     1       7.196  26.240  56.988  1.00  0.00     0.001 C 
HETATM   19  C   UNL     1       8.269  27.318  57.085  1.00  0.00     0.005 C 
ENDBRANCH  16  18
ENDBRANCH  15  16
BRANCH  15  20
HETATM   20  C   UNL     1       7.804  23.163  54.607  1.00  0.00    -0.045 A 
HETATM   21  C   UNL     1       8.056  22.829  53.266  1.00  0.00     0.008 A 
HETATM   22  C   UNL     1       8.151  21.493  52.870  1.00  0.00     0.001 A 
HETATM   23  C   UNL     1       7.994  20.473  53.806  1.00  0.00     0.000 A 
HETATM   24  C   UNL     1       7.742  20.789  55.139  1.00  0.00     0.001 A 
HETATM   25  C   UNL     1       7.652  22.123  55.537  1.00  0.00     0.008 A 
ENDBRANCH  15  20
ENDBRANCH  12  15
ENDBRANCH   1  11
BRANCH   8  26
HETATM   26  C   UNL     1       4.086  26.311  48.452  1.00  0.00     0.270 C 
HETATM   27  N   UNL     1       3.194  25.301  48.692  1.00  0.00    -0.365 N 
HETATM   28  H   UNL     1       2.563  25.389  49.479  1.00  0.00     0.159 HD
HETATM   29  H   UNL     1       3.144  24.521  48.056  1.00  0.00     0.159 HD
HETATM   30  O   UNL     1       4.844  26.272  47.489  1.00  0.00    -0.266 OA
ENDBRANCH   8  26
TORSDOF 6
ENDMDL
MODEL 2
REMARK VINA RESULT:      -8.8      4.098      7.344
REMARK  6 active torsions:
REMARK  status: ('A' for Active; 'I' for Inactive)
REMARK    1  A    between atoms: C_2  and  C_3 
REMARK    2  A    between atoms: C_3  and  C_4 
REMARK    3  A    between atoms: C_4  and  C_5 
REMARK    4  A    between atoms: C_4  and  C_21 
REMARK       I    between atoms: C_5  and  N_6 
REMARK    5  A    between atoms: N_6  and  C_7 
REMARK    6  A    between atoms: C_14  and  C_15 
REMARK       I    between atoms: C_15  and  N_16 
ROOT
HETATM    1  C   UNL     1       7.721  28.447  56.902  1.00  0.00     0.035 A 
HETATM    2  C   UNL     1       7.139  29.485  57.642  1.00  0.00     0.046 A 
HETATM    3  C   UNL     1       7.962  30.477  58.218  1.00  0.00     0.030 A 
HETATM    4  C   UNL     1       9.339  30.384  58.053  1.00  0.00     0.063 A 
HETATM    5  N   UNL     1       9.858  31.454  58.726  1.00  0.00    -0.277 N 
HETATM    6  H   UNL     1      10.836  31.698  58.828  1.00  0.00     0.189 HD
HETATM    7  N   UNL     1       8.940  32.258  59.287  1.00  0.00    -0.168 NA
HETATM    8  C   UNL     1       7.762  31.669  58.977  1.00  0.00     0.156 A 
HETATM    9  C   UNL     1       9.951  29.364  57.323  1.00  0.00     0.034 A 
HETATM   10  C   UNL     1       9.112  28.407  56.737  1.00  0.00     0.032 A 
ENDROOT
BRANCH   1  11
HETATM   11  N   UNL     1       6.970  27.435  56.264  1.00  0.00    -0.327 N 
HETATM   12  C   UNL     1       7.063  27.049  54.934  1.00  0.00     0.231 C 
HETATM   13  O   UNL     1       7.712  27.642  54.075  1.00  0.00    -0.272 OA
HETATM   14  H   UNL     1       6.222  27.030  56.810  1.00  0.00     0.169 HD
BRANCH  12  15
HETATM   15  C   UNL     1       6.181  25.825  54.592  1.00  0.00     0.115 C 
BRANCH  15  16
HETATM   16  C   UNL     1       5.363  26.096  53.292  1.00  0.00    -0.001 C 
HETATM   17  C   UNL     1       4.541  24.872  52.858  1.00  0.00     0.011 C 
BRANCH  16  18
HETATM   18  C   UNL     1       4.445  27.339  53.401  1.00  0.00     0.001 C 
HETATM   19  C   UNL     1       4.398  28.232  52.167  1.00  0.00     0.005 C 
ENDBRANCH  16  18
ENDBRANCH  15  16
BRANCH  15  20
HETATM   20  C   UNL     1       7.024  24.551  54.524  1.00  0.00    -0.045 A 
HETATM   21  C   UNL     1       7.106  23.706  55.643  1.00  0.00     0.008 A 
HETATM   22  C   UNL     1       7.852  22.526  55.592  1.00  0.00     0.001 A 
HETATM   23  C   UNL     1       8.528  22.176  54.425  1.00  0.00     0.000 A 
HETATM   24  C   UNL     1       8.457  23.005  53.308  1.00  0.00     0.001 A 
HETATM   25  C   UNL     1       7.708  24.182  53.355  1.00  0.00     0.008 A 
ENDBRANCH  15  20
ENDBRANCH  12  15
ENDBRANCH   1  11
BRANCH   8  26
HETATM   26  C   UNL     1       6.483  32.265  59.392  1.00  0.00     0.270 C 
HETATM   27  N   UNL     1       6.077  31.898  60.646  1.00  0.00    -0.365 N 
HETATM   28  H   UNL     1       6.673  31.282  61.187  1.00  0.00     0.159 HD
HETATM   29  H   UNL     1       5.229  32.285  61.027  1.00  0.00     0.159 HD
HETATM   30  O   UNL     1       5.818  33.039  58.712  1.00  0.00    -0.266 OA
ENDBRANCH   8  26
TORSDOF 6
ENDMDL
MODEL 3
REMARK VINA RESULT:      -8.6      3.520      6.337
REMARK  6 active torsions:
REMARK  status: ('A' for Active; 'I' for Inactive)
REMARK    1  A    between atoms: C_2  and  C_3 
REMARK    2  A    between atoms: C_3  and  C_4 
REMARK    3  A    between atoms: C_4  and  C_5 
REMARK    4  A    between atoms: C_4  and  C_21 
REMARK       I    between atoms: C_5  and  N_6 
REMARK    5  A    between atoms: N_6  and  C_7 
REMARK    6  A    between atoms: C_14  and  C_15 
REMARK       I    between atoms: C_15  and  N_16 
ROOT
HETATM    1  C   UNL     1       7.242  27.776  56.167  1.00  0.00     0.035 A 
HETATM    2  C   UNL     1       6.207  28.624  56.586  1.00  0.00     0.046 A 
HETATM    3  C   UNL     1       6.490  29.676  57.484  1.00  0.00     0.030 A 
HETATM    4  C   UNL     1       7.790  29.828  57.949  1.00  0.00     0.063 A 
HETATM    5  N   UNL     1       7.748  30.897  58.800  1.00  0.00    -0.277 N 
HETATM    6  H   UNL     1       8.516  31.288  59.333  1.00  0.00     0.189 HD
HETATM    7  N   UNL     1       6.541  31.478  58.906  1.00  0.00    -0.168 NA
HETATM    8  C   UNL     1       5.754  30.737  58.093  1.00  0.00     0.156 A 
HETATM    9  C   UNL     1       8.843  29.002  57.554  1.00  0.00     0.034 A 
HETATM   10  C   UNL     1       8.544  27.983  56.640  1.00  0.00     0.032 A 
ENDROOT
BRANCH   1  11
HETATM   11  N   UNL     1       7.054  26.722  55.245  1.00  0.00    -0.327 N 
HETATM   12  C   UNL     1       6.401  25.521  55.484  1.00  0.00     0.231 C 
HETATM   13  O   UNL     1       6.022  25.135  56.588  1.00  0.00    -0.272 OA
HETATM   14  H   UNL     1       7.535  26.817  54.362  1.00  0.00     0.169 HD
BRANCH  12  15
HETATM   15  C   UNL     1       6.268  24.639  54.220  1.00  0.00     0.115 C 
BRANCH  15  16
HETATM   16  C   UNL     1       6.308  25.525  52.937  1.00  0.00    -0.001 C 
HETATM   17  C   UNL     1       7.622  25.359  52.157  1.00  0.00     0.011 C 
BRANCH  16  18
HETATM   18  C   UNL     1       5.100  25.285  51.996  1.00  0.00     0.001 C 
HETATM   19  C   UNL     1       5.144  26.031  50.668  1.00  0.00     0.005 C 
ENDBRANCH  16  18
ENDBRANCH  15  16
BRANCH  15  20
HETATM   20  C   UNL     1       7.319  23.528  54.222  1.00  0.00    -0.045 A 
HETATM   21  C   UNL     1       8.314  23.508  55.213  1.00  0.00     0.008 A 
HETATM   22  C   UNL     1       9.268  22.488  55.245  1.00  0.00     0.001 A 
HETATM   23  C   UNL     1       9.243  21.477  54.288  1.00  0.00     0.000 A 
HETATM   24  C   UNL     1       8.263  21.483  53.298  1.00  0.00     0.001 A 
HETATM   25  C   UNL     1       7.306  22.499  53.267  1.00  0.00     0.008 A 
ENDBRANCH  15  20
ENDBRANCH  12  15
ENDBRANCH   1  11
BRANCH   8  26
HETATM   26  C   UNL     1       4.334  31.069  57.903  1.00  0.00     0.270 C 
HETATM   27  N   UNL     1       3.474  30.258  58.593  1.00  0.00    -0.365 N 
HETATM   28  H   UNL     1       3.862  29.529  59.180  1.00  0.00     0.159 HD
HETATM   29  H   UNL     1       2.483  30.434  58.550  1.00  0.00     0.159 HD
HETATM   30  O   UNL     1       3.917  31.991  57.210  1.00  0.00    -0.266 OA
ENDBRANCH   8  26
TORSDOF 6
ENDMDL
MODEL 4
REMARK VINA RESULT:      -8.3      1.641      2.658
REMARK  6 active torsions:
REMARK  status: ('A' for Active; 'I' for Inactive)
REMARK    1  A    between atoms: C_2  and  C_3 
REMARK    2  A    between atoms: C_3  and  C_4 
REMARK    3  A    between atoms: C_4  and  C_5 
REMARK    4  A    between atoms: C_4  and  C_21 
REMARK       I    between atoms: C_5  and  N_6 
REMARK    5  A    between atoms: N_6  and  C_7 
REMARK    6  A    between atoms: C_14  and  C_15 
REMARK       I    between atoms: C_15  and  N_16 
ROOT
HETATM    1  C   UNL     1       5.856  26.714  52.127  1.00  0.00     0.035 A 
HETATM    2  C   UNL     1       5.189  27.923  52.368  1.00  0.00     0.046 A 
HETATM    3  C   UNL     1       4.323  28.449  51.384  1.00  0.00     0.030 A 
HETATM    4  C   UNL     1       4.173  27.760  50.187  1.00  0.00     0.063 A 
HETATM    5  N   UNL     1       3.306  28.510  49.444  1.00  0.00    -0.277 N 
HETATM    6  H   UNL     1       2.976  28.316  48.505  1.00  0.00     0.189 HD
HETATM    7  N   UNL     1       2.849  29.611  50.062  1.00  0.00    -0.168 NA
HETATM    8  C   UNL     1       3.465  29.583  51.267  1.00  0.00     0.156 A 
HETATM    9  C   UNL     1       4.823  26.554  49.914  1.00  0.00     0.034 A 
HETATM   10  C   UNL     1       5.653  26.038  50.917  1.00  0.00     0.032 A 
ENDROOT
BRANCH   1  11
HETATM   11  N   UNL     1       6.711  26.101  53.069  1.00  0.00    -0.327 N 
HETATM   12  C   UNL     1       6.355  25.148  54.014  1.00  0.00     0.231 C 
HETATM   13  O   UNL     1       5.201  24.810  54.269  1.00  0.00    -0.272 OA
HETATM   14  H   UNL     1       7.648  26.474  53.123  1.00  0.00     0.169 HD
BRANCH  12  15
HETATM   15  C   UNL     1       7.562  24.597  54.809  1.00  0.00     0.115 C 
BRANCH  15  16
HETATM   16  C   UNL     1       7.418  24.949  56.321  1.00  0.00    -0.001 C 
HETATM   17  C   UNL     1       8.736  24.760  57.090  1.00  0.00     0.011 C 
BRANCH  16  18
HETATM   18  C   UNL     1       6.864  26.376  56.563  1.00  0.00     0.001 C 
HETATM   19  C   UNL     1       7.893  27.499  56.503  1.00  0.00     0.005 C 
ENDBRANCH  16  18
ENDBRANCH  15  16
BRANCH  15  20
HETATM   20  C   UNL     1       7.745  23.102  54.549  1.00  0.00    -0.045 A 
HETATM   21  C   UNL     1       8.072  22.650  53.260  1.00  0.00     0.008 A 
HETATM   22  C   UNL     1       8.266  21.291  53.008  1.00  0.00     0.001 A 
HETATM   23  C   UNL     1       8.133  20.363  54.038  1.00  0.00     0.000 A 
HETATM   24  C   UNL     1       7.808  20.795  55.322  1.00  0.00     0.001 A 
HETATM   25  C   UNL     1       7.619  22.154  55.577  1.00  0.00     0.008 A 
ENDBRANCH  15  20
ENDBRANCH  12  15
ENDBRANCH   1  11
BRANCH   8  26
HETATM   26  C   UNL     1       3.207  30.622  52.275  1.00  0.00     0.270 C 
HETATM   27  N   UNL     1       2.224  31.508  51.926  1.00  0.00    -0.365 N 
HETATM   28  H   UNL     1       1.747  31.377  51.041  1.00  0.00     0.159 HD
HETATM   29  H   UNL     1       1.957  32.233  52.571  1.00  0.00     0.159 HD
HETATM   30  O   UNL     1       3.788  30.712  53.352  1.00  0.00    -0.266 OA
ENDBRANCH   8  26
TORSDOF 6
ENDMDL
MODEL 5
REMARK VINA RESULT:      -7.9      1.648      3.770
REMARK  6 active torsions:
REMARK  status: ('A' for Active; 'I' for Inactive)
REMARK    1  A    between atoms: C_2  and  C_3 
REMARK    2  A    between atoms: C_3  and  C_4 
REMARK    3  A    between atoms: C_4  and  C_5 
REMARK    4  A    between atoms: C_4  and  C_21 
REMARK       I    between atoms: C_5  and  N_6 
REMARK    5  A    between atoms: N_6  and  C_7 
REMARK    6  A    between atoms: C_14  and  C_15 
REMARK       I    between atoms: C_15  and  N_16 
ROOT
HETATM    1  C   UNL     1       4.688  27.565  52.329  1.00  0.00     0.035 A 
HETATM    2  C   UNL     1       4.858  27.207  50.985  1.00  0.00     0.046 A 
HETATM    3  C   UNL     1       4.272  28.000  49.974  1.00  0.00     0.030 A 
HETATM    4  C   UNL     1       3.522  29.109  50.343  1.00  0.00     0.063 A 
HETATM    5  N   UNL     1       3.078  29.653  49.171  1.00  0.00    -0.277 N 
HETATM    6  H   UNL     1       2.490  30.471  49.058  1.00  0.00     0.189 HD
HETATM    7  N   UNL     1       3.502  29.018  48.066  1.00  0.00    -0.168 NA
HETATM    8  C   UNL     1       4.247  27.996  48.546  1.00  0.00     0.156 A 
HETATM    9  C   UNL     1       3.333  29.494  51.672  1.00  0.00     0.034 A 
HETATM   10  C   UNL     1       3.946  28.707  52.655  1.00  0.00     0.032 A 
ENDROOT
BRANCH   1  11
HETATM   11  N   UNL     1       5.267  26.848  53.400  1.00  0.00    -0.327 N 
HETATM   12  C   UNL     1       5.044  25.516  53.720  1.00  0.00     0.231 C 
HETATM   13  O   UNL     1       4.186  24.804  53.202  1.00  0.00    -0.272 OA
HETATM   14  H   UNL     1       5.812  27.393  54.053  1.00  0.00     0.169 HD
BRANCH  12  15
HETATM   15  C   UNL     1       5.931  25.012  54.883  1.00  0.00     0.115 C 
BRANCH  15  16
HETATM   16  C   UNL     1       7.177  24.259  54.323  1.00  0.00    -0.001 C 
HETATM   17  C   UNL     1       7.407  22.913  55.029  1.00  0.00     0.011 C 
BRANCH  16  18
HETATM   18  C   UNL     1       7.122  24.050  52.789  1.00  0.00     0.001 C 
HETATM   19  C   UNL     1       8.050  24.938  51.970  1.00  0.00     0.005 C 
ENDBRANCH  16  18
ENDBRANCH  15  16
BRANCH  15  20
HETATM   20  C   UNL     1       6.290  26.160  55.827  1.00  0.00    -0.045 A 
HETATM   21  C   UNL     1       7.638  26.455  56.088  1.00  0.00     0.008 A 
HETATM   22  C   UNL     1       7.986  27.514  56.929  1.00  0.00     0.001 A 
HETATM   23  C   UNL     1       6.994  28.291  57.523  1.00  0.00     0.000 A 
HETATM   24  C   UNL     1       5.652  28.009  57.274  1.00  0.00     0.001 A 
HETATM   25  C   UNL     1       5.303  26.954  56.430  1.00  0.00     0.008 A 
ENDBRANCH  15  20
ENDBRANCH  12  15
ENDBRANCH   1  11
BRANCH   8  26
HETATM   26  C   UNL     1       4.926  27.060  47.639  1.00  0.00     0.270 C 
HETATM   27  N   UNL     1       6.137  27.504  47.181  1.00  0.00    -0.365 N 
HETATM   28  H   UNL     1       6.476  28.403  47.505  1.00  0.00     0.159 HD
HETATM   29  H   UNL     1       6.688  26.913  46.581  1.00  0.00     0.159 HD
HETATM   30  O   UNL     1       4.488  25.963  47.309  1.00  0.00    -0.266 OA
ENDBRANCH   8  26
TORSDOF 6
ENDMDL
MODEL 6
REMARK VINA RESULT:      -7.9      4.280      8.172
REMARK  6 active torsions:
REMARK  status: ('A' for Active; 'I' for Inactive)
REMARK    1  A    between atoms: C_2  and  C_3 
REMARK    2  A    between atoms: C_3  and  C_4 
REMARK    3  A    between atoms: C_4  and  C_5 
REMARK    4  A    between atoms: C_4  and  C_21 
REMARK       I    between atoms: C_5  and  N_6 
REMARK    5  A    between atoms: N_6  and  C_7 
REMARK    6  A    between atoms: C_14  and  C_15 
REMARK       I    between atoms: C_15  and  N_16 
ROOT
HETATM    1  C   UNL     1       8.765  29.347  56.268  1.00  0.00     0.035 A 
HETATM    2  C   UNL     1       7.950  30.077  57.145  1.00  0.00     0.046 A 
HETATM    3  C   UNL     1       8.545  30.918  58.110  1.00  0.00     0.030 A 
HETATM    4  C   UNL     1       9.931  30.983  58.180  1.00  0.00     0.063 A 
HETATM    5  N   UNL     1      10.202  31.848  59.202  1.00  0.00    -0.277 N 
HETATM    6  H   UNL     1      11.115  32.126  59.545  1.00  0.00     0.189 HD
HETATM    7  N   UNL     1       9.116  32.381  59.785  1.00  0.00    -0.168 NA
HETATM    8  C   UNL     1       8.082  31.819  59.116  1.00  0.00     0.156 A 
HETATM    9  C   UNL     1      10.771  30.270  57.324  1.00  0.00     0.034 A 
HETATM   10  C   UNL     1      10.159  29.464  56.356  1.00  0.00     0.032 A 
ENDROOT
BRANCH   1  11
HETATM   11  N   UNL     1       8.254  28.509  55.253  1.00  0.00    -0.327 N 
HETATM   12  C   UNL     1       7.621  27.286  55.429  1.00  0.00     0.231 C 
HETATM   13  O   UNL     1       7.551  26.680  56.496  1.00  0.00    -0.272 OA
HETATM   14  H   UNL     1       8.467  28.784  54.304  1.00  0.00     0.169 HD
BRANCH  12  15
HETATM   15  C   UNL     1       7.076  26.687  54.111  1.00  0.00     0.115 C 
BRANCH  15  16
HETATM   16  C   UNL     1       6.742  25.175  54.303  1.00  0.00    -0.001 C 
HETATM   17  C   UNL     1       5.596  24.713  53.390  1.00  0.00     0.011 C 
BRANCH  16  18
HETATM   18  C   UNL     1       7.974  24.253  54.116  1.00  0.00     0.001 C 
HETATM   19  C   UNL     1       8.251  23.287  55.261  1.00  0.00     0.005 C 
ENDBRANCH  16  18
ENDBRANCH  15  16
BRANCH  15  20
HETATM   20  C   UNL     1       5.895  27.507  53.591  1.00  0.00    -0.045 A 
HETATM   21  C   UNL     1       4.841  27.842  54.457  1.00  0.00     0.008 A 
HETATM   22  C   UNL     1       3.765  28.610  54.007  1.00  0.00     0.001 A 
HETATM   23  C   UNL     1       3.725  29.052  52.687  1.00  0.00     0.000 A 
HETATM   24  C   UNL     1       4.762  28.727  51.816  1.00  0.00     0.001 A 
HETATM   25  C   UNL     1       5.841  27.963  52.265  1.00  0.00     0.008 A 
ENDBRANCH  15  20
ENDBRANCH  12  15
ENDBRANCH   1  11
BRANCH   8  26
HETATM   26  C   UNL     1       6.690  32.169  59.438  1.00  0.00     0.270 C 
HETATM   27  N   UNL     1       6.270  31.719  60.660  1.00  0.00    -0.365 N 
HETATM   28  H   UNL     1       6.928  31.216  61.243  1.00  0.00     0.159 HD
HETATM   29  H   UNL     1       5.341  31.941  60.978  1.00  0.00     0.159 HD
HETATM   30  O   UNL     1       5.945  32.817  58.710  1.00  0.00    -0.266 OA
ENDBRANCH   8  26
TORSDOF 6
ENDMDL
MODEL 7
REMARK VINA RESULT:      -7.9      4.129      6.785
REMARK  6 active torsions:
REMARK  status: ('A' for Active; 'I' for Inactive)
REMARK    1  A    between atoms: C_2  and  C_3 
REMARK    2  A    between atoms: C_3  and  C_4 
REMARK    3  A    between atoms: C_4  and  C_5 
REMARK    4  A    between atoms: C_4  and  C_21 
REMARK       I    between atoms: C_5  and  N_6 
REMARK    5  A    between atoms: N_6  and  C_7 
REMARK    6  A    between atoms: C_14  and  C_15 
REMARK       I    between atoms: C_15  and  N_16 
ROOT
HETATM    1  C   UNL     1       6.670  28.620  56.913  1.00  0.00     0.035 A 
HETATM    2  C   UNL     1       5.818  29.732  56.973  1.00  0.00     0.046 A 
HETATM    3  C   UNL     1       6.127  30.798  57.846  1.00  0.00     0.030 A 
HETATM    4  C   UNL     1       7.262  30.706  58.642  1.00  0.00     0.063 A 
HETATM    5  N   UNL     1       7.283  31.857  59.378  1.00  0.00    -0.277 N 
HETATM    6  H   UNL     1       7.966  32.126  60.076  1.00  0.00     0.189 HD
HETATM    7  N   UNL     1       6.281  32.710  59.108  1.00  0.00    -0.168 NA
HETATM    8  C   UNL     1       5.560  32.071  58.158  1.00  0.00     0.156 A 
HETATM    9  C   UNL     1       8.130  29.614  58.607  1.00  0.00     0.034 A 
HETATM   10  C   UNL     1       7.819  28.581  57.713  1.00  0.00     0.032 A 
ENDROOT
BRANCH   1  11
HETATM   11  N   UNL     1       6.455  27.527  56.044  1.00  0.00    -0.327 N 
HETATM   12  C   UNL     1       7.106  27.285  54.842  1.00  0.00     0.231 C 
HETATM   13  O   UNL     1       7.862  28.075  54.282  1.00  0.00    -0.272 OA
HETATM   14  H   UNL     1       5.678  26.925  56.276  1.00  0.00     0.169 HD
BRANCH  12  15
HETATM   15  C   UNL     1       6.716  25.932  54.201  1.00  0.00     0.115 C 
BRANCH  15  16
HETATM   16  C   UNL     1       7.066  25.936  52.681  1.00  0.00    -0.001 C 
HETATM   17  C   UNL     1       8.070  24.830  52.314  1.00  0.00     0.011 C 
BRANCH  16  18
HETATM   18  C   UNL     1       5.817  25.840  51.769  1.00  0.00     0.001 C 
HETATM   19  C   UNL     1       4.776  24.808  52.187  1.00  0.00     0.005 C 
ENDBRANCH  16  18
ENDBRANCH  15  16
BRANCH  15  20
HETATM   20  C   UNL     1       7.346  24.768  54.965  1.00  0.00    -0.045 A 
HETATM   21  C   UNL     1       6.967  23.448  54.666  1.00  0.00     0.008 A 
HETATM   22  C   UNL     1       7.549  22.370  55.337  1.00  0.00     0.001 A 
HETATM   23  C   UNL     1       8.513  22.595  56.317  1.00  0.00     0.000 A 
HETATM   24  C   UNL     1       8.897  23.897  56.626  1.00  0.00     0.001 A 
HETATM   25  C   UNL     1       8.321  24.976  55.953  1.00  0.00     0.008 A 
ENDBRANCH  15  20
ENDBRANCH  12  15
ENDBRANCH   1  11
BRANCH   8  26
HETATM   26  C   UNL     1       4.369  32.694  57.562  1.00  0.00     0.270 C 
HETATM   27  N   UNL     1       4.563  33.983  57.143  1.00  0.00    -0.365 N 
HETATM   28  H   UNL     1       5.484  34.393  57.249  1.00  0.00     0.159 HD
HETATM   29  H   UNL     1       3.811  34.477  56.691  1.00  0.00     0.159 HD
HETATM   30  O   UNL     1       3.285  32.138  57.420  1.00  0.00    -0.266 OA
ENDBRANCH   8  26
TORSDOF 6
ENDMDL
MODEL 8
REMARK VINA RESULT:      -7.8      2.670      8.031
REMARK  6 active torsions:
REMARK  status: ('A' for Active; 'I' for Inactive)
REMARK    1  A    between atoms: C_2  and  C_3 
REMARK    2  A    between atoms: C_3  and  C_4 
REMARK    3  A    between atoms: C_4  and  C_5 
REMARK    4  A    between atoms: C_4  and  C_21 
REMARK       I    between atoms: C_5  and  N_6 
REMARK    5  A    between atoms: N_6  and  C_7 
REMARK    6  A    between atoms: C_14  and  C_15 
REMARK       I    between atoms: C_15  and  N_16 
ROOT
HETATM    1  C   UNL     1       7.231  25.007  52.665  1.00  0.00     0.035 A 
HETATM    2  C   UNL     1       7.576  23.650  52.726  1.00  0.00     0.046 A 
HETATM    3  C   UNL     1       8.031  23.100  53.944  1.00  0.00     0.030 A 
HETATM    4  C   UNL     1       8.146  23.931  55.052  1.00  0.00     0.063 A 
HETATM    5  N   UNL     1       8.619  23.133  56.055  1.00  0.00    -0.277 N 
HETATM    6  H   UNL     1       8.835  23.407  57.007  1.00  0.00     0.189 HD
HETATM    7  N   UNL     1       8.790  21.846  55.711  1.00  0.00    -0.168 NA
HETATM    8  C   UNL     1       8.425  21.809  54.409  1.00  0.00     0.156 A 
HETATM    9  C   UNL     1       7.813  25.286  55.026  1.00  0.00     0.034 A 
HETATM   10  C   UNL     1       7.337  25.802  53.814  1.00  0.00     0.032 A 
ENDROOT
BRANCH   1  11
HETATM   11  N   UNL     1       6.736  25.629  51.498  1.00  0.00    -0.327 N 
HETATM   12  C   UNL     1       5.407  25.911  51.210  1.00  0.00     0.231 C 
HETATM   13  O   UNL     1       4.448  25.519  51.871  1.00  0.00    -0.272 OA
HETATM   14  H   UNL     1       7.409  25.784  50.761  1.00  0.00     0.169 HD
BRANCH  12  15
HETATM   15  C   UNL     1       5.224  26.707  49.897  1.00  0.00     0.115 C 
BRANCH  15  16
HETATM   16  C   UNL     1       3.900  26.284  49.190  1.00  0.00    -0.001 C 
HETATM   17  C   UNL     1       2.845  27.402  49.215  1.00  0.00     0.011 C 
BRANCH  16  18
HETATM   18  C   UNL     1       4.119  25.795  47.736  1.00  0.00     0.001 C 
HETATM   19  C   UNL     1       2.851  25.504  46.943  1.00  0.00     0.005 C 
ENDBRANCH  16  18
ENDBRANCH  15  16
BRANCH  15  20
HETATM   20  C   UNL     1       5.318  28.211  50.158  1.00  0.00    -0.045 A 
HETATM   21  C   UNL     1       5.725  29.075  49.128  1.00  0.00     0.008 A 
HETATM   22  C   UNL     1       5.794  30.454  49.339  1.00  0.00     0.001 A 
HETATM   23  C   UNL     1       5.461  30.988  50.582  1.00  0.00     0.000 A 
HETATM   24  C   UNL     1       5.056  30.144  51.613  1.00  0.00     0.001 A 
HETATM   25  C   UNL     1       4.982  28.767  51.402  1.00  0.00     0.008 A 
ENDBRANCH  15  20
ENDBRANCH  12  15
ENDBRANCH   1  11
BRANCH   8  26
HETATM   26  C   UNL     1       8.442  20.549  53.651  1.00  0.00     0.270 C 
HETATM   27  N   UNL     1       7.611  20.539  52.564  1.00  0.00    -0.365 N 
HETATM   28  H   UNL     1       7.080  21.376  52.353  1.00  0.00     0.159 HD
HETATM   29  H   UNL     1       7.583  19.729  51.966  1.00  0.00     0.159 HD
HETATM   30  O   UNL     1       9.136  19.576  53.927  1.00  0.00    -0.266 OA
ENDBRANCH   8  26
TORSDOF 6
ENDMDL
MODEL 9
REMARK VINA RESULT:      -7.7      8.347     11.840
REMARK  6 active torsions:
REMARK  status: ('A' for Active; 'I' for Inactive)
REMARK    1  A    between atoms: C_2  and  C_3 
REMARK    2  A    between atoms: C_3  and  C_4 
REMARK    3  A    between atoms: C_4  and  C_5 
REMARK    4  A    between atoms: C_4  and  C_21 
REMARK       I    between atoms: C_5  and  N_6 
REMARK    5  A    between atoms: N_6  and  C_7 
REMARK    6  A    between atoms: C_14  and  C_15 
REMARK       I    between atoms: C_15  and  N_16 
ROOT
HETATM    1  C   UNL     1       6.842  31.982  62.034  1.00  0.00     0.035 A 
HETATM    2  C   UNL     1       5.694  32.715  62.362  1.00  0.00     0.046 A 
HETATM    3  C   UNL     1       5.721  33.596  63.465  1.00  0.00     0.030 A 
HETATM    4  C   UNL     1       6.887  33.696  64.214  1.00  0.00     0.063 A 
HETATM    5  N   UNL     1       6.605  34.594  65.205  1.00  0.00    -0.277 N 
HETATM    6  H   UNL     1       7.223  34.903  65.947  1.00  0.00     0.189 HD
HETATM    7  N   UNL     1       5.368  35.116  65.149  1.00  0.00    -0.168 NA
HETATM    8  C   UNL     1       4.811  34.513  64.074  1.00  0.00     0.156 A 
HETATM    9  C   UNL     1       8.047  32.980  63.916  1.00  0.00     0.034 A 
HETATM   10  C   UNL     1       8.005  32.135  62.801  1.00  0.00     0.032 A 
ENDROOT
BRANCH   1  11
HETATM   11  N   UNL     1       6.912  31.106  60.929  1.00  0.00    -0.327 N 
HETATM   12  C   UNL     1       7.148  31.458  59.607  1.00  0.00     0.231 C 
HETATM   13  O   UNL     1       7.178  32.612  59.183  1.00  0.00    -0.272 OA
HETATM   14  H   UNL     1       6.661  30.144  61.111  1.00  0.00     0.169 HD
BRANCH  12  15
HETATM   15  C   UNL     1       7.281  30.238  58.666  1.00  0.00     0.115 C 
BRANCH  15  16
HETATM   16  C   UNL     1       6.181  30.287  57.561  1.00  0.00    -0.001 C 
HETATM   17  C   UNL     1       5.712  28.883  57.145  1.00  0.00     0.011 C 
BRANCH  16  18
HETATM   18  C   UNL     1       4.962  31.157  57.956  1.00  0.00     0.001 C 
HETATM   19  C   UNL     1       3.621  30.704  57.392  1.00  0.00     0.005 C 
ENDBRANCH  16  18
ENDBRANCH  15  16
BRANCH  15  20
HETATM   20  C   UNL     1       8.700  30.138  58.105  1.00  0.00    -0.045 A 
HETATM   21  C   UNL     1       9.664  31.093  58.468  1.00  0.00     0.008 A 
HETATM   22  C   UNL     1      10.971  31.005  57.985  1.00  0.00     0.001 A 
HETATM   23  C   UNL     1      11.333  29.965  57.132  1.00  0.00     0.000 A 
HETATM   24  C   UNL     1      10.388  29.011  56.763  1.00  0.00     0.001 A 
HETATM   25  C   UNL     1       9.082  29.094  57.248  1.00  0.00     0.008 A 
ENDBRANCH  15  20
ENDBRANCH  12  15
ENDBRANCH   1  11
BRANCH   8  26
HETATM   26  C   UNL     1       3.442  34.837  63.647  1.00  0.00     0.270 C 
HETATM   27  N   UNL     1       2.467  34.324  64.459  1.00  0.00    -0.365 N 
HETATM   28  H   UNL     1       2.747  33.796  65.277  1.00  0.00     0.159 HD
HETATM   29  H   UNL     1       1.500  34.524  64.262  1.00  0.00     0.159 HD
HETATM   30  O   UNL     1       3.157  35.517  62.666  1.00  0.00    -0.266 OA
ENDBRANCH   8  26
TORSDOF 6
ENDMDL
MODEL 10
REMARK VINA RESULT:      -7.6      9.909     13.574
REMARK  6 active torsions:
REMARK  status: ('A' for Active; 'I' for Inactive)
REMARK    1  A    between atoms: C_2  and  C_3 
REMARK    2  A    between atoms: C_3  and  C_4 
REMARK    3  A    between atoms: C_4  and  C_5 
REMARK    4  A    between atoms: C_4  and  C_21 
REMARK       I    between atoms: C_5  and  N_6 
REMARK    5  A    between atoms: N_6  and  C_7 
REMARK    6  A    between atoms: C_14  and  C_15 
REMARK       I    between atoms: C_15  and  N_16 
ROOT
HETATM    1  C   UNL     1       6.413  33.354  61.875  1.00  0.00     0.035 A 
HETATM    2  C   UNL     1       5.953  32.829  60.659  1.00  0.00     0.046 A 
HETATM    3  C   UNL     1       6.729  31.866  59.978  1.00  0.00     0.030 A 
HETATM    4  C   UNL     1       7.947  31.479  60.525  1.00  0.00     0.063 A 
HETATM    5  N   UNL     1       8.464  30.568  59.647  1.00  0.00    -0.277 N 
HETATM    6  H   UNL     1       9.351  30.083  59.719  1.00  0.00     0.189 HD
HETATM    7  N   UNL     1       7.678  30.301  58.592  1.00  0.00    -0.168 NA
HETATM    8  C   UNL     1       6.597  31.092  58.786  1.00  0.00     0.156 A 
HETATM    9  C   UNL     1       8.434  31.981  61.732  1.00  0.00     0.034 A 
HETATM   10  C   UNL     1       7.634  32.914  62.403  1.00  0.00     0.032 A 
ENDROOT
BRANCH   1  11
HETATM   11  N   UNL     1       5.685  34.294  62.637  1.00  0.00    -0.327 N 
HETATM   12  C   UNL     1       4.503  34.062  63.328  1.00  0.00     0.231 C 
HETATM   13  O   UNL     1       3.835  33.033  63.250  1.00  0.00    -0.272 OA
HETATM   14  H   UNL     1       6.005  35.250  62.581  1.00  0.00     0.169 HD
BRANCH  12  15
HETATM   15  C   UNL     1       4.035  35.279  64.159  1.00  0.00     0.115 C 
BRANCH  15  16
HETATM   16  C   UNL     1       4.697  35.255  65.572  1.00  0.00    -0.001 C 
HETATM   17  C   UNL     1       3.712  35.660  66.681  1.00  0.00     0.011 C 
BRANCH  16  18
HETATM   18  C   UNL     1       5.347  33.890  65.913  1.00  0.00     0.001 C 
HETATM   19  C   UNL     1       6.870  33.884  65.969  1.00  0.00     0.005 C 
ENDBRANCH  16  18
ENDBRANCH  15  16
BRANCH  15  20
HETATM   20  C   UNL     1       4.281  36.582  63.398  1.00  0.00    -0.045 A 
HETATM   21  C   UNL     1       5.405  37.368  63.701  1.00  0.00     0.008 A 
HETATM   22  C   UNL     1       5.660  38.549  63.000  1.00  0.00     0.001 A 
HETATM   23  C   UNL     1       4.794  38.963  61.990  1.00  0.00     0.000 A 
HETATM   24  C   UNL     1       3.674  38.195  61.679  1.00  0.00     0.001 A 
HETATM   25  C   UNL     1       3.421  37.012  62.375  1.00  0.00     0.008 A 
ENDBRANCH  15  20
ENDBRANCH  12  15
ENDBRANCH   1  11
BRANCH   8  26
HETATM   26  C   UNL     1       5.466  31.075  57.846  1.00  0.00     0.270 C 
HETATM   27  N   UNL     1       4.449  30.236  58.212  1.00  0.00    -0.365 N 
HETATM   28  H   UNL     1       4.533  29.722  59.081  1.00  0.00     0.159 HD
HETATM   29  H   UNL     1       3.618  30.187  57.645  1.00  0.00     0.159 HD
HETATM   30  O   UNL     1       5.395  31.750  56.825  1.00  0.00    -0.266 OA
ENDBRANCH   8  26
TORSDOF 6
ENDMDL
