MODEL 1
REMARK VINA RESULT:     -10.3      0.000      0.000
REMARK  10 active torsions:
REMARK  status: ('A' for Active; 'I' for Inactive)
REMARK    1  A    between atoms: C_4  and  C_5 
REMARK    2  A    between atoms: C_6  and  O_7 
REMARK    3  A    between atoms: C_14  and  C_15 
REMARK    4  A    between atoms: C_18  and  C_19 
REMARK    5  A    between atoms: C_19  and  N_20 
REMARK    6  A    between atoms: N_20  and  C_21 
REMARK    7  A    between atoms: C_21  and  N_22 
REMARK    8  A    between atoms: N_22  and  C_23 
REMARK    9  A    between atoms: C_25  and  C_26 
REMARK   10  A    between atoms: C_26  and  O_27 
ROOT
HETATM    1  C   UNL     1       4.938  27.339  54.967  1.00  0.00     0.067 C 
HETATM    2  C   UNL     1       5.612  28.640  54.446  1.00  0.00     0.001 C 
HETATM    3  C   UNL     1       6.938  28.906  55.195  1.00  0.00     0.040 C 
HETATM    4  C   UNL     1       6.670  29.175  56.684  1.00  0.00     0.206 C 
HETATM    5  N   UNL     1       5.204  28.830  56.961  1.00  0.00    -0.065 N 
HETATM    6  H   UNL     1       5.042  28.881  57.977  1.00  0.00     0.280 HD
HETATM    7  C   UNL     1       4.828  27.428  56.506  1.00  0.00     0.246 C 
HETATM    8  C   UNL     1       4.658  29.815  54.765  1.00  0.00     0.033 C 
HETATM    9  C   UNL     1       4.317  29.843  56.259  1.00  0.00     0.236 C 
ENDROOT
BRANCH   4  10
HETATM   10  C   UNL     1       7.638  28.502  57.678  1.00  0.00     0.155 C 
BRANCH  10  11
HETATM   11  N   UNL     1       7.747  29.154  58.979  1.00  0.00    -0.365 N 
HETATM   12  H   UNL     1       7.967  28.558  59.771  1.00  0.00     0.161 HD
BRANCH  11  13
HETATM   13  C   UNL     1       8.114  30.457  59.175  1.00  0.00     0.172 C 
HETATM   14  S   UNL     1       9.512  31.124  58.555  1.00  0.00    -0.041 SA
BRANCH  13  15
HETATM   15  N   UNL     1       7.208  31.260  59.813  1.00  0.00    -0.333 N 
HETATM   16  H   UNL     1       6.486  31.636  59.202  1.00  0.00     0.168 HD
BRANCH  15  17
HETATM   17  C   UNL     1       7.200  31.752  61.139  1.00  0.00     0.035 A 
HETATM   18  C   UNL     1       6.027  31.988  61.859  1.00  0.00     0.047 A 
HETATM   19  C   UNL     1       6.063  32.524  63.153  1.00  0.00     0.041 A 
HETATM   20  C   UNL     1       7.294  32.765  63.766  1.00  0.00     0.018 A 
HETATM   21  C   UNL     1       8.473  32.470  63.078  1.00  0.00     0.003 A 
HETATM   22  C   UNL     1       8.426  31.966  61.772  1.00  0.00     0.029 A 
BRANCH  19  23
HETATM   23  C   UNL     1       4.758  32.844  63.782  1.00  0.00     0.293 C 
HETATM   24  O   UNL     1       4.653  33.123  64.969  1.00  0.00    -0.259 OA
BRANCH  23  25
HETATM   25  O   UNL     1       3.753  32.780  62.878  1.00  0.00    -0.323 OA
HETATM   26  C   UNL     1       2.869  33.901  62.910  1.00  0.00     0.213 C 
ENDBRANCH  23  25
ENDBRANCH  19  23
ENDBRANCH  15  17
ENDBRANCH  13  15
ENDBRANCH  11  13
ENDBRANCH  10  11
ENDBRANCH   4  10
BRANCH   1  27
HETATM   27  C   UNL     1       5.588  26.065  54.501  1.00  0.00     0.038 C 
HETATM   28  N   UNL     1       5.833  25.770  53.176  1.00  0.00    -0.277 N 
HETATM   29  C   UNL     1       5.608  26.591  52.007  1.00  0.00     0.179 C 
HETATM   30  N   UNL     1       6.360  24.556  52.986  1.00  0.00    -0.172 NA
HETATM   31  C   UNL     1       6.673  24.124  54.212  1.00  0.00     0.092 C 
HETATM   32  C   UNL     1       6.164  25.011  55.193  1.00  0.00     0.061 C 
BRANCH  31  33
HETATM   33  C   UNL     1       7.422  22.895  54.423  1.00  0.00     0.028 A 
HETATM   34  C   UNL     1       7.954  22.574  55.684  1.00  0.00     0.080 A 
HETATM   35  C   UNL     1       8.663  21.379  55.852  1.00  0.00     0.037 A 
HETATM   36  C   UNL     1       8.865  20.522  54.768  1.00  0.00     0.003 A 
HETATM   37  C   UNL     1       8.349  20.845  53.514  1.00  0.00     0.001 A 
HETATM   38  C   UNL     1       7.627  22.027  53.342  1.00  0.00     0.017 A 
BRANCH  34  39
HETATM   39  O   UNL     1       7.687  23.418  56.735  1.00  0.00    -0.355 OA
HETATM   40  C   UNL     1       8.837  24.072  57.265  1.00  0.00     0.210 C 
ENDBRANCH  34  39
ENDBRANCH  31  33
ENDBRANCH   1  27
TORSDOF 10
ENDMDL
MODEL 2
REMARK VINA RESULT:     -10.0      1.538      1.901
REMARK  10 active torsions:
REMARK  status: ('A' for Active; 'I' for Inactive)
REMARK    1  A    between atoms: C_4  and  C_5 
REMARK    2  A    between atoms: C_6  and  O_7 
REMARK    3  A    between atoms: C_14  and  C_15 
REMARK    4  A    between atoms: C_18  and  C_19 
REMARK    5  A    between atoms: C_19  and  N_20 
REMARK    6  A    between atoms: N_20  and  C_21 
REMARK    7  A    between atoms: C_21  and  N_22 
REMARK    8  A    between atoms: N_22  and  C_23 
REMARK    9  A    between atoms: C_25  and  C_26 
REMARK   10  A    between atoms: C_26  and  O_27 
ROOT
HETATM    1  C   UNL     1       5.340  26.981  55.687  1.00  0.00     0.067 C 
HETATM    2  C   UNL     1       5.654  28.187  54.757  1.00  0.00     0.001 C 
HETATM    3  C   UNL     1       6.917  28.936  55.242  1.00  0.00     0.040 C 
HETATM    4  C   UNL     1       6.674  29.563  56.623  1.00  0.00     0.206 C 
HETATM    5  N   UNL     1       5.350  29.007  57.157  1.00  0.00    -0.065 N 
HETATM    6  H   UNL     1       5.236  29.316  58.133  1.00  0.00     0.280 HD
HETATM    7  C   UNL     1       5.296  27.488  57.147  1.00  0.00     0.246 C 
HETATM    8  C   UNL     1       4.466  29.172  54.859  1.00  0.00     0.033 C 
HETATM    9  C   UNL     1       4.209  29.559  56.320  1.00  0.00     0.236 C 
ENDROOT
BRANCH   4  10
HETATM   10  C   UNL     1       7.827  29.430  57.638  1.00  0.00     0.155 C 
BRANCH  10  11
HETATM   11  N   UNL     1       7.508  29.846  59.000  1.00  0.00    -0.365 N 
HETATM   12  H   UNL     1       6.905  29.229  59.536  1.00  0.00     0.161 HD
BRANCH  11  13
HETATM   13  C   UNL     1       8.307  30.626  59.790  1.00  0.00     0.172 C 
HETATM   14  S   UNL     1       9.505  31.621  59.191  1.00  0.00    -0.041 SA
BRANCH  13  15
HETATM   15  N   UNL     1       8.003  30.662  61.124  1.00  0.00    -0.333 N 
HETATM   16  H   UNL     1       8.038  29.754  61.581  1.00  0.00     0.168 HD
BRANCH  15  17
HETATM   17  C   UNL     1       7.520  31.726  61.920  1.00  0.00     0.035 A 
HETATM   18  C   UNL     1       6.411  32.499  61.569  1.00  0.00     0.047 A 
HETATM   19  C   UNL     1       5.995  33.577  62.362  1.00  0.00     0.041 A 
HETATM   20  C   UNL     1       6.655  33.846  63.562  1.00  0.00     0.018 A 
HETATM   21  C   UNL     1       7.725  33.037  63.954  1.00  0.00     0.003 A 
HETATM   22  C   UNL     1       8.153  31.983  63.138  1.00  0.00     0.029 A 
BRANCH  19  23
HETATM   23  C   UNL     1       4.880  34.404  61.838  1.00  0.00     0.293 C 
HETATM   24  O   UNL     1       4.975  35.615  61.690  1.00  0.00    -0.259 OA
BRANCH  23  25
HETATM   25  O   UNL     1       3.796  33.642  61.566  1.00  0.00    -0.323 OA
HETATM   26  C   UNL     1       2.896  34.224  60.621  1.00  0.00     0.213 C 
ENDBRANCH  23  25
ENDBRANCH  19  23
ENDBRANCH  15  17
ENDBRANCH  13  15
ENDBRANCH  11  13
ENDBRANCH  10  11
ENDBRANCH   4  10
BRANCH   1  27
HETATM   27  C   UNL     1       6.249  25.796  55.508  1.00  0.00     0.038 C 
HETATM   28  N   UNL     1       7.257  25.463  56.390  1.00  0.00    -0.277 N 
HETATM   29  C   UNL     1       7.605  26.090  57.646  1.00  0.00     0.179 C 
HETATM   30  N   UNL     1       7.981  24.409  56.002  1.00  0.00    -0.172 NA
HETATM   31  C   UNL     1       7.313  23.899  54.963  1.00  0.00     0.092 C 
HETATM   32  C   UNL     1       6.252  24.760  54.587  1.00  0.00     0.061 C 
BRANCH  31  33
HETATM   33  C   UNL     1       7.697  22.636  54.351  1.00  0.00     0.028 A 
HETATM   34  C   UNL     1       7.869  21.475  55.126  1.00  0.00     0.080 A 
HETATM   35  C   UNL     1       8.233  20.276  54.502  1.00  0.00     0.037 A 
HETATM   36  C   UNL     1       8.450  20.237  53.123  1.00  0.00     0.003 A 
HETATM   37  C   UNL     1       8.292  21.390  52.356  1.00  0.00     0.001 A 
HETATM   38  C   UNL     1       7.913  22.586  52.967  1.00  0.00     0.017 A 
BRANCH  34  39
HETATM   39  O   UNL     1       7.594  21.545  56.470  1.00  0.00    -0.355 OA
HETATM   40  C   UNL     1       8.582  20.938  57.300  1.00  0.00     0.210 C 
ENDBRANCH  34  39
ENDBRANCH  31  33
ENDBRANCH   1  27
TORSDOF 10
ENDMDL
MODEL 3
REMARK VINA RESULT:      -9.6      4.483     10.251
REMARK  10 active torsions:
REMARK  status: ('A' for Active; 'I' for Inactive)
REMARK    1  A    between atoms: C_4  and  C_5 
REMARK    2  A    between atoms: C_6  and  O_7 
REMARK    3  A    between atoms: C_14  and  C_15 
REMARK    4  A    between atoms: C_18  and  C_19 
REMARK    5  A    between atoms: C_19  and  N_20 
REMARK    6  A    between atoms: N_20  and  C_21 
REMARK    7  A    between atoms: C_21  and  N_22 
REMARK    8  A    between atoms: N_22  and  C_23 
REMARK    9  A    between atoms: C_25  and  C_26 
REMARK   10  A    between atoms: C_26  and  O_27 
ROOT
HETATM    1  C   UNL     1       6.673  25.634  54.336  1.00  0.00     0.067 C 
HETATM    2  C   UNL     1       6.990  26.112  52.890  1.00  0.00     0.001 C 
HETATM    3  C   UNL     1       6.227  27.417  52.566  1.00  0.00     0.040 C 
HETATM    4  C   UNL     1       4.711  27.168  52.570  1.00  0.00     0.206 C 
HETATM    5  N   UNL     1       4.472  25.771  53.151  1.00  0.00    -0.065 N 
HETATM    6  H   UNL     1       3.458  25.640  53.280  1.00  0.00     0.280 HD
HETATM    7  C   UNL     1       5.137  25.568  54.503  1.00  0.00     0.246 C 
HETATM    8  C   UNL     1       6.476  25.023  51.920  1.00  0.00     0.033 C 
HETATM    9  C   UNL     1       4.991  24.733  52.171  1.00  0.00     0.236 C 
ENDROOT
BRANCH   4  10
HETATM   10  C   UNL     1       3.850  28.251  53.252  1.00  0.00     0.155 C 
BRANCH  10  11
HETATM   11  N   UNL     1       4.059  29.610  52.764  1.00  0.00    -0.365 N 
HETATM   12  H   UNL     1       5.010  29.864  52.516  1.00  0.00     0.161 HD
BRANCH  11  13
HETATM   13  C   UNL     1       3.120  30.364  52.115  1.00  0.00     0.172 C 
HETATM   14  S   UNL     1       3.193  32.026  51.996  1.00  0.00    -0.041 SA
BRANCH  13  15
HETATM   15  N   UNL     1       2.149  29.680  51.434  1.00  0.00    -0.333 N 
HETATM   16  H   UNL     1       1.445  29.256  52.033  1.00  0.00     0.168 HD
BRANCH  15  17
HETATM   17  C   UNL     1       2.053  29.359  50.060  1.00  0.00     0.035 A 
HETATM   18  C   UNL     1       2.765  28.313  49.469  1.00  0.00     0.047 A 
HETATM   19  C   UNL     1       2.679  28.060  48.093  1.00  0.00     0.041 A 
HETATM   20  C   UNL     1       1.815  28.822  47.304  1.00  0.00     0.018 A 
HETATM   21  C   UNL     1       1.049  29.828  47.899  1.00  0.00     0.003 A 
HETATM   22  C   UNL     1       1.168  30.094  49.269  1.00  0.00     0.029 A 
BRANCH  19  23
HETATM   23  C   UNL     1       3.566  27.002  47.549  1.00  0.00     0.293 C 
HETATM   24  O   UNL     1       3.158  26.129  46.794  1.00  0.00    -0.259 OA
BRANCH  23  25
HETATM   25  O   UNL     1       4.832  27.149  48.001  1.00  0.00    -0.323 OA
HETATM   26  C   UNL     1       5.638  28.017  47.202  1.00  0.00     0.213 C 
ENDBRANCH  23  25
ENDBRANCH  19  23
ENDBRANCH  15  17
ENDBRANCH  13  15
ENDBRANCH  11  13
ENDBRANCH  10  11
ENDBRANCH   4  10
BRANCH   1  27
HETATM   27  C   UNL     1       7.344  26.430  55.422  1.00  0.00     0.038 C 
HETATM   28  N   UNL     1       7.833  25.875  56.587  1.00  0.00    -0.277 N 
HETATM   29  C   UNL     1       7.880  24.483  56.979  1.00  0.00     0.179 C 
HETATM   30  N   UNL     1       8.332  26.775  57.440  1.00  0.00    -0.172 NA
HETATM   31  C   UNL     1       8.377  27.916  56.745  1.00  0.00     0.092 C 
HETATM   32  C   UNL     1       7.724  27.760  55.497  1.00  0.00     0.061 C 
BRANCH  31  33
HETATM   33  C   UNL     1       9.013  29.111  57.277  1.00  0.00     0.028 A 
HETATM   34  C   UNL     1       8.289  30.040  58.046  1.00  0.00     0.080 A 
HETATM   35  C   UNL     1       8.935  31.176  58.547  1.00  0.00     0.037 A 
HETATM   36  C   UNL     1      10.285  31.401  58.263  1.00  0.00     0.003 A 
HETATM   37  C   UNL     1      10.999  30.488  57.489  1.00  0.00     0.001 A 
HETATM   38  C   UNL     1      10.367  29.345  57.000  1.00  0.00     0.017 A 
BRANCH  34  39
HETATM   39  O   UNL     1       6.979  29.753  58.346  1.00  0.00    -0.355 OA
HETATM   40  C   UNL     1       6.034  30.617  57.719  1.00  0.00     0.210 C 
ENDBRANCH  34  39
ENDBRANCH  31  33
ENDBRANCH   1  27
TORSDOF 10
ENDMDL
MODEL 4
REMARK VINA RESULT:      -9.6      2.640     10.453
REMARK  10 active torsions:
REMARK  status: ('A' for Active; 'I' for Inactive)
REMARK    1  A    between atoms: C_4  and  C_5 
REMARK    2  A    between atoms: C_6  and  O_7 
REMARK    3  A    between atoms: C_14  and  C_15 
REMARK    4  A    between atoms: C_18  and  C_19 
REMARK    5  A    between atoms: C_19  and  N_20 
REMARK    6  A    between atoms: N_20  and  C_21 
REMARK    7  A    between atoms: C_21  and  N_22 
REMARK    8  A    between atoms: N_22  and  C_23 
REMARK    9  A    between atoms: C_25  and  C_26 
REMARK   10  A    between atoms: C_26  and  O_27 
ROOT
HETATM    1  C   UNL     1       4.421  32.287  56.478  1.00  0.00     0.067 C 
HETATM    2  C   UNL     1       3.002  31.651  56.466  1.00  0.00     0.001 C 
HETATM    3  C   UNL     1       3.043  30.214  57.034  1.00  0.00     0.040 C 
HETATM    4  C   UNL     1       3.886  29.302  56.129  1.00  0.00     0.206 C 
HETATM    5  N   UNL     1       4.609  30.195  55.116  1.00  0.00    -0.065 N 
HETATM    6  H   UNL     1       5.276  29.615  54.587  1.00  0.00     0.280 HD
HETATM    7  C   UNL     1       5.397  31.319  55.771  1.00  0.00     0.246 C 
HETATM    8  C   UNL     1       2.552  31.552  54.990  1.00  0.00     0.033 C 
HETATM    9  C   UNL     1       3.588  30.785  54.160  1.00  0.00     0.236 C 
ENDROOT
BRANCH   4  10
HETATM   10  C   UNL     1       4.839  28.328  56.850  1.00  0.00     0.155 C 
BRANCH  10  11
HETATM   11  N   UNL     1       4.538  26.912  56.665  1.00  0.00    -0.365 N 
HETATM   12  H   UNL     1       3.586  26.679  56.401  1.00  0.00     0.161 HD
BRANCH  11  13
HETATM   13  C   UNL     1       5.445  25.961  56.285  1.00  0.00     0.172 C 
HETATM   14  S   UNL     1       6.650  25.384  57.284  1.00  0.00    -0.041 SA
BRANCH  13  15
HETATM   15  N   UNL     1       5.250  25.384  55.058  1.00  0.00    -0.333 N 
HETATM   16  H   UNL     1       4.274  25.207  54.835  1.00  0.00     0.168 HD
BRANCH  15  17
HETATM   17  C   UNL     1       6.189  24.879  54.129  1.00  0.00     0.035 A 
HETATM   18  C   UNL     1       6.789  23.625  54.256  1.00  0.00     0.047 A 
HETATM   19  C   UNL     1       7.752  23.182  53.340  1.00  0.00     0.041 A 
HETATM   20  C   UNL     1       8.073  23.977  52.239  1.00  0.00     0.018 A 
HETATM   21  C   UNL     1       7.430  25.206  52.067  1.00  0.00     0.003 A 
HETATM   22  C   UNL     1       6.493  25.653  53.007  1.00  0.00     0.029 A 
BRANCH  19  23
HETATM   23  C   UNL     1       8.411  21.885  53.633  1.00  0.00     0.293 C 
HETATM   24  O   UNL     1       8.190  20.875  52.979  1.00  0.00    -0.259 OA
BRANCH  23  25
HETATM   25  O   UNL     1       9.251  21.995  54.688  1.00  0.00    -0.323 OA
HETATM   26  C   UNL     1       9.199  20.889  55.591  1.00  0.00     0.213 C 
ENDBRANCH  23  25
ENDBRANCH  19  23
ENDBRANCH  15  17
ENDBRANCH  13  15
ENDBRANCH  11  13
ENDBRANCH  10  11
ENDBRANCH   4  10
BRANCH   1  27
HETATM   27  C   UNL     1       4.907  32.716  57.835  1.00  0.00     0.038 C 
HETATM   28  N   UNL     1       4.368  33.771  58.544  1.00  0.00    -0.277 N 
HETATM   29  C   UNL     1       3.238  34.607  58.206  1.00  0.00     0.179 C 
HETATM   30  N   UNL     1       4.995  34.015  59.699  1.00  0.00    -0.172 NA
HETATM   31  C   UNL     1       5.820  32.977  59.867  1.00  0.00     0.092 C 
HETATM   32  C   UNL     1       5.836  32.166  58.705  1.00  0.00     0.061 C 
BRANCH  31  33
HETATM   33  C   UNL     1       6.572  32.788  61.097  1.00  0.00     0.028 A 
HETATM   34  C   UNL     1       7.970  32.627  61.078  1.00  0.00     0.080 A 
HETATM   35  C   UNL     1       8.662  32.454  62.282  1.00  0.00     0.037 A 
HETATM   36  C   UNL     1       7.968  32.415  63.494  1.00  0.00     0.003 A 
HETATM   37  C   UNL     1       6.583  32.562  63.513  1.00  0.00     0.001 A 
HETATM   38  C   UNL     1       5.886  32.751  62.318  1.00  0.00     0.017 A 
BRANCH  34  39
HETATM   39  O   UNL     1       8.617  32.724  59.870  1.00  0.00    -0.355 OA
HETATM   40  C   UNL     1       9.580  31.699  59.640  1.00  0.00     0.210 C 
ENDBRANCH  34  39
ENDBRANCH  31  33
ENDBRANCH   1  27
TORSDOF 10
ENDMDL
MODEL 5
REMARK VINA RESULT:      -9.3      2.400     10.267
REMARK  10 active torsions:
REMARK  status: ('A' for Active; 'I' for Inactive)
REMARK    1  A    between atoms: C_4  and  C_5 
REMARK    2  A    between atoms: C_6  and  O_7 
REMARK    3  A    between atoms: C_14  and  C_15 
REMARK    4  A    between atoms: C_18  and  C_19 
REMARK    5  A    between atoms: C_19  and  N_20 
REMARK    6  A    between atoms: N_20  and  C_21 
REMARK    7  A    between atoms: C_21  and  N_22 
REMARK    8  A    between atoms: N_22  and  C_23 
REMARK    9  A    between atoms: C_25  and  C_26 
REMARK   10  A    between atoms: C_26  and  O_27 
ROOT
HETATM    1  C   UNL     1       4.029  32.740  56.454  1.00  0.00     0.067 C 
HETATM    2  C   UNL     1       2.780  31.815  56.522  1.00  0.00     0.001 C 
HETATM    3  C   UNL     1       3.203  30.327  56.535  1.00  0.00     0.040 C 
HETATM    4  C   UNL     1       3.894  29.953  55.215  1.00  0.00     0.206 C 
HETATM    5  N   UNL     1       4.158  31.251  54.446  1.00  0.00    -0.065 N 
HETATM    6  H   UNL     1       4.734  31.031  53.621  1.00  0.00     0.280 HD
HETATM    7  C   UNL     1       4.910  32.286  55.268  1.00  0.00     0.246 C 
HETATM    8  C   UNL     1       1.960  32.051  55.233  1.00  0.00     0.033 C 
HETATM    9  C   UNL     1       2.832  31.835  53.990  1.00  0.00     0.236 C 
ENDROOT
BRANCH   4  10
HETATM   10  C   UNL     1       5.151  29.068  55.337  1.00  0.00     0.155 C 
BRANCH  10  11
HETATM   11  N   UNL     1       4.893  27.650  55.565  1.00  0.00    -0.365 N 
HETATM   12  H   UNL     1       4.149  27.228  55.018  1.00  0.00     0.161 HD
BRANCH  11  13
HETATM   13  C   UNL     1       5.824  26.741  55.987  1.00  0.00     0.172 C 
HETATM   14  S   UNL     1       6.965  27.068  57.160  1.00  0.00    -0.041 SA
BRANCH  13  15
HETATM   15  N   UNL     1       5.710  25.471  55.491  1.00  0.00    -0.333 N 
HETATM   16  H   UNL     1       5.013  24.902  55.966  1.00  0.00     0.168 HD
BRANCH  15  17
HETATM   17  C   UNL     1       6.495  24.794  54.529  1.00  0.00     0.035 A 
HETATM   18  C   UNL     1       6.920  23.473  54.683  1.00  0.00     0.047 A 
HETATM   19  C   UNL     1       7.740  22.856  53.728  1.00  0.00     0.041 A 
HETATM   20  C   UNL     1       8.085  23.547  52.566  1.00  0.00     0.018 A 
HETATM   21  C   UNL     1       7.610  24.847  52.372  1.00  0.00     0.003 A 
HETATM   22  C   UNL     1       6.819  25.466  53.348  1.00  0.00     0.029 A 
BRANCH  19  23
HETATM   23  C   UNL     1       8.230  21.492  54.046  1.00  0.00     0.293 C 
HETATM   24  O   UNL     1       7.764  20.489  53.522  1.00  0.00    -0.259 OA
BRANCH  23  25
HETATM   25  O   UNL     1       9.223  21.534  54.963  1.00  0.00    -0.323 OA
HETATM   26  C   UNL     1       9.115  20.541  55.985  1.00  0.00     0.213 C 
ENDBRANCH  23  25
ENDBRANCH  19  23
ENDBRANCH  15  17
ENDBRANCH  13  15
ENDBRANCH  11  13
ENDBRANCH  10  11
ENDBRANCH   4  10
BRANCH   1  27
HETATM   27  C   UNL     1       4.798  32.852  57.743  1.00  0.00     0.038 C 
HETATM   28  N   UNL     1       4.376  33.598  58.825  1.00  0.00    -0.277 N 
HETATM   29  C   UNL     1       3.144  34.336  58.992  1.00  0.00     0.179 C 
HETATM   30  N   UNL     1       5.246  33.608  59.840  1.00  0.00    -0.172 NA
HETATM   31  C   UNL     1       6.155  32.681  59.519  1.00  0.00     0.092 C 
HETATM   32  C   UNL     1       5.944  32.219  58.197  1.00  0.00     0.061 C 
BRANCH  31  33
HETATM   33  C   UNL     1       7.194  32.274  60.452  1.00  0.00     0.028 A 
HETATM   34  C   UNL     1       6.880  31.884  61.767  1.00  0.00     0.080 A 
HETATM   35  C   UNL     1       7.904  31.492  62.635  1.00  0.00     0.037 A 
HETATM   36  C   UNL     1       9.234  31.511  62.210  1.00  0.00     0.003 A 
HETATM   37  C   UNL     1       9.548  31.909  60.912  1.00  0.00     0.001 A 
HETATM   38  C   UNL     1       8.531  32.286  60.034  1.00  0.00     0.017 A 
BRANCH  34  39
HETATM   39  O   UNL     1       5.555  31.829  62.128  1.00  0.00    -0.355 OA
HETATM   40  C   UNL     1       5.261  32.464  63.370  1.00  0.00     0.210 C 
ENDBRANCH  34  39
ENDBRANCH  31  33
ENDBRANCH   1  27
TORSDOF 10
ENDMDL
MODEL 6
REMARK VINA RESULT:      -9.2      2.781      5.323
REMARK  10 active torsions:
REMARK  status: ('A' for Active; 'I' for Inactive)
REMARK    1  A    between atoms: C_4  and  C_5 
REMARK    2  A    between atoms: C_6  and  O_7 
REMARK    3  A    between atoms: C_14  and  C_15 
REMARK    4  A    between atoms: C_18  and  C_19 
REMARK    5  A    between atoms: C_19  and  N_20 
REMARK    6  A    between atoms: N_20  and  C_21 
REMARK    7  A    between atoms: C_21  and  N_22 
REMARK    8  A    between atoms: N_22  and  C_23 
REMARK    9  A    between atoms: C_25  and  C_26 
REMARK   10  A    between atoms: C_26  and  O_27 
ROOT
HETATM    1  C   UNL     1       6.626  26.429  54.933  1.00  0.00     0.067 C 
HETATM    2  C   UNL     1       5.598  26.227  56.082  1.00  0.00     0.001 C 
HETATM    3  C   UNL     1       5.279  27.573  56.773  1.00  0.00     0.040 C 
HETATM    4  C   UNL     1       6.531  28.132  57.465  1.00  0.00     0.206 C 
HETATM    5  N   UNL     1       7.727  27.290  57.010  1.00  0.00    -0.065 N 
HETATM    6  H   UNL     1       8.589  27.730  57.362  1.00  0.00     0.280 HD
HETATM    7  C   UNL     1       7.845  27.195  55.497  1.00  0.00     0.246 C 
HETATM    8  C   UNL     1       6.259  25.311  57.137  1.00  0.00     0.033 C 
HETATM    9  C   UNL     1       7.601  25.894  57.595  1.00  0.00     0.236 C 
ENDROOT
BRANCH   4  10
HETATM   10  C   UNL     1       6.774  29.646  57.304  1.00  0.00     0.155 C 
BRANCH  10  11
HETATM   11  N   UNL     1       6.853  30.399  58.551  1.00  0.00    -0.365 N 
HETATM   12  H   UNL     1       6.021  30.407  59.133  1.00  0.00     0.161 HD
BRANCH  11  13
HETATM   13  C   UNL     1       8.001  30.622  59.262  1.00  0.00     0.172 C 
HETATM   14  S   UNL     1       9.442  31.086  58.562  1.00  0.00    -0.041 SA
BRANCH  13  15
HETATM   15  N   UNL     1       7.897  30.573  60.626  1.00  0.00    -0.333 N 
HETATM   16  H   UNL     1       8.006  29.639  61.015  1.00  0.00     0.168 HD
BRANCH  15  17
HETATM   17  C   UNL     1       7.528  31.578  61.549  1.00  0.00     0.035 A 
HETATM   18  C   UNL     1       6.395  32.378  61.394  1.00  0.00     0.047 A 
HETATM   19  C   UNL     1       6.092  33.398  62.307  1.00  0.00     0.041 A 
HETATM   20  C   UNL     1       6.899  33.578  63.432  1.00  0.00     0.018 A 
HETATM   21  C   UNL     1       7.999  32.738  63.630  1.00  0.00     0.003 A 
HETATM   22  C   UNL     1       8.310  31.745  62.694  1.00  0.00     0.029 A 
BRANCH  19  23
HETATM   23  C   UNL     1       4.931  34.264  61.985  1.00  0.00     0.293 C 
HETATM   24  O   UNL     1       4.724  34.691  60.857  1.00  0.00    -0.259 OA
BRANCH  23  25
HETATM   25  O   UNL     1       4.178  34.495  63.085  1.00  0.00    -0.323 OA
HETATM   26  C   UNL     1       2.832  34.028  62.978  1.00  0.00     0.213 C 
ENDBRANCH  23  25
ENDBRANCH  19  23
ENDBRANCH  15  17
ENDBRANCH  13  15
ENDBRANCH  11  13
ENDBRANCH  10  11
ENDBRANCH   4  10
BRANCH   1  27
HETATM   27  C   UNL     1       6.063  27.064  53.690  1.00  0.00     0.038 C 
HETATM   28  N   UNL     1       5.312  26.382  52.754  1.00  0.00    -0.277 N 
HETATM   29  C   UNL     1       4.857  25.009  52.782  1.00  0.00     0.179 C 
HETATM   30  N   UNL     1       4.969  27.126  51.698  1.00  0.00    -0.172 NA
HETATM   31  C   UNL     1       5.306  28.375  52.036  1.00  0.00     0.092 C 
HETATM   32  C   UNL     1       6.037  28.378  53.250  1.00  0.00     0.061 C 
BRANCH  31  33
HETATM   33  C   UNL     1       4.946  29.515  51.208  1.00  0.00     0.028 A 
HETATM   34  C   UNL     1       3.846  30.330  51.530  1.00  0.00     0.080 A 
HETATM   35  C   UNL     1       3.533  31.423  50.714  1.00  0.00     0.037 A 
HETATM   36  C   UNL     1       4.291  31.689  49.571  1.00  0.00     0.003 A 
HETATM   37  C   UNL     1       5.373  30.874  49.244  1.00  0.00     0.001 A 
HETATM   38  C   UNL     1       5.703  29.792  50.061  1.00  0.00     0.017 A 
BRANCH  34  39
HETATM   39  O   UNL     1       3.160  30.065  52.690  1.00  0.00    -0.355 OA
HETATM   40  C   UNL     1       3.298  31.069  53.693  1.00  0.00     0.210 C 
ENDBRANCH  34  39
ENDBRANCH  31  33
ENDBRANCH   1  27
TORSDOF 10
ENDMDL
MODEL 7
REMARK VINA RESULT:      -9.0      2.843      5.392
REMARK  10 active torsions:
REMARK  status: ('A' for Active; 'I' for Inactive)
REMARK    1  A    between atoms: C_4  and  C_5 
REMARK    2  A    between atoms: C_6  and  O_7 
REMARK    3  A    between atoms: C_14  and  C_15 
REMARK    4  A    between atoms: C_18  and  C_19 
REMARK    5  A    between atoms: C_19  and  N_20 
REMARK    6  A    between atoms: N_20  and  C_21 
REMARK    7  A    between atoms: C_21  and  N_22 
REMARK    8  A    between atoms: N_22  and  C_23 
REMARK    9  A    between atoms: C_25  and  C_26 
REMARK   10  A    between atoms: C_26  and  O_27 
ROOT
HETATM    1  C   UNL     1       7.303  26.225  54.671  1.00  0.00     0.067 C 
HETATM    2  C   UNL     1       6.523  25.323  55.669  1.00  0.00     0.001 C 
HETATM    3  C   UNL     1       5.415  26.131  56.384  1.00  0.00     0.040 C 
HETATM    4  C   UNL     1       6.032  27.235  57.257  1.00  0.00     0.206 C 
HETATM    5  N   UNL     1       7.522  27.319  56.912  1.00  0.00    -0.065 N 
HETATM    6  H   UNL     1       7.923  28.137  57.392  1.00  0.00     0.280 HD
HETATM    7  C   UNL     1       7.779  27.489  55.423  1.00  0.00     0.246 C 
HETATM    8  C   UNL     1       7.525  24.857  56.751  1.00  0.00     0.033 C 
HETATM    9  C   UNL     1       8.215  26.060  57.403  1.00  0.00     0.236 C 
ENDROOT
BRANCH   4  10
HETATM   10  C   UNL     1       5.332  28.608  57.206  1.00  0.00     0.155 C 
BRANCH  10  11
HETATM   11  N   UNL     1       6.096  29.717  57.768  1.00  0.00    -0.365 N 
HETATM   12  H   UNL     1       7.081  29.760  57.528  1.00  0.00     0.161 HD
BRANCH  11  13
HETATM   13  C   UNL     1       5.576  30.937  58.103  1.00  0.00     0.172 C 
HETATM   14  S   UNL     1       3.939  31.248  58.195  1.00  0.00    -0.041 SA
BRANCH  13  15
HETATM   15  N   UNL     1       6.469  31.897  58.497  1.00  0.00    -0.333 N 
HETATM   16  H   UNL     1       6.661  32.599  57.786  1.00  0.00     0.168 HD
BRANCH  15  17
HETATM   17  C   UNL     1       7.258  31.983  59.667  1.00  0.00     0.035 A 
HETATM   18  C   UNL     1       6.714  32.121  60.946  1.00  0.00     0.047 A 
HETATM   19  C   UNL     1       7.533  32.253  62.075  1.00  0.00     0.041 A 
HETATM   20  C   UNL     1       8.920  32.178  61.933  1.00  0.00     0.018 A 
HETATM   21  C   UNL     1       9.471  31.973  60.666  1.00  0.00     0.003 A 
HETATM   22  C   UNL     1       8.645  31.876  59.540  1.00  0.00     0.029 A 
BRANCH  19  23
HETATM   23  C   UNL     1       6.855  32.513  63.369  1.00  0.00     0.293 C 
HETATM   24  O   UNL     1       5.665  32.289  63.542  1.00  0.00    -0.259 OA
BRANCH  23  25
HETATM   25  O   UNL     1       7.722  33.012  64.280  1.00  0.00    -0.323 OA
HETATM   26  C   UNL     1       7.100  33.754  65.331  1.00  0.00     0.213 C 
ENDBRANCH  23  25
ENDBRANCH  19  23
ENDBRANCH  15  17
ENDBRANCH  13  15
ENDBRANCH  11  13
ENDBRANCH  10  11
ENDBRANCH   4  10
BRANCH   1  27
HETATM   27  C   UNL     1       6.562  26.546  53.402  1.00  0.00     0.038 C 
HETATM   28  N   UNL     1       6.715  25.841  52.225  1.00  0.00    -0.277 N 
HETATM   29  C   UNL     1       7.513  24.662  51.973  1.00  0.00     0.179 C 
HETATM   30  N   UNL     1       6.006  26.339  51.207  1.00  0.00    -0.172 NA
HETATM   31  C   UNL     1       5.203  27.251  51.764  1.00  0.00     0.092 C 
HETATM   32  C   UNL     1       5.549  27.451  53.123  1.00  0.00     0.061 C 
BRANCH  31  33
HETATM   33  C   UNL     1       4.154  27.913  51.004  1.00  0.00     0.028 A 
HETATM   34  C   UNL     1       3.940  27.615  49.646  1.00  0.00     0.080 A 
HETATM   35  C   UNL     1       2.918  28.266  48.947  1.00  0.00     0.037 A 
HETATM   36  C   UNL     1       2.129  29.226  49.586  1.00  0.00     0.003 A 
HETATM   37  C   UNL     1       2.348  29.532  50.928  1.00  0.00     0.001 A 
HETATM   38  C   UNL     1       3.355  28.875  51.636  1.00  0.00     0.017 A 
BRANCH  34  39
HETATM   39  O   UNL     1       4.704  26.627  49.071  1.00  0.00    -0.355 OA
HETATM   40  C   UNL     1       4.871  26.764  47.662  1.00  0.00     0.210 C 
ENDBRANCH  34  39
ENDBRANCH  31  33
ENDBRANCH   1  27
TORSDOF 10
ENDMDL
MODEL 8
REMARK VINA RESULT:      -8.9      3.624      6.950
REMARK  10 active torsions:
REMARK  status: ('A' for Active; 'I' for Inactive)
REMARK    1  A    between atoms: C_4  and  C_5 
REMARK    2  A    between atoms: C_6  and  O_7 
REMARK    3  A    between atoms: C_14  and  C_15 
REMARK    4  A    between atoms: C_18  and  C_19 
REMARK    5  A    between atoms: C_19  and  N_20 
REMARK    6  A    between atoms: N_20  and  C_21 
REMARK    7  A    between atoms: C_21  and  N_22 
REMARK    8  A    between atoms: N_22  and  C_23 
REMARK    9  A    between atoms: C_25  and  C_26 
REMARK   10  A    between atoms: C_26  and  O_27 
ROOT
HETATM    1  C   UNL     1       6.659  25.649  54.487  1.00  0.00     0.067 C 
HETATM    2  C   UNL     1       7.052  26.013  53.027  1.00  0.00     0.001 C 
HETATM    3  C   UNL     1       6.404  27.352  52.605  1.00  0.00     0.040 C 
HETATM    4  C   UNL     1       4.873  27.223  52.576  1.00  0.00     0.206 C 
HETATM    5  N   UNL     1       4.508  25.886  53.228  1.00  0.00    -0.065 N 
HETATM    6  H   UNL     1       3.485  25.842  53.332  1.00  0.00     0.280 HD
HETATM    7  C   UNL     1       5.119  25.713  54.609  1.00  0.00     0.246 C 
HETATM    8  C   UNL     1       6.478  24.912  52.106  1.00  0.00     0.033 C 
HETATM    9  C   UNL     1       4.969  24.754  52.326  1.00  0.00     0.236 C 
ENDROOT
BRANCH   4  10
HETATM   10  C   UNL     1       4.083  28.408  53.166  1.00  0.00     0.155 C 
BRANCH  10  11
HETATM   11  N   UNL     1       4.633  29.729  52.877  1.00  0.00    -0.365 N 
HETATM   12  H   UNL     1       5.501  29.756  52.351  1.00  0.00     0.161 HD
BRANCH  11  13
HETATM   13  C   UNL     1       3.896  30.874  52.748  1.00  0.00     0.172 C 
HETATM   14  S   UNL     1       4.048  31.928  51.464  1.00  0.00    -0.041 SA
BRANCH  13  15
HETATM   15  N   UNL     1       2.907  31.074  53.673  1.00  0.00    -0.333 N 
HETATM   16  H   UNL     1       2.187  30.355  53.670  1.00  0.00     0.168 HD
BRANCH  15  17
HETATM   17  C   UNL     1       2.662  32.179  54.521  1.00  0.00     0.035 A 
HETATM   18  C   UNL     1       3.375  32.411  55.699  1.00  0.00     0.047 A 
HETATM   19  C   UNL     1       3.066  33.490  56.536  1.00  0.00     0.041 A 
HETATM   20  C   UNL     1       2.073  34.395  56.157  1.00  0.00     0.018 A 
HETATM   21  C   UNL     1       1.399  34.209  54.947  1.00  0.00     0.003 A 
HETATM   22  C   UNL     1       1.693  33.108  54.134  1.00  0.00     0.029 A 
BRANCH  19  23
HETATM   23  C   UNL     1       3.805  33.577  57.820  1.00  0.00     0.293 C 
HETATM   24  O   UNL     1       4.982  33.907  57.879  1.00  0.00    -0.259 OA
BRANCH  23  25
HETATM   25  O   UNL     1       3.008  33.247  58.862  1.00  0.00    -0.323 OA
HETATM   26  C   UNL     1       3.609  32.344  59.793  1.00  0.00     0.213 C 
ENDBRANCH  23  25
ENDBRANCH  19  23
ENDBRANCH  15  17
ENDBRANCH  13  15
ENDBRANCH  11  13
ENDBRANCH  10  11
ENDBRANCH   4  10
BRANCH   1  27
HETATM   27  C   UNL     1       7.362  26.453  55.547  1.00  0.00     0.038 C 
HETATM   28  N   UNL     1       7.939  25.900  56.672  1.00  0.00    -0.277 N 
HETATM   29  C   UNL     1       8.061  24.506  57.036  1.00  0.00     0.179 C 
HETATM   30  N   UNL     1       8.452  26.806  57.510  1.00  0.00    -0.172 NA
HETATM   31  C   UNL     1       8.414  27.958  56.833  1.00  0.00     0.092 C 
HETATM   32  C   UNL     1       7.696  27.796  55.622  1.00  0.00     0.061 C 
BRANCH  31  33
HETATM   33  C   UNL     1       9.034  29.169  57.348  1.00  0.00     0.028 A 
HETATM   34  C   UNL     1       8.303  30.092  58.116  1.00  0.00     0.080 A 
HETATM   35  C   UNL     1       8.934  31.243  58.600  1.00  0.00     0.037 A 
HETATM   36  C   UNL     1      10.277  31.489  58.301  1.00  0.00     0.003 A 
HETATM   37  C   UNL     1      10.999  30.581  57.528  1.00  0.00     0.001 A 
HETATM   38  C   UNL     1      10.381  29.423  57.056  1.00  0.00     0.017 A 
BRANCH  34  39
HETATM   39  O   UNL     1       7.001  29.786  58.431  1.00  0.00    -0.355 OA
HETATM   40  C   UNL     1       6.032  30.506  57.673  1.00  0.00     0.210 C 
ENDBRANCH  34  39
ENDBRANCH  31  33
ENDBRANCH   1  27
TORSDOF 10
ENDMDL
MODEL 9
REMARK VINA RESULT:      -8.9      2.828      9.727
REMARK  10 active torsions:
REMARK  status: ('A' for Active; 'I' for Inactive)
REMARK    1  A    between atoms: C_4  and  C_5 
REMARK    2  A    between atoms: C_6  and  O_7 
REMARK    3  A    between atoms: C_14  and  C_15 
REMARK    4  A    between atoms: C_18  and  C_19 
REMARK    5  A    between atoms: C_19  and  N_20 
REMARK    6  A    between atoms: N_20  and  C_21 
REMARK    7  A    between atoms: C_21  and  N_22 
REMARK    8  A    between atoms: N_22  and  C_23 
REMARK    9  A    between atoms: C_25  and  C_26 
REMARK   10  A    between atoms: C_26  and  O_27 
ROOT
HETATM    1  C   UNL     1       4.123  32.791  56.398  1.00  0.00     0.067 C 
HETATM    2  C   UNL     1       2.787  31.996  56.443  1.00  0.00     0.001 C 
HETATM    3  C   UNL     1       3.055  30.474  56.393  1.00  0.00     0.040 C 
HETATM    4  C   UNL     1       3.696  30.084  55.052  1.00  0.00     0.206 C 
HETATM    5  N   UNL     1       4.087  31.378  54.332  1.00  0.00    -0.065 N 
HETATM    6  H   UNL     1       4.632  31.134  53.493  1.00  0.00     0.280 HD
HETATM    7  C   UNL     1       4.946  32.298  55.186  1.00  0.00     0.246 C 
HETATM    8  C   UNL     1       1.987  32.366  55.172  1.00  0.00     0.033 C 
HETATM    9  C   UNL     1       2.825  32.112  53.913  1.00  0.00     0.236 C 
ENDROOT
BRANCH   4  10
HETATM   10  C   UNL     1       4.856  29.071  55.126  1.00  0.00     0.155 C 
BRANCH  10  11
HETATM   11  N   UNL     1       4.486  27.682  54.876  1.00  0.00    -0.365 N 
HETATM   12  H   UNL     1       3.493  27.470  54.863  1.00  0.00     0.161 HD
BRANCH  11  13
HETATM   13  C   UNL     1       5.231  26.790  54.154  1.00  0.00     0.172 C 
HETATM   14  S   UNL     1       6.111  27.207  52.800  1.00  0.00    -0.041 SA
BRANCH  13  15
HETATM   15  N   UNL     1       5.336  25.524  54.666  1.00  0.00    -0.333 N 
HETATM   16  H   UNL     1       4.455  25.018  54.700  1.00  0.00     0.168 HD
BRANCH  15  17
HETATM   17  C   UNL     1       6.436  24.876  55.273  1.00  0.00     0.035 A 
HETATM   18  C   UNL     1       6.822  23.571  54.958  1.00  0.00     0.047 A 
HETATM   19  C   UNL     1       7.888  22.947  55.619  1.00  0.00     0.041 A 
HETATM   20  C   UNL     1       8.626  23.662  56.565  1.00  0.00     0.018 A 
HETATM   21  C   UNL     1       8.288  24.990  56.839  1.00  0.00     0.003 A 
HETATM   22  C   UNL     1       7.200  25.592  56.196  1.00  0.00     0.029 A 
BRANCH  19  23
HETATM   23  C   UNL     1       8.139  21.522  55.292  1.00  0.00     0.293 C 
HETATM   24  O   UNL     1       7.588  20.605  55.886  1.00  0.00    -0.259 OA
BRANCH  23  25
HETATM   25  O   UNL     1       9.031  21.406  54.281  1.00  0.00    -0.323 OA
HETATM   26  C   UNL     1       8.588  20.577  53.205  1.00  0.00     0.213 C 
ENDBRANCH  23  25
ENDBRANCH  19  23
ENDBRANCH  15  17
ENDBRANCH  13  15
ENDBRANCH  11  13
ENDBRANCH  10  11
ENDBRANCH   4  10
BRANCH   1  27
HETATM   27  C   UNL     1       4.908  32.773  57.682  1.00  0.00     0.038 C 
HETATM   28  N   UNL     1       4.615  33.568  58.771  1.00  0.00    -0.277 N 
HETATM   29  C   UNL     1       3.514  34.489  58.951  1.00  0.00     0.179 C 
HETATM   30  N   UNL     1       5.481  33.435  59.780  1.00  0.00    -0.172 NA
HETATM   31  C   UNL     1       6.232  32.380  59.448  1.00  0.00     0.092 C 
HETATM   32  C   UNL     1       5.944  31.965  58.124  1.00  0.00     0.061 C 
BRANCH  31  33
HETATM   33  C   UNL     1       7.199  31.808  60.372  1.00  0.00     0.028 A 
HETATM   34  C   UNL     1       8.355  31.156  59.905  1.00  0.00     0.080 A 
HETATM   35  C   UNL     1       9.267  30.624  60.822  1.00  0.00     0.037 A 
HETATM   36  C   UNL     1       9.020  30.715  62.195  1.00  0.00     0.003 A 
HETATM   37  C   UNL     1       7.869  31.349  62.658  1.00  0.00     0.001 A 
HETATM   38  C   UNL     1       6.963  31.898  61.750  1.00  0.00     0.017 A 
BRANCH  34  39
HETATM   39  O   UNL     1       8.585  31.135  58.550  1.00  0.00    -0.355 OA
HETATM   40  C   UNL     1       9.047  29.880  58.056  1.00  0.00     0.210 C 
ENDBRANCH  34  39
ENDBRANCH  31  33
ENDBRANCH   1  27
TORSDOF 10
ENDMDL
MODEL 10
REMARK VINA RESULT:      -8.9      4.614      9.094
REMARK  10 active torsions:
REMARK  status: ('A' for Active; 'I' for Inactive)
REMARK    1  A    between atoms: C_4  and  C_5 
REMARK    2  A    between atoms: C_6  and  O_7 
REMARK    3  A    between atoms: C_14  and  C_15 
REMARK    4  A    between atoms: C_18  and  C_19 
REMARK    5  A    between atoms: C_19  and  N_20 
REMARK    6  A    between atoms: N_20  and  C_21 
REMARK    7  A    between atoms: C_21  and  N_22 
REMARK    8  A    between atoms: N_22  and  C_23 
REMARK    9  A    between atoms: C_25  and  C_26 
REMARK   10  A    between atoms: C_26  and  O_27 
ROOT
HETATM    1  C   UNL     1       3.307  30.792  55.655  1.00  0.00     0.067 C 
HETATM    2  C   UNL     1       4.286  31.861  56.220  1.00  0.00     0.001 C 
HETATM    3  C   UNL     1       5.734  31.321  56.235  1.00  0.00     0.040 C 
HETATM    4  C   UNL     1       5.855  30.132  57.202  1.00  0.00     0.206 C 
HETATM    5  N   UNL     1       4.438  29.729  57.619  1.00  0.00    -0.065 N 
HETATM    6  H   UNL     1       4.493  28.856  58.163  1.00  0.00     0.280 HD
HETATM    7  C   UNL     1       3.519  29.474  56.434  1.00  0.00     0.246 C 
HETATM    8  C   UNL     1       3.878  32.131  57.687  1.00  0.00     0.033 C 
HETATM    9  C   UNL     1       3.847  30.825  58.489  1.00  0.00     0.236 C 
ENDROOT
BRANCH   4  10
HETATM   10  C   UNL     1       6.691  28.937  56.703  1.00  0.00     0.155 C 
BRANCH  10  11
HETATM   11  N   UNL     1       6.474  27.684  57.419  1.00  0.00    -0.365 N 
HETATM   12  H   UNL     1       5.927  27.735  58.272  1.00  0.00     0.161 HD
BRANCH  11  13
HETATM   13  C   UNL     1       6.441  26.445  56.839  1.00  0.00     0.172 C 
HETATM   14  S   UNL     1       5.119  25.429  56.909  1.00  0.00    -0.041 SA
BRANCH  13  15
HETATM   15  N   UNL     1       7.517  26.101  56.066  1.00  0.00    -0.333 N 
HETATM   16  H   UNL     1       8.371  26.602  56.300  1.00  0.00     0.168 HD
BRANCH  15  17
HETATM   17  C   UNL     1       7.590  25.273  54.922  1.00  0.00     0.035 A 
HETATM   18  C   UNL     1       7.608  23.879  54.988  1.00  0.00     0.047 A 
HETATM   19  C   UNL     1       7.732  23.096  53.833  1.00  0.00     0.041 A 
HETATM   20  C   UNL     1       7.770  23.715  52.582  1.00  0.00     0.018 A 
HETATM   21  C   UNL     1       7.687  25.107  52.501  1.00  0.00     0.003 A 
HETATM   22  C   UNL     1       7.597  25.881  53.665  1.00  0.00     0.029 A 
BRANCH  19  23
HETATM   23  C   UNL     1       7.858  21.630  54.025  1.00  0.00     0.293 C 
HETATM   24  O   UNL     1       7.976  20.854  53.087  1.00  0.00    -0.259 OA
BRANCH  23  25
HETATM   25  O   UNL     1       7.822  21.308  55.338  1.00  0.00    -0.323 OA
HETATM   26  C   UNL     1       8.927  20.514  55.774  1.00  0.00     0.213 C 
ENDBRANCH  23  25
ENDBRANCH  19  23
ENDBRANCH  15  17
ENDBRANCH  13  15
ENDBRANCH  11  13
ENDBRANCH  10  11
ENDBRANCH   4  10
BRANCH   1  27
HETATM   27  C   UNL     1       3.373  30.605  54.164  1.00  0.00     0.038 C 
HETATM   28  N   UNL     1       2.915  31.536  53.253  1.00  0.00    -0.277 N 
HETATM   29  C   UNL     1       2.370  32.852  53.500  1.00  0.00     0.179 C 
HETATM   30  N   UNL     1       3.015  31.135  51.982  1.00  0.00    -0.172 NA
HETATM   31  C   UNL     1       3.749  30.018  52.032  1.00  0.00     0.092 C 
HETATM   32  C   UNL     1       3.953  29.622  53.377  1.00  0.00     0.061 C 
BRANCH  31  33
HETATM   33  C   UNL     1       4.219  29.356  50.826  1.00  0.00     0.028 A 
HETATM   34  C   UNL     1       5.334  29.839  50.118  1.00  0.00     0.080 A 
HETATM   35  C   UNL     1       5.762  29.173  48.964  1.00  0.00     0.037 A 
HETATM   36  C   UNL     1       5.071  28.050  48.501  1.00  0.00     0.003 A 
HETATM   37  C   UNL     1       3.958  27.579  49.195  1.00  0.00     0.001 A 
HETATM   38  C   UNL     1       3.534  28.227  50.356  1.00  0.00     0.017 A 
BRANCH  34  39
HETATM   39  O   UNL     1       6.016  30.914  50.636  1.00  0.00    -0.355 OA
HETATM   40  C   UNL     1       6.066  32.046  49.772  1.00  0.00     0.210 C 
ENDBRANCH  34  39
ENDBRANCH  31  33
ENDBRANCH   1  27
TORSDOF 10
ENDMDL
