MODEL 1
REMARK VINA RESULT:      -9.8      0.000      0.000
REMARK  7 active torsions:
REMARK  status: ('A' for Active; 'I' for Inactive)
REMARK    1  A    between atoms: C_5  and  O_6 
REMARK    2  A    between atoms: O_6  and  C_7 
REMARK    3  A    between atoms: C_7  and  C_8 
REMARK    4  A    between atoms: C_8  and  N_9 
REMARK       I    between atoms: N_9  and  C_10 
REMARK       I    between atoms: C_10  and  N_11 
REMARK    5  A    between atoms: N_11  and  C_12 
REMARK    6  A    between atoms: N_15  and  S_16 
REMARK    7  A    between atoms: S_16  and  C_17 
ROOT
HETATM    1  C   UNL     1       6.972  29.092  56.205  1.00  0.00     0.103 A 
HETATM    2  S   UNL     1       6.596  27.866  55.009  1.00  0.00    -0.032 SA
HETATM    3  C   UNL     1       7.558  26.646  55.873  1.00  0.00     0.185 A 
HETATM    4  N   UNL     1       7.729  25.403  55.576  1.00  0.00    -0.134 NA
HETATM    5  N   UNL     1       8.101  27.271  56.971  1.00  0.00    -0.336 N 
HETATM    6  C   UNL     1       7.756  28.602  57.186  1.00  0.00     0.041 A 
HETATM    7  C   UNL     1       8.154  29.243  58.475  1.00  0.00     0.071 C 
HETATM    8  H   UNL     1       8.591  26.739  57.678  1.00  0.00     0.168 HD
ENDROOT
BRANCH   1   9
HETATM    9  N   UNL     1       6.376  30.292  55.994  1.00  0.00    -0.301 N 
HETATM   10  C   UNL     1       5.440  31.037  56.631  1.00  0.00     0.321 C 
HETATM   11  N   UNL     1       5.123  30.699  57.916  1.00  0.00    -0.341 N 
HETATM   12  O   UNL     1       4.994  32.033  56.067  1.00  0.00    -0.247 OA
HETATM   13  H   UNL     1       5.823  30.137  58.375  1.00  0.00     0.164 HD
HETATM   14  H   UNL     1       6.760  30.809  55.209  1.00  0.00     0.171 HD
BRANCH  11  15
HETATM   15  C   UNL     1       4.473  31.691  58.762  1.00  0.00     0.151 C 
BRANCH  15  16
HETATM   16  C   UNL     1       5.397  32.792  59.281  1.00  0.00     0.195 C 
BRANCH  16  17
HETATM   17  O   UNL     1       6.481  32.130  59.935  1.00  0.00    -0.350 OA
BRANCH  17  18
HETATM   18  C   UNL     1       6.783  32.472  61.220  1.00  0.00     0.068 A 
HETATM   19  C   UNL     1       5.974  33.481  61.749  1.00  0.00     0.037 A 
HETATM   20  C   UNL     1       6.153  33.930  63.059  1.00  0.00     0.009 A 
HETATM   21  C   UNL     1       7.153  33.374  63.860  1.00  0.00    -0.062 A 
HETATM   22  C   UNL     1       7.336  33.825  65.279  1.00  0.00     0.048 C 
HETATM   23  C   UNL     1       7.959  32.359  63.330  1.00  0.00     0.009 A 
HETATM   24  C   UNL     1       7.780  31.913  62.013  1.00  0.00     0.037 A 
ENDBRANCH  17  18
ENDBRANCH  16  17
ENDBRANCH  15  16
ENDBRANCH  11  15
ENDBRANCH   1   9
BRANCH   4  25
HETATM   25  S   UNL     1       7.037  24.788  54.247  1.00  0.00     0.285 S 
HETATM   26  O   UNL     1       5.595  24.818  54.411  1.00  0.00    -0.198 OA
HETATM   27  O   UNL     1       7.671  25.344  53.068  1.00  0.00    -0.198 OA
BRANCH  25  28
HETATM   28  C   UNL     1       7.500  23.065  54.261  1.00  0.00     0.081 A 
HETATM   29  C   UNL     1       7.503  22.361  55.470  1.00  0.00     0.025 A 
HETATM   30  C   UNL     1       7.845  21.009  55.477  1.00  0.00     0.002 A 
HETATM   31  C   UNL     1       8.185  20.370  54.283  1.00  0.00     0.000 A 
HETATM   32  C   UNL     1       8.185  21.079  53.079  1.00  0.00     0.002 A 
HETATM   33  C   UNL     1       7.843  22.432  53.064  1.00  0.00     0.025 A 
ENDBRANCH  25  28
ENDBRANCH   4  25
TORSDOF 7
ENDMDL
MODEL 2
REMARK VINA RESULT:      -9.7      2.156     10.412
REMARK  7 active torsions:
REMARK  status: ('A' for Active; 'I' for Inactive)
REMARK    1  A    between atoms: C_5  and  O_6 
REMARK    2  A    between atoms: O_6  and  C_7 
REMARK    3  A    between atoms: C_7  and  C_8 
REMARK    4  A    between atoms: C_8  and  N_9 
REMARK       I    between atoms: N_9  and  C_10 
REMARK       I    between atoms: C_10  and  N_11 
REMARK    5  A    between atoms: N_11  and  C_12 
REMARK    6  A    between atoms: N_15  and  S_16 
REMARK    7  A    between atoms: S_16  and  C_17 
ROOT
HETATM    1  C   UNL     1       7.685  28.785  56.330  1.00  0.00     0.103 A 
HETATM    2  S   UNL     1       7.631  30.415  56.974  1.00  0.00    -0.032 SA
HETATM    3  C   UNL     1       7.826  29.824  58.640  1.00  0.00     0.185 A 
HETATM    4  N   UNL     1       7.913  30.511  59.727  1.00  0.00    -0.134 NA
HETATM    5  N   UNL     1       7.887  28.452  58.572  1.00  0.00    -0.336 N 
HETATM    6  C   UNL     1       7.850  27.872  57.307  1.00  0.00     0.041 A 
HETATM    7  C   UNL     1       8.128  26.409  57.186  1.00  0.00     0.071 C 
HETATM    8  H   UNL     1       8.117  27.905  59.390  1.00  0.00     0.168 HD
ENDROOT
BRANCH   1   9
HETATM    9  N   UNL     1       7.619  28.708  54.977  1.00  0.00    -0.301 N 
HETATM   10  C   UNL     1       6.969  27.927  54.079  1.00  0.00     0.321 C 
HETATM   11  N   UNL     1       5.939  27.154  54.534  1.00  0.00    -0.341 N 
HETATM   12  O   UNL     1       7.267  28.020  52.891  1.00  0.00    -0.247 OA
HETATM   13  H   UNL     1       5.555  27.462  55.414  1.00  0.00     0.164 HD
HETATM   14  H   UNL     1       8.114  29.453  54.498  1.00  0.00     0.171 HD
BRANCH  11  15
HETATM   15  C   UNL     1       4.964  26.650  53.576  1.00  0.00     0.151 C 
BRANCH  15  16
HETATM   16  C   UNL     1       4.990  25.135  53.377  1.00  0.00     0.195 C 
BRANCH  16  17
HETATM   17  O   UNL     1       6.339  24.796  53.050  1.00  0.00    -0.350 OA
BRANCH  17  18
HETATM   18  C   UNL     1       6.939  23.766  53.713  1.00  0.00     0.068 A 
HETATM   19  C   UNL     1       7.592  22.853  52.881  1.00  0.00     0.037 A 
HETATM   20  C   UNL     1       8.265  21.751  53.415  1.00  0.00     0.009 A 
HETATM   21  C   UNL     1       8.289  21.547  54.796  1.00  0.00    -0.062 A 
HETATM   22  C   UNL     1       9.034  20.386  55.385  1.00  0.00     0.048 C 
HETATM   23  C   UNL     1       7.639  22.467  55.628  1.00  0.00     0.009 A 
HETATM   24  C   UNL     1       6.961  23.569  55.090  1.00  0.00     0.037 A 
ENDBRANCH  17  18
ENDBRANCH  16  17
ENDBRANCH  15  16
ENDBRANCH  11  15
ENDBRANCH   1   9
BRANCH   4  25
HETATM   25  S   UNL     1       7.820  32.127  59.673  1.00  0.00     0.285 S 
HETATM   26  O   UNL     1       9.121  32.662  59.316  1.00  0.00    -0.198 OA
HETATM   27  O   UNL     1       6.624  32.519  58.954  1.00  0.00    -0.198 OA
BRANCH  25  28
HETATM   28  C   UNL     1       7.532  32.613  61.365  1.00  0.00     0.081 A 
HETATM   29  C   UNL     1       6.501  33.512  61.659  1.00  0.00     0.025 A 
HETATM   30  C   UNL     1       6.263  33.875  62.984  1.00  0.00     0.002 A 
HETATM   31  C   UNL     1       7.055  33.346  64.005  1.00  0.00     0.000 A 
HETATM   32  C   UNL     1       8.086  32.452  63.705  1.00  0.00     0.002 A 
HETATM   33  C   UNL     1       8.329  32.082  62.382  1.00  0.00     0.025 A 
ENDBRANCH  25  28
ENDBRANCH   4  25
TORSDOF 7
ENDMDL
MODEL 3
REMARK VINA RESULT:      -9.6      3.222     11.477
REMARK  7 active torsions:
REMARK  status: ('A' for Active; 'I' for Inactive)
REMARK    1  A    between atoms: C_5  and  O_6 
REMARK    2  A    between atoms: O_6  and  C_7 
REMARK    3  A    between atoms: C_7  and  C_8 
REMARK    4  A    between atoms: C_8  and  N_9 
REMARK       I    between atoms: N_9  and  C_10 
REMARK       I    between atoms: C_10  and  N_11 
REMARK    5  A    between atoms: N_11  and  C_12 
REMARK    6  A    between atoms: N_15  and  S_16 
REMARK    7  A    between atoms: S_16  and  C_17 
ROOT
HETATM    1  C   UNL     1       6.980  31.615  59.059  1.00  0.00     0.103 A 
HETATM    2  S   UNL     1       5.758  32.091  60.222  1.00  0.00    -0.032 SA
HETATM    3  C   UNL     1       6.989  32.452  61.454  1.00  0.00     0.185 A 
HETATM    4  N   UNL     1       6.818  32.914  62.645  1.00  0.00    -0.134 NA
HETATM    5  N   UNL     1       8.210  32.157  60.894  1.00  0.00    -0.336 N 
HETATM    6  C   UNL     1       8.221  31.735  59.568  1.00  0.00     0.041 A 
HETATM    7  C   UNL     1       9.536  31.613  58.870  1.00  0.00     0.071 C 
HETATM    8  H   UNL     1       9.068  32.399  61.372  1.00  0.00     0.168 HD
ENDROOT
BRANCH   1   9
HETATM    9  N   UNL     1       6.497  31.272  57.838  1.00  0.00    -0.301 N 
HETATM   10  C   UNL     1       6.484  30.149  57.079  1.00  0.00     0.321 C 
HETATM   11  N   UNL     1       6.805  28.967  57.684  1.00  0.00    -0.341 N 
HETATM   12  O   UNL     1       6.094  30.226  55.917  1.00  0.00    -0.247 OA
HETATM   13  H   UNL     1       6.716  28.985  58.689  1.00  0.00     0.164 HD
HETATM   14  H   UNL     1       5.944  31.999  57.396  1.00  0.00     0.171 HD
BRANCH  11  15
HETATM   15  C   UNL     1       6.398  27.721  57.049  1.00  0.00     0.151 C 
BRANCH  15  16
HETATM   16  C   UNL     1       7.547  26.890  56.479  1.00  0.00     0.195 C 
BRANCH  16  17
HETATM   17  O   UNL     1       7.281  26.743  55.082  1.00  0.00    -0.350 OA
BRANCH  17  18
HETATM   18  C   UNL     1       7.468  25.524  54.500  1.00  0.00     0.068 A 
HETATM   19  C   UNL     1       7.266  24.442  55.361  1.00  0.00     0.037 A 
HETATM   20  C   UNL     1       7.408  23.128  54.907  1.00  0.00     0.009 A 
HETATM   21  C   UNL     1       7.759  22.881  53.578  1.00  0.00    -0.062 A 
HETATM   22  C   UNL     1       7.884  21.475  53.069  1.00  0.00     0.048 C 
HETATM   23  C   UNL     1       7.955  23.967  52.716  1.00  0.00     0.009 A 
HETATM   24  C   UNL     1       7.817  25.284  53.175  1.00  0.00     0.037 A 
ENDBRANCH  17  18
ENDBRANCH  16  17
ENDBRANCH  15  16
ENDBRANCH  11  15
ENDBRANCH   1   9
BRANCH   4  25
HETATM   25  S   UNL     1       5.323  33.215  63.188  1.00  0.00     0.285 S 
HETATM   26  O   UNL     1       4.813  34.404  62.530  1.00  0.00    -0.198 OA
HETATM   27  O   UNL     1       4.559  31.983  63.212  1.00  0.00    -0.198 OA
BRANCH  25  28
HETATM   28  C   UNL     1       5.553  33.658  64.901  1.00  0.00     0.081 A 
HETATM   29  C   UNL     1       6.848  33.782  65.414  1.00  0.00     0.025 A 
HETATM   30  C   UNL     1       7.027  34.149  66.747  1.00  0.00     0.002 A 
HETATM   31  C   UNL     1       5.917  34.385  67.561  1.00  0.00     0.000 A 
HETATM   32  C   UNL     1       4.625  34.255  67.044  1.00  0.00     0.002 A 
HETATM   33  C   UNL     1       4.438  33.890  65.711  1.00  0.00     0.025 A 
ENDBRANCH  25  28
ENDBRANCH   4  25
TORSDOF 7
ENDMDL
MODEL 4
REMARK VINA RESULT:      -9.2      2.404     11.019
REMARK  7 active torsions:
REMARK  status: ('A' for Active; 'I' for Inactive)
REMARK    1  A    between atoms: C_5  and  O_6 
REMARK    2  A    between atoms: O_6  and  C_7 
REMARK    3  A    between atoms: C_7  and  C_8 
REMARK    4  A    between atoms: C_8  and  N_9 
REMARK       I    between atoms: N_9  and  C_10 
REMARK       I    between atoms: C_10  and  N_11 
REMARK    5  A    between atoms: N_11  and  C_12 
REMARK    6  A    between atoms: N_15  and  S_16 
REMARK    7  A    between atoms: S_16  and  C_17 
ROOT
HETATM    1  C   UNL     1       6.028  30.780  57.187  1.00  0.00     0.103 A 
HETATM    2  S   UNL     1       7.064  31.074  58.570  1.00  0.00    -0.032 SA
HETATM    3  C   UNL     1       5.755  31.898  59.448  1.00  0.00     0.185 A 
HETATM    4  N   UNL     1       5.776  32.394  60.637  1.00  0.00    -0.134 NA
HETATM    5  N   UNL     1       4.660  31.905  58.615  1.00  0.00    -0.336 N 
HETATM    6  C   UNL     1       4.785  31.260  57.388  1.00  0.00     0.041 A 
HETATM    7  C   UNL     1       3.559  31.065  56.557  1.00  0.00     0.071 C 
HETATM    8  H   UNL     1       3.759  32.217  58.951  1.00  0.00     0.168 HD
ENDROOT
BRANCH   1   9
HETATM    9  N   UNL     1       6.608  30.074  56.184  1.00  0.00    -0.301 N 
HETATM   10  C   UNL     1       6.709  28.764  55.850  1.00  0.00     0.321 C 
HETATM   11  N   UNL     1       5.876  27.881  56.476  1.00  0.00    -0.341 N 
HETATM   12  O   UNL     1       7.468  28.444  54.938  1.00  0.00    -0.247 OA
HETATM   13  H   UNL     1       5.061  28.310  56.888  1.00  0.00     0.164 HD
HETATM   14  H   UNL     1       7.013  30.653  55.455  1.00  0.00     0.171 HD
BRANCH  11  15
HETATM   15  C   UNL     1       5.646  26.579  55.864  1.00  0.00     0.151 C 
BRANCH  15  16
HETATM   16  C   UNL     1       6.464  25.438  56.466  1.00  0.00     0.195 C 
BRANCH  16  17
HETATM   17  O   UNL     1       7.562  25.219  55.578  1.00  0.00    -0.350 OA
BRANCH  17  18
HETATM   18  C   UNL     1       7.701  23.996  54.991  1.00  0.00     0.068 A 
HETATM   19  C   UNL     1       7.906  24.043  53.610  1.00  0.00     0.037 A 
HETATM   20  C   UNL     1       8.079  22.872  52.870  1.00  0.00     0.009 A 
HETATM   21  C   UNL     1       8.045  21.630  53.507  1.00  0.00    -0.062 A 
HETATM   22  C   UNL     1       8.261  20.365  52.730  1.00  0.00     0.048 C 
HETATM   23  C   UNL     1       7.846  21.585  54.892  1.00  0.00     0.009 A 
HETATM   24  C   UNL     1       7.668  22.761  55.632  1.00  0.00     0.037 A 
ENDBRANCH  17  18
ENDBRANCH  16  17
ENDBRANCH  15  16
ENDBRANCH  11  15
ENDBRANCH   1   9
BRANCH   4  25
HETATM   25  S   UNL     1       7.135  32.327  61.516  1.00  0.00     0.285 S 
HETATM   26  O   UNL     1       7.492  30.935  61.725  1.00  0.00    -0.198 OA
HETATM   27  O   UNL     1       8.096  33.279  60.996  1.00  0.00    -0.198 OA
BRANCH  25  28
HETATM   28  C   UNL     1       6.663  32.962  63.115  1.00  0.00     0.081 A 
HETATM   29  C   UNL     1       5.314  33.217  63.385  1.00  0.00     0.025 A 
HETATM   30  C   UNL     1       4.944  33.694  64.642  1.00  0.00     0.002 A 
HETATM   31  C   UNL     1       5.917  33.916  65.618  1.00  0.00     0.000 A 
HETATM   32  C   UNL     1       7.263  33.663  65.341  1.00  0.00     0.002 A 
HETATM   33  C   UNL     1       7.642  33.184  64.087  1.00  0.00     0.025 A 
ENDBRANCH  25  28
ENDBRANCH   4  25
TORSDOF 7
ENDMDL
MODEL 5
REMARK VINA RESULT:      -9.1      1.993      2.829
REMARK  7 active torsions:
REMARK  status: ('A' for Active; 'I' for Inactive)
REMARK    1  A    between atoms: C_5  and  O_6 
REMARK    2  A    between atoms: O_6  and  C_7 
REMARK    3  A    between atoms: C_7  and  C_8 
REMARK    4  A    between atoms: C_8  and  N_9 
REMARK       I    between atoms: N_9  and  C_10 
REMARK       I    between atoms: C_10  and  N_11 
REMARK    5  A    between atoms: N_11  and  C_12 
REMARK    6  A    between atoms: N_15  and  S_16 
REMARK    7  A    between atoms: S_16  and  C_17 
ROOT
HETATM    1  C   UNL     1       7.360  29.852  57.432  1.00  0.00     0.103 A 
HETATM    2  S   UNL     1       6.386  28.494  56.899  1.00  0.00    -0.032 SA
HETATM    3  C   UNL     1       7.827  27.479  56.664  1.00  0.00     0.185 A 
HETATM    4  N   UNL     1       7.886  26.248  56.288  1.00  0.00    -0.134 NA
HETATM    5  N   UNL     1       8.917  28.255  56.980  1.00  0.00    -0.336 N 
HETATM    6  C   UNL     1       8.672  29.546  57.440  1.00  0.00     0.041 A 
HETATM    7  C   UNL     1       9.815  30.335  57.991  1.00  0.00     0.071 C 
HETATM    8  H   UNL     1       9.841  27.849  57.036  1.00  0.00     0.168 HD
ENDROOT
BRANCH   1   9
HETATM    9  N   UNL     1       6.650  30.946  57.805  1.00  0.00    -0.301 N 
HETATM   10  C   UNL     1       6.417  31.602  58.968  1.00  0.00     0.321 C 
HETATM   11  N   UNL     1       7.217  31.311  60.036  1.00  0.00    -0.341 N 
HETATM   12  O   UNL     1       5.569  32.491  58.984  1.00  0.00    -0.247 OA
HETATM   13  H   UNL     1       8.092  30.878  59.784  1.00  0.00     0.164 HD
HETATM   14  H   UNL     1       6.243  31.457  57.028  1.00  0.00     0.171 HD
BRANCH  11  15
HETATM   15  C   UNL     1       7.291  32.262  61.137  1.00  0.00     0.151 C 
BRANCH  15  16
HETATM   16  C   UNL     1       6.628  31.794  62.431  1.00  0.00     0.195 C 
BRANCH  16  17
HETATM   17  O   UNL     1       5.250  32.162  62.331  1.00  0.00    -0.350 OA
BRANCH  17  18
HETATM   18  C   UNL     1       4.724  33.005  63.266  1.00  0.00     0.068 A 
HETATM   19  C   UNL     1       5.403  33.002  64.486  1.00  0.00     0.037 A 
HETATM   20  C   UNL     1       4.991  33.824  65.538  1.00  0.00     0.009 A 
HETATM   21  C   UNL     1       3.884  34.660  65.380  1.00  0.00    -0.062 A 
HETATM   22  C   UNL     1       3.449  35.571  66.491  1.00  0.00     0.048 C 
HETATM   23  C   UNL     1       3.208  34.665  64.154  1.00  0.00     0.009 A 
HETATM   24  C   UNL     1       3.621  33.837  63.102  1.00  0.00     0.037 A 
ENDBRANCH  17  18
ENDBRANCH  16  17
ENDBRANCH  15  16
ENDBRANCH  11  15
ENDBRANCH   1   9
BRANCH   4  25
HETATM   25  S   UNL     1       6.524  25.443  55.939  1.00  0.00     0.285 S 
HETATM   26  O   UNL     1       5.939  24.950  57.172  1.00  0.00    -0.198 OA
HETATM   27  O   UNL     1       5.740  26.207  54.989  1.00  0.00    -0.198 OA
BRANCH  25  28
HETATM   28  C   UNL     1       7.076  24.003  55.043  1.00  0.00     0.081 A 
HETATM   29  C   UNL     1       7.173  24.052  53.648  1.00  0.00     0.025 A 
HETATM   30  C   UNL     1       7.624  22.933  52.950  1.00  0.00     0.002 A 
HETATM   31  C   UNL     1       7.971  21.772  53.644  1.00  0.00     0.000 A 
HETATM   32  C   UNL     1       7.868  21.726  55.037  1.00  0.00     0.002 A 
HETATM   33  C   UNL     1       7.419  22.843  55.743  1.00  0.00     0.025 A 
ENDBRANCH  25  28
ENDBRANCH   4  25
TORSDOF 7
ENDMDL
MODEL 6
REMARK VINA RESULT:      -9.0      4.388      5.559
REMARK  7 active torsions:
REMARK  status: ('A' for Active; 'I' for Inactive)
REMARK    1  A    between atoms: C_5  and  O_6 
REMARK    2  A    between atoms: O_6  and  C_7 
REMARK    3  A    between atoms: C_7  and  C_8 
REMARK    4  A    between atoms: C_8  and  N_9 
REMARK       I    between atoms: N_9  and  C_10 
REMARK       I    between atoms: C_10  and  N_11 
REMARK    5  A    between atoms: N_11  and  C_12 
REMARK    6  A    between atoms: N_15  and  S_16 
REMARK    7  A    between atoms: S_16  and  C_17 
ROOT
HETATM    1  C   UNL     1       4.936  28.023  51.373  1.00  0.00     0.103 A 
HETATM    2  S   UNL     1       5.735  27.305  52.759  1.00  0.00    -0.032 SA
HETATM    3  C   UNL     1       5.591  25.673  52.068  1.00  0.00     0.185 A 
HETATM    4  N   UNL     1       6.019  24.558  52.552  1.00  0.00    -0.134 NA
HETATM    5  N   UNL     1       4.932  25.805  50.868  1.00  0.00    -0.336 N 
HETATM    6  C   UNL     1       4.602  27.093  50.458  1.00  0.00     0.041 A 
HETATM    7  C   UNL     1       4.080  27.288  49.071  1.00  0.00     0.071 C 
HETATM    8  H   UNL     1       4.843  25.018  50.239  1.00  0.00     0.168 HD
ENDROOT
BRANCH   1   9
HETATM    9  N   UNL     1       4.842  29.376  51.412  1.00  0.00    -0.301 N 
HETATM   10  C   UNL     1       4.251  30.286  52.224  1.00  0.00     0.321 C 
HETATM   11  N   UNL     1       3.811  29.861  53.445  1.00  0.00    -0.341 N 
HETATM   12  O   UNL     1       4.223  31.463  51.870  1.00  0.00    -0.247 OA
HETATM   13  H   UNL     1       4.239  29.002  53.757  1.00  0.00     0.164 HD
HETATM   14  H   UNL     1       5.404  29.847  50.710  1.00  0.00     0.171 HD
BRANCH  11  15
HETATM   15  C   UNL     1       3.574  30.849  54.488  1.00  0.00     0.151 C 
BRANCH  15  16
HETATM   16  C   UNL     1       4.093  30.454  55.870  1.00  0.00     0.195 C 
BRANCH  16  17
HETATM   17  O   UNL     1       5.518  30.531  55.801  1.00  0.00    -0.350 OA
BRANCH  17  18
HETATM   18  C   UNL     1       6.257  29.454  56.194  1.00  0.00     0.068 A 
HETATM   19  C   UNL     1       5.496  28.370  56.639  1.00  0.00     0.037 A 
HETATM   20  C   UNL     1       6.109  27.189  57.062  1.00  0.00     0.009 A 
HETATM   21  C   UNL     1       7.501  27.079  57.048  1.00  0.00    -0.062 A 
HETATM   22  C   UNL     1       8.172  25.805  57.470  1.00  0.00     0.048 C 
HETATM   23  C   UNL     1       8.261  28.164  56.596  1.00  0.00     0.009 A 
HETATM   24  C   UNL     1       7.644  29.350  56.176  1.00  0.00     0.037 A 
ENDBRANCH  17  18
ENDBRANCH  16  17
ENDBRANCH  15  16
ENDBRANCH  11  15
ENDBRANCH   1   9
BRANCH   4  25
HETATM   25  S   UNL     1       6.779  24.537  53.983  1.00  0.00     0.285 S 
HETATM   26  O   UNL     1       7.945  25.397  53.909  1.00  0.00    -0.198 OA
HETATM   27  O   UNL     1       5.807  24.678  55.049  1.00  0.00    -0.198 OA
BRANCH  25  28
HETATM   28  C   UNL     1       7.401  22.871  54.131  1.00  0.00     0.081 A 
HETATM   29  C   UNL     1       7.501  22.282  55.396  1.00  0.00     0.025 A 
HETATM   30  C   UNL     1       7.967  20.973  55.509  1.00  0.00     0.002 A 
HETATM   31  C   UNL     1       8.336  20.262  54.365  1.00  0.00     0.000 A 
HETATM   32  C   UNL     1       8.238  20.858  53.104  1.00  0.00     0.002 A 
HETATM   33  C   UNL     1       7.771  22.167  52.983  1.00  0.00     0.025 A 
ENDBRANCH  25  28
ENDBRANCH   4  25
TORSDOF 7
ENDMDL
MODEL 7
REMARK VINA RESULT:      -9.0      4.989      8.953
REMARK  7 active torsions:
REMARK  status: ('A' for Active; 'I' for Inactive)
REMARK    1  A    between atoms: C_5  and  O_6 
REMARK    2  A    between atoms: O_6  and  C_7 
REMARK    3  A    between atoms: C_7  and  C_8 
REMARK    4  A    between atoms: C_8  and  N_9 
REMARK       I    between atoms: N_9  and  C_10 
REMARK       I    between atoms: C_10  and  N_11 
REMARK    5  A    between atoms: N_11  and  C_12 
REMARK    6  A    between atoms: N_15  and  S_16 
REMARK    7  A    between atoms: S_16  and  C_17 
ROOT
HETATM    1  C   UNL     1       4.450  28.262  53.860  1.00  0.00     0.103 A 
HETATM    2  S   UNL     1       5.192  26.951  52.962  1.00  0.00    -0.032 SA
HETATM    3  C   UNL     1       5.946  26.294  54.432  1.00  0.00     0.185 A 
HETATM    4  N   UNL     1       6.671  25.235  54.555  1.00  0.00    -0.134 NA
HETATM    5  N   UNL     1       5.598  27.130  55.467  1.00  0.00    -0.336 N 
HETATM    6  C   UNL     1       4.746  28.191  55.173  1.00  0.00     0.041 A 
HETATM    7  C   UNL     1       4.181  28.986  56.305  1.00  0.00     0.071 C 
HETATM    8  H   UNL     1       5.815  26.886  56.423  1.00  0.00     0.168 HD
ENDROOT
BRANCH   1   9
HETATM    9  N   UNL     1       3.662  29.081  53.120  1.00  0.00    -0.301 N 
HETATM   10  C   UNL     1       3.866  30.116  52.269  1.00  0.00     0.321 C 
HETATM   11  N   UNL     1       5.133  30.317  51.801  1.00  0.00    -0.341 N 
HETATM   12  O   UNL     1       2.895  30.763  51.883  1.00  0.00    -0.247 OA
HETATM   13  H   UNL     1       5.729  29.507  51.876  1.00  0.00     0.164 HD
HETATM   14  H   UNL     1       2.679  28.831  53.137  1.00  0.00     0.171 HD
BRANCH  11  15
HETATM   15  C   UNL     1       5.318  31.111  50.594  1.00  0.00     0.151 C 
BRANCH  15  16
HETATM   16  C   UNL     1       5.803  30.322  49.379  1.00  0.00     0.195 C 
BRANCH  16  17
HETATM   17  O   UNL     1       4.668  30.160  48.526  1.00  0.00    -0.350 OA
BRANCH  17  18
HETATM   18  C   UNL     1       4.205  28.902  48.275  1.00  0.00     0.068 A 
HETATM   19  C   UNL     1       4.816  27.905  49.039  1.00  0.00     0.037 A 
HETATM   20  C   UNL     1       4.439  26.567  48.905  1.00  0.00     0.009 A 
HETATM   21  C   UNL     1       3.442  26.208  47.996  1.00  0.00    -0.062 A 
HETATM   22  C   UNL     1       3.005  24.779  47.864  1.00  0.00     0.048 C 
HETATM   23  C   UNL     1       2.827  27.210  47.236  1.00  0.00     0.009 A 
HETATM   24  C   UNL     1       3.209  28.551  47.368  1.00  0.00     0.037 A 
ENDBRANCH  17  18
ENDBRANCH  16  17
ENDBRANCH  15  16
ENDBRANCH  11  15
ENDBRANCH   1   9
BRANCH   4  25
HETATM   25  S   UNL     1       7.014  24.335  53.253  1.00  0.00     0.285 S 
HETATM   26  O   UNL     1       5.787  24.076  52.523  1.00  0.00    -0.198 OA
HETATM   27  O   UNL     1       8.186  24.872  52.589  1.00  0.00    -0.198 OA
BRANCH  25  28
HETATM   28  C   UNL     1       7.533  22.764  53.923  1.00  0.00     0.081 A 
HETATM   29  C   UNL     1       7.515  22.564  55.307  1.00  0.00     0.025 A 
HETATM   30  C   UNL     1       7.900  21.329  55.828  1.00  0.00     0.002 A 
HETATM   31  C   UNL     1       8.304  20.305  54.968  1.00  0.00     0.000 A 
HETATM   32  C   UNL     1       8.324  20.513  53.586  1.00  0.00     0.002 A 
HETATM   33  C   UNL     1       7.938  21.745  53.057  1.00  0.00     0.025 A 
ENDBRANCH  25  28
ENDBRANCH   4  25
TORSDOF 7
ENDMDL
MODEL 8
REMARK VINA RESULT:      -9.0      1.987      2.511
REMARK  7 active torsions:
REMARK  status: ('A' for Active; 'I' for Inactive)
REMARK    1  A    between atoms: C_5  and  O_6 
REMARK    2  A    between atoms: O_6  and  C_7 
REMARK    3  A    between atoms: C_7  and  C_8 
REMARK    4  A    between atoms: C_8  and  N_9 
REMARK       I    between atoms: N_9  and  C_10 
REMARK       I    between atoms: C_10  and  N_11 
REMARK    5  A    between atoms: N_11  and  C_12 
REMARK    6  A    between atoms: N_15  and  S_16 
REMARK    7  A    between atoms: S_16  and  C_17 
ROOT
HETATM    1  C   UNL     1       4.188  28.390  55.658  1.00  0.00     0.103 A 
HETATM    2  S   UNL     1       5.128  27.104  56.393  1.00  0.00    -0.032 SA
HETATM    3  C   UNL     1       5.628  26.484  54.803  1.00  0.00     0.185 A 
HETATM    4  N   UNL     1       6.413  25.496  54.540  1.00  0.00    -0.134 NA
HETATM    5  N   UNL     1       5.025  27.279  53.857  1.00  0.00    -0.336 N 
HETATM    6  C   UNL     1       4.264  28.352  54.314  1.00  0.00     0.041 A 
HETATM    7  C   UNL     1       3.774  29.353  53.319  1.00  0.00     0.071 C 
HETATM    8  H   UNL     1       5.261  27.187  52.879  1.00  0.00     0.168 HD
ENDROOT
BRANCH   1   9
HETATM    9  N   UNL     1       3.602  29.237  56.540  1.00  0.00    -0.301 N 
HETATM   10  C   UNL     1       3.895  30.455  57.059  1.00  0.00     0.321 C 
HETATM   11  N   UNL     1       4.871  31.190  56.448  1.00  0.00    -0.341 N 
HETATM   12  O   UNL     1       3.211  30.882  57.987  1.00  0.00    -0.247 OA
HETATM   13  H   UNL     1       5.061  30.907  55.499  1.00  0.00     0.164 HD
HETATM   14  H   UNL     1       2.681  28.939  56.847  1.00  0.00     0.171 HD
BRANCH  11  15
HETATM   15  C   UNL     1       4.920  32.626  56.686  1.00  0.00     0.151 C 
BRANCH  15  16
HETATM   16  C   UNL     1       5.238  33.024  58.127  1.00  0.00     0.195 C 
BRANCH  16  17
HETATM   17  O   UNL     1       6.451  32.351  58.470  1.00  0.00    -0.350 OA
BRANCH  17  18
HETATM   18  C   UNL     1       6.913  32.437  59.751  1.00  0.00     0.068 A 
HETATM   19  C   UNL     1       5.947  32.824  60.683  1.00  0.00     0.037 A 
HETATM   20  C   UNL     1       6.265  32.943  62.037  1.00  0.00     0.009 A 
HETATM   21  C   UNL     1       7.564  32.679  62.477  1.00  0.00    -0.062 A 
HETATM   22  C   UNL     1       7.912  32.773  63.934  1.00  0.00     0.048 C 
HETATM   23  C   UNL     1       8.529  32.286  61.542  1.00  0.00     0.009 A 
HETATM   24  C   UNL     1       8.208  32.170  60.183  1.00  0.00     0.037 A 
ENDBRANCH  17  18
ENDBRANCH  16  17
ENDBRANCH  15  16
ENDBRANCH  11  15
ENDBRANCH   1   9
BRANCH   4  25
HETATM   25  S   UNL     1       7.058  24.632  55.748  1.00  0.00     0.285 S 
HETATM   26  O   UNL     1       8.315  25.241  56.144  1.00  0.00    -0.198 OA
HETATM   27  O   UNL     1       6.032  24.324  56.725  1.00  0.00    -0.198 OA
BRANCH  25  28
HETATM   28  C   UNL     1       7.480  23.068  55.001  1.00  0.00     0.081 A 
HETATM   29  C   UNL     1       7.640  21.937  55.809  1.00  0.00     0.025 A 
HETATM   30  C   UNL     1       7.949  20.711  55.223  1.00  0.00     0.002 A 
HETATM   31  C   UNL     1       8.101  20.619  53.837  1.00  0.00     0.000 A 
HETATM   32  C   UNL     1       7.944  21.753  53.035  1.00  0.00     0.002 A 
HETATM   33  C   UNL     1       7.633  22.984  53.615  1.00  0.00     0.025 A 
ENDBRANCH  25  28
ENDBRANCH   4  25
TORSDOF 7
ENDMDL
MODEL 9
REMARK VINA RESULT:      -8.9      2.739     11.229
REMARK  7 active torsions:
REMARK  status: ('A' for Active; 'I' for Inactive)
REMARK    1  A    between atoms: C_5  and  O_6 
REMARK    2  A    between atoms: O_6  and  C_7 
REMARK    3  A    between atoms: C_7  and  C_8 
REMARK    4  A    between atoms: C_8  and  N_9 
REMARK       I    between atoms: N_9  and  C_10 
REMARK       I    between atoms: C_10  and  N_11 
REMARK    5  A    between atoms: N_11  and  C_12 
REMARK    6  A    between atoms: N_15  and  S_16 
REMARK    7  A    between atoms: S_16  and  C_17 
ROOT
HETATM    1  C   UNL     1       6.653  30.469  57.584  1.00  0.00     0.103 A 
HETATM    2  S   UNL     1       5.396  31.511  58.224  1.00  0.00    -0.032 SA
HETATM    3  C   UNL     1       6.342  31.845  59.693  1.00  0.00     0.185 A 
HETATM    4  N   UNL     1       6.041  32.616  60.680  1.00  0.00    -0.134 NA
HETATM    5  N   UNL     1       7.508  31.124  59.588  1.00  0.00    -0.336 N 
HETATM    6  C   UNL     1       7.708  30.396  58.418  1.00  0.00     0.041 A 
HETATM    7  C   UNL     1       9.048  29.779  58.183  1.00  0.00     0.071 C 
HETATM    8  H   UNL     1       8.256  31.253  60.256  1.00  0.00     0.168 HD
ENDROOT
BRANCH   1   9
HETATM    9  N   UNL     1       6.398  29.966  56.350  1.00  0.00    -0.301 N 
HETATM   10  C   UNL     1       6.210  28.731  55.824  1.00  0.00     0.321 C 
HETATM   11  N   UNL     1       5.977  27.699  56.688  1.00  0.00    -0.341 N 
HETATM   12  O   UNL     1       6.161  28.611  54.602  1.00  0.00    -0.247 OA
HETATM   13  H   UNL     1       5.657  27.993  57.598  1.00  0.00     0.164 HD
HETATM   14  H   UNL     1       6.233  30.676  55.643  1.00  0.00     0.171 HD
BRANCH  11  15
HETATM   15  C   UNL     1       5.359  26.483  56.177  1.00  0.00     0.151 C 
BRANCH  15  16
HETATM   16  C   UNL     1       6.038  25.188  56.620  1.00  0.00     0.195 C 
BRANCH  16  17
HETATM   17  O   UNL     1       7.292  25.138  55.936  1.00  0.00    -0.350 OA
BRANCH  17  18
HETATM   18  C   UNL     1       7.539  24.098  55.089  1.00  0.00     0.068 A 
HETATM   19  C   UNL     1       7.608  22.852  55.718  1.00  0.00     0.037 A 
HETATM   20  C   UNL     1       7.842  21.689  54.980  1.00  0.00     0.009 A 
HETATM   21  C   UNL     1       8.015  21.760  53.597  1.00  0.00    -0.062 A 
HETATM   22  C   UNL     1       8.237  20.516  52.788  1.00  0.00     0.048 C 
HETATM   23  C   UNL     1       7.940  23.009  52.968  1.00  0.00     0.009 A 
HETATM   24  C   UNL     1       7.709  24.175  53.710  1.00  0.00     0.037 A 
ENDBRANCH  17  18
ENDBRANCH  16  17
ENDBRANCH  15  16
ENDBRANCH  11  15
ENDBRANCH   1   9
BRANCH   4  25
HETATM   25  S   UNL     1       4.628  33.408  60.685  1.00  0.00     0.285 S 
HETATM   26  O   UNL     1       4.608  34.343  59.575  1.00  0.00    -0.198 OA
HETATM   27  O   UNL     1       3.546  32.467  60.895  1.00  0.00    -0.198 OA
BRANCH  25  28
HETATM   28  C   UNL     1       4.680  34.401  62.167  1.00  0.00     0.081 A 
HETATM   29  C   UNL     1       3.954  34.000  63.293  1.00  0.00     0.025 A 
HETATM   30  C   UNL     1       4.012  34.765  64.457  1.00  0.00     0.002 A 
HETATM   31  C   UNL     1       4.788  35.925  64.491  1.00  0.00     0.000 A 
HETATM   32  C   UNL     1       5.508  36.324  63.361  1.00  0.00     0.002 A 
HETATM   33  C   UNL     1       5.456  35.563  62.193  1.00  0.00     0.025 A 
ENDBRANCH  25  28
ENDBRANCH   4  25
TORSDOF 7
ENDMDL
MODEL 10
REMARK VINA RESULT:      -8.7      3.128     11.378
REMARK  7 active torsions:
REMARK  status: ('A' for Active; 'I' for Inactive)
REMARK    1  A    between atoms: C_5  and  O_6 
REMARK    2  A    between atoms: O_6  and  C_7 
REMARK    3  A    between atoms: C_7  and  C_8 
REMARK    4  A    between atoms: C_8  and  N_9 
REMARK       I    between atoms: N_9  and  C_10 
REMARK       I    between atoms: C_10  and  N_11 
REMARK    5  A    between atoms: N_11  and  C_12 
REMARK    6  A    between atoms: N_15  and  S_16 
REMARK    7  A    between atoms: S_16  and  C_17 
ROOT
HETATM    1  C   UNL     1       7.115  31.370  58.630  1.00  0.00     0.103 A 
HETATM    2  S   UNL     1       7.204  31.384  60.382  1.00  0.00    -0.032 SA
HETATM    3  C   UNL     1       5.666  32.267  60.510  1.00  0.00     0.185 A 
HETATM    4  N   UNL     1       5.036  32.626  61.575  1.00  0.00    -0.134 NA
HETATM    5  N   UNL     1       5.231  32.499  59.226  1.00  0.00    -0.336 N 
HETATM    6  C   UNL     1       5.997  31.978  58.187  1.00  0.00     0.041 A 
HETATM    7  C   UNL     1       5.444  32.027  56.800  1.00  0.00     0.071 C 
HETATM    8  H   UNL     1       4.312  32.883  59.054  1.00  0.00     0.168 HD
ENDROOT
BRANCH   1   9
HETATM    9  N   UNL     1       8.128  30.709  58.017  1.00  0.00    -0.301 N 
HETATM   10  C   UNL     1       8.456  29.410  57.812  1.00  0.00     0.321 C 
HETATM   11  N   UNL     1       7.496  28.466  58.039  1.00  0.00    -0.341 N 
HETATM   12  O   UNL     1       9.562  29.147  57.344  1.00  0.00    -0.247 OA
HETATM   13  H   UNL     1       6.555  28.831  58.032  1.00  0.00     0.164 HD
HETATM   14  H   UNL     1       8.773  31.314  57.520  1.00  0.00     0.171 HD
BRANCH  11  15
HETATM   15  C   UNL     1       7.652  27.147  57.440  1.00  0.00     0.151 C 
BRANCH  15  16
HETATM   16  C   UNL     1       6.558  26.764  56.445  1.00  0.00     0.195 C 
BRANCH  16  17
HETATM   17  O   UNL     1       7.216  26.513  55.202  1.00  0.00    -0.350 OA
BRANCH  17  18
HETATM   18  C   UNL     1       7.364  25.224  54.783  1.00  0.00     0.068 A 
HETATM   19  C   UNL     1       7.767  25.097  53.451  1.00  0.00     0.037 A 
HETATM   20  C   UNL     1       7.975  23.839  52.881  1.00  0.00     0.009 A 
HETATM   21  C   UNL     1       7.776  22.685  53.641  1.00  0.00    -0.062 A 
HETATM   22  C   UNL     1       8.025  21.328  53.051  1.00  0.00     0.048 C 
HETATM   23  C   UNL     1       7.378  22.814  54.977  1.00  0.00     0.009 A 
HETATM   24  C   UNL     1       7.166  24.077  55.546  1.00  0.00     0.037 A 
ENDBRANCH  17  18
ENDBRANCH  16  17
ENDBRANCH  15  16
ENDBRANCH  11  15
ENDBRANCH   1   9
BRANCH   4  25
HETATM   25  S   UNL     1       5.660  32.296  63.033  1.00  0.00     0.285 S 
HETATM   26  O   UNL     1       5.197  30.988  63.459  1.00  0.00    -0.198 OA
HETATM   27  O   UNL     1       7.069  32.635  63.045  1.00  0.00    -0.198 OA
BRANCH  25  28
HETATM   28  C   UNL     1       4.884  33.475  64.126  1.00  0.00     0.081 A 
HETATM   29  C   UNL     1       3.823  34.256  63.657  1.00  0.00     0.025 A 
HETATM   30  C   UNL     1       3.204  35.162  64.518  1.00  0.00     0.002 A 
HETATM   31  C   UNL     1       3.648  35.286  65.836  1.00  0.00     0.000 A 
HETATM   32  C   UNL     1       4.712  34.506  66.297  1.00  0.00     0.002 A 
HETATM   33  C   UNL     1       5.335  33.597  65.443  1.00  0.00     0.025 A 
ENDBRANCH  25  28
ENDBRANCH   4  25
TORSDOF 7
ENDMDL
