MODEL 1
REMARK VINA RESULT:      -9.3      0.000      0.000
REMARK  2 active torsions:
REMARK  status: ('A' for Active; 'I' for Inactive)
REMARK    1  A    between atoms: C_9  and  C_11 
REMARK    2  A    between atoms: C_9  and  O_10 
ROOT
HETATM    1  C   UNL     1      10.616  29.484  56.893  1.00  0.00     0.048 C 
HETATM    2  C   UNL     1       9.201  29.009  57.054  1.00  0.00    -0.061 A 
HETATM    3  C   UNL     1       8.876  27.660  56.846  1.00  0.00     0.020 A 
HETATM    4  C   UNL     1       7.551  27.266  56.975  1.00  0.00     0.018 A 
HETATM    5  C   UNL     1       6.572  28.197  57.321  1.00  0.00     0.045 A 
HETATM    6  N   UNL     1       5.332  27.584  57.417  1.00  0.00    -0.323 N 
HETATM    7  C   UNL     1       5.411  26.219  57.132  1.00  0.00     0.266 A 
HETATM    8  O   UNL     1       4.456  25.457  57.169  1.00  0.00    -0.269 OA
HETATM    9  C   UNL     1       6.921  25.894  56.834  1.00  0.00     0.199 A 
HETATM   10  C   UNL     1       6.856  29.529  57.529  1.00  0.00     0.031 A 
HETATM   11  C   UNL     1       8.187  29.934  57.388  1.00  0.00     0.009 A 
HETATM   12  H   UNL     1       4.463  28.039  57.652  1.00  0.00     0.169 HD
ENDROOT
BRANCH   9  13
HETATM   13  C   UNL     1       7.191  25.446  55.412  1.00  0.00     0.025 A 
HETATM   14  C   UNL     1       7.586  24.113  55.008  1.00  0.00     0.003 A 
HETATM   15  C   UNL     1       7.776  24.122  53.627  1.00  0.00     0.043 A 
HETATM   16  C   UNL     1       7.815  22.897  55.692  1.00  0.00     0.014 A 
HETATM   17  C   UNL     1       8.182  22.993  52.902  1.00  0.00     0.030 A 
HETATM   18  N   UNL     1       7.492  25.388  53.191  1.00  0.00    -0.359 N 
HETATM   19  C   UNL     1       8.403  21.810  53.608  1.00  0.00     0.002 A 
HETATM   20  C   UNL     1       8.220  21.759  54.985  1.00  0.00     0.001 A 
HETATM   21  H   UNL     1       7.540  25.677  52.224  1.00  0.00     0.166 HD
HETATM   22  C   UNL     1       7.158  26.207  54.241  1.00  0.00     0.016 A 
HETATM   23  C   UNL     1       6.846  27.641  53.993  1.00  0.00     0.069 C 
ENDBRANCH   9  13
BRANCH   9  24
HETATM   24  O   UNL     1       7.447  25.025  57.831  1.00  0.00    -0.371 OA
HETATM   25  H   UNL     1       8.320  24.740  57.515  1.00  0.00     0.212 HD
ENDBRANCH   9  24
TORSDOF 2
ENDMDL
MODEL 2
REMARK VINA RESULT:      -9.0     10.143     12.806
REMARK  2 active torsions:
REMARK  status: ('A' for Active; 'I' for Inactive)
REMARK    1  A    between atoms: C_9  and  C_11 
REMARK    2  A    between atoms: C_9  and  O_10 
ROOT
HETATM    1  C   UNL     1       6.301  39.774  63.659  1.00  0.00     0.048 C 
HETATM    2  C   UNL     1       5.330  38.667  63.363  1.00  0.00    -0.061 A 
HETATM    3  C   UNL     1       5.168  37.604  64.264  1.00  0.00     0.020 A 
HETATM    4  C   UNL     1       4.284  36.584  63.940  1.00  0.00     0.018 A 
HETATM    5  C   UNL     1       3.564  36.632  62.746  1.00  0.00     0.045 A 
HETATM    6  N   UNL     1       2.729  35.531  62.639  1.00  0.00    -0.323 N 
HETATM    7  C   UNL     1       2.851  34.685  63.744  1.00  0.00     0.266 A 
HETATM    8  O   UNL     1       2.204  33.658  63.893  1.00  0.00    -0.269 OA
HETATM    9  C   UNL     1       3.894  35.344  64.719  1.00  0.00     0.199 A 
HETATM   10  C   UNL     1       3.702  37.659  61.837  1.00  0.00     0.031 A 
HETATM   11  C   UNL     1       4.601  38.682  62.153  1.00  0.00     0.009 A 
HETATM   12  H   UNL     1       2.106  35.332  61.870  1.00  0.00     0.169 HD
ENDROOT
BRANCH   9  13
HETATM   13  C   UNL     1       5.166  34.540  64.903  1.00  0.00     0.025 A 
HETATM   14  C   UNL     1       5.956  33.956  63.840  1.00  0.00     0.003 A 
HETATM   15  C   UNL     1       7.016  33.265  64.424  1.00  0.00     0.043 A 
HETATM   16  C   UNL     1       5.861  33.937  62.431  1.00  0.00     0.014 A 
HETATM   17  C   UNL     1       7.975  32.561  63.682  1.00  0.00     0.030 A 
HETATM   18  N   UNL     1       6.905  33.429  65.779  1.00  0.00    -0.359 N 
HETATM   19  C   UNL     1       7.850  32.560  62.292  1.00  0.00     0.002 A 
HETATM   20  C   UNL     1       6.808  33.241  61.671  1.00  0.00     0.001 A 
HETATM   21  H   UNL     1       7.551  33.038  66.451  1.00  0.00     0.166 HD
HETATM   22  C   UNL     1       5.795  34.172  66.095  1.00  0.00     0.016 A 
HETATM   23  C   UNL     1       5.464  34.442  67.521  1.00  0.00     0.069 C 
ENDBRANCH   9  13
BRANCH   9  24
HETATM   24  O   UNL     1       3.262  35.726  65.937  1.00  0.00    -0.371 OA
HETATM   25  H   UNL     1       3.344  34.968  66.539  1.00  0.00     0.212 HD
ENDBRANCH   9  24
TORSDOF 2
ENDMDL
MODEL 3
REMARK VINA RESULT:      -8.9      1.090      2.503
REMARK  2 active torsions:
REMARK  status: ('A' for Active; 'I' for Inactive)
REMARK    1  A    between atoms: C_9  and  C_11 
REMARK    2  A    between atoms: C_9  and  O_10 
ROOT
HETATM    1  C   UNL     1      10.290  29.683  56.872  1.00  0.00     0.048 C 
HETATM    2  C   UNL     1       8.918  29.090  57.015  1.00  0.00    -0.061 A 
HETATM    3  C   UNL     1       8.729  27.703  56.921  1.00  0.00     0.020 A 
HETATM    4  C   UNL     1       7.440  27.197  57.027  1.00  0.00     0.018 A 
HETATM    5  C   UNL     1       6.363  28.058  57.240  1.00  0.00     0.045 A 
HETATM    6  N   UNL     1       5.181  27.340  57.338  1.00  0.00    -0.323 N 
HETATM    7  C   UNL     1       5.400  25.968  57.187  1.00  0.00     0.266 A 
HETATM    8  O   UNL     1       4.518  25.124  57.254  1.00  0.00    -0.269 OA
HETATM    9  C   UNL     1       6.947  25.764  56.989  1.00  0.00     0.199 A 
HETATM   10  C   UNL     1       6.513  29.424  57.334  1.00  0.00     0.031 A 
HETATM   11  C   UNL     1       7.807  29.940  57.214  1.00  0.00     0.009 A 
HETATM   12  H   UNL     1       4.263  27.728  57.490  1.00  0.00     0.169 HD
ENDROOT
BRANCH   9  13
HETATM   13  C   UNL     1       7.332  25.218  55.628  1.00  0.00     0.025 A 
HETATM   14  C   UNL     1       6.852  25.711  54.355  1.00  0.00     0.003 A 
HETATM   15  C   UNL     1       7.406  24.917  53.351  1.00  0.00     0.043 A 
HETATM   16  C   UNL     1       5.981  26.751  53.959  1.00  0.00     0.014 A 
HETATM   17  C   UNL     1       7.137  25.105  51.989  1.00  0.00     0.030 A 
HETATM   18  N   UNL     1       8.208  23.993  53.967  1.00  0.00    -0.359 N 
HETATM   19  C   UNL     1       6.271  26.140  51.633  1.00  0.00     0.002 A 
HETATM   20  C   UNL     1       5.700  26.956  52.603  1.00  0.00     0.001 A 
HETATM   21  H   UNL     1       8.743  23.292  53.474  1.00  0.00     0.166 HD
HETATM   22  C   UNL     1       8.167  24.138  55.331  1.00  0.00     0.016 A 
HETATM   23  C   UNL     1       8.942  23.209  56.199  1.00  0.00     0.069 C 
ENDBRANCH   9  13
BRANCH   9  24
HETATM   24  O   UNL     1       7.497  25.042  58.086  1.00  0.00    -0.371 OA
HETATM   25  H   UNL     1       7.609  24.126  57.784  1.00  0.00     0.212 HD
ENDBRANCH   9  24
TORSDOF 2
ENDMDL
MODEL 4
REMARK VINA RESULT:      -8.5      8.217     10.792
REMARK  2 active torsions:
REMARK  status: ('A' for Active; 'I' for Inactive)
REMARK    1  A    between atoms: C_9  and  C_11 
REMARK    2  A    between atoms: C_9  and  O_10 
ROOT
HETATM    1  C   UNL     1       9.084  31.715  61.987  1.00  0.00     0.048 C 
HETATM    2  C   UNL     1       7.838  32.232  62.646  1.00  0.00    -0.061 A 
HETATM    3  C   UNL     1       6.595  32.117  62.005  1.00  0.00     0.020 A 
HETATM    4  C   UNL     1       5.471  32.635  62.634  1.00  0.00     0.018 A 
HETATM    5  C   UNL     1       5.582  33.241  63.885  1.00  0.00     0.045 A 
HETATM    6  N   UNL     1       4.340  33.662  64.333  1.00  0.00    -0.323 N 
HETATM    7  C   UNL     1       3.335  33.371  63.406  1.00  0.00     0.266 A 
HETATM    8  O   UNL     1       2.152  33.625  63.579  1.00  0.00    -0.269 OA
HETATM    9  C   UNL     1       4.019  32.633  62.197  1.00  0.00     0.199 A 
HETATM   10  C   UNL     1       6.788  33.373  64.540  1.00  0.00     0.031 A 
HETATM   11  C   UNL     1       7.925  32.865  63.906  1.00  0.00     0.009 A 
HETATM   12  H   UNL     1       4.151  34.129  65.207  1.00  0.00     0.169 HD
ENDROOT
BRANCH   9  13
HETATM   13  C   UNL     1       3.967  33.401  60.891  1.00  0.00     0.025 A 
HETATM   14  C   UNL     1       4.100  34.835  60.750  1.00  0.00     0.003 A 
HETATM   15  C   UNL     1       3.953  35.149  59.400  1.00  0.00     0.043 A 
HETATM   16  C   UNL     1       4.318  35.904  61.649  1.00  0.00     0.014 A 
HETATM   17  C   UNL     1       4.008  36.460  58.907  1.00  0.00     0.030 A 
HETATM   18  N   UNL     1       3.761  33.969  58.732  1.00  0.00    -0.359 N 
HETATM   19  C   UNL     1       4.221  37.492  59.822  1.00  0.00     0.002 A 
HETATM   20  C   UNL     1       4.377  37.220  61.177  1.00  0.00     0.001 A 
HETATM   21  H   UNL     1       3.633  33.900  57.732  1.00  0.00     0.166 HD
HETATM   22  C   UNL     1       3.746  32.908  59.603  1.00  0.00     0.016 A 
HETATM   23  C   UNL     1       3.514  31.530  59.089  1.00  0.00     0.069 C 
ENDBRANCH   9  13
BRANCH   9  24
HETATM   24  O   UNL     1       3.551  31.292  62.106  1.00  0.00    -0.371 OA
HETATM   25  H   UNL     1       2.971  31.255  61.328  1.00  0.00     0.212 HD
ENDBRANCH   9  24
TORSDOF 2
ENDMDL
MODEL 5
REMARK VINA RESULT:      -8.4      7.782      9.690
REMARK  2 active torsions:
REMARK  status: ('A' for Active; 'I' for Inactive)
REMARK    1  A    between atoms: C_9  and  C_11 
REMARK    2  A    between atoms: C_9  and  O_10 
ROOT
HETATM    1  C   UNL     1       9.027  31.597  61.965  1.00  0.00     0.048 C 
HETATM    2  C   UNL     1       7.791  32.151  62.613  1.00  0.00    -0.061 A 
HETATM    3  C   UNL     1       6.545  32.041  61.977  1.00  0.00     0.020 A 
HETATM    4  C   UNL     1       5.431  32.594  62.595  1.00  0.00     0.018 A 
HETATM    5  C   UNL     1       5.556  33.228  63.831  1.00  0.00     0.045 A 
HETATM    6  N   UNL     1       4.321  33.681  64.270  1.00  0.00    -0.323 N 
HETATM    7  C   UNL     1       3.310  33.385  63.352  1.00  0.00     0.266 A 
HETATM    8  O   UNL     1       2.132  33.663  63.521  1.00  0.00    -0.269 OA
HETATM    9  C   UNL     1       3.979  32.606  62.160  1.00  0.00     0.199 A 
HETATM   10  C   UNL     1       6.764  33.356  64.480  1.00  0.00     0.031 A 
HETATM   11  C   UNL     1       7.891  32.813  63.857  1.00  0.00     0.009 A 
HETATM   12  H   UNL     1       4.143  34.172  65.133  1.00  0.00     0.169 HD
ENDROOT
BRANCH   9  13
HETATM   13  C   UNL     1       3.937  33.343  60.836  1.00  0.00     0.025 A 
HETATM   14  C   UNL     1       3.784  32.729  59.534  1.00  0.00     0.003 A 
HETATM   15  C   UNL     1       3.837  33.739  58.575  1.00  0.00     0.043 A 
HETATM   16  C   UNL     1       3.619  31.402  59.078  1.00  0.00     0.014 A 
HETATM   17  C   UNL     1       3.739  33.495  57.198  1.00  0.00     0.030 A 
HETATM   18  N   UNL     1       3.993  34.922  59.246  1.00  0.00    -0.359 N 
HETATM   19  C   UNL     1       3.581  32.173  56.781  1.00  0.00     0.002 A 
HETATM   20  C   UNL     1       3.519  31.137  57.707  1.00  0.00     0.001 A 
HETATM   21  H   UNL     1       4.053  35.824  58.795  1.00  0.00     0.166 HD
HETATM   22  C   UNL     1       4.074  34.713  60.601  1.00  0.00     0.016 A 
HETATM   23  C   UNL     1       4.281  35.866  61.518  1.00  0.00     0.069 C 
ENDBRANCH   9  13
BRANCH   9  24
HETATM   24  O   UNL     1       3.488  31.271  62.103  1.00  0.00    -0.371 OA
HETATM   25  H   UNL     1       2.967  31.134  62.911  1.00  0.00     0.212 HD
ENDBRANCH   9  24
TORSDOF 2
ENDMDL
MODEL 6
REMARK VINA RESULT:      -8.3      7.847     10.531
REMARK  2 active torsions:
REMARK  status: ('A' for Active; 'I' for Inactive)
REMARK    1  A    between atoms: C_9  and  C_11 
REMARK    2  A    between atoms: C_9  and  O_10 
ROOT
HETATM    1  C   UNL     1       5.769  38.520  61.984  1.00  0.00     0.048 C 
HETATM    2  C   UNL     1       5.123  37.195  61.696  1.00  0.00    -0.061 A 
HETATM    3  C   UNL     1       5.326  36.104  62.554  1.00  0.00     0.020 A 
HETATM    4  C   UNL     1       4.738  34.887  62.236  1.00  0.00     0.018 A 
HETATM    5  C   UNL     1       3.948  34.767  61.092  1.00  0.00     0.045 A 
HETATM    6  N   UNL     1       3.445  33.479  60.983  1.00  0.00    -0.323 N 
HETATM    7  C   UNL     1       3.875  32.670  62.038  1.00  0.00     0.266 A 
HETATM    8  O   UNL     1       3.550  31.500  62.177  1.00  0.00    -0.269 OA
HETATM    9  C   UNL     1       4.763  33.565  62.978  1.00  0.00     0.199 A 
HETATM   10  C   UNL     1       3.732  35.817  60.226  1.00  0.00     0.031 A 
HETATM   11  C   UNL     1       4.333  37.040  60.535  1.00  0.00     0.009 A 
HETATM   12  H   UNL     1       2.848  33.137  60.246  1.00  0.00     0.169 HD
ENDROOT
BRANCH   9  13
HETATM   13  C   UNL     1       6.217  33.143  63.045  1.00  0.00     0.025 A 
HETATM   14  C   UNL     1       6.974  32.549  61.964  1.00  0.00     0.003 A 
HETATM   15  C   UNL     1       8.254  32.269  62.440  1.00  0.00     0.043 A 
HETATM   16  C   UNL     1       6.686  32.205  60.624  1.00  0.00     0.014 A 
HETATM   17  C   UNL     1       9.250  31.669  61.657  1.00  0.00     0.030 A 
HETATM   18  N   UNL     1       8.299  32.689  63.743  1.00  0.00    -0.359 N 
HETATM   19  C   UNL     1       8.931  31.340  60.339  1.00  0.00     0.002 A 
HETATM   20  C   UNL     1       7.666  31.606  59.825  1.00  0.00     0.001 A 
HETATM   21  H   UNL     1       9.116  32.616  64.332  1.00  0.00     0.166 HD
HETATM   22  C   UNL     1       7.087  33.200  64.137  1.00  0.00     0.016 A 
HETATM   23  C   UNL     1       6.905  33.683  65.533  1.00  0.00     0.069 C 
ENDBRANCH   9  13
BRANCH   9  24
HETATM   24  O   UNL     1       4.139  33.721  64.248  1.00  0.00    -0.371 OA
HETATM   25  H   UNL     1       4.629  34.420  64.712  1.00  0.00     0.212 HD
ENDBRANCH   9  24
TORSDOF 2
ENDMDL
MODEL 7
REMARK VINA RESULT:      -8.3      9.557     13.145
REMARK  2 active torsions:
REMARK  status: ('A' for Active; 'I' for Inactive)
REMARK    1  A    between atoms: C_9  and  C_11 
REMARK    2  A    between atoms: C_9  and  O_10 
ROOT
HETATM    1  C   UNL     1       7.763  32.293  61.353  1.00  0.00     0.048 C 
HETATM    2  C   UNL     1       7.128  32.854  62.593  1.00  0.00    -0.061 A 
HETATM    3  C   UNL     1       5.818  33.355  62.556  1.00  0.00     0.020 A 
HETATM    4  C   UNL     1       5.278  33.895  63.716  1.00  0.00     0.018 A 
HETATM    5  C   UNL     1       6.026  33.917  64.894  1.00  0.00     0.045 A 
HETATM    6  N   UNL     1       5.287  34.474  65.926  1.00  0.00    -0.323 N 
HETATM    7  C   UNL     1       4.015  34.861  65.496  1.00  0.00     0.266 A 
HETATM    8  O   UNL     1       3.170  35.359  66.226  1.00  0.00    -0.269 OA
HETATM    9  C   UNL     1       3.903  34.478  63.975  1.00  0.00     0.199 A 
HETATM   10  C   UNL     1       7.315  33.437  64.963  1.00  0.00     0.031 A 
HETATM   11  C   UNL     1       7.868  32.905  63.795  1.00  0.00     0.009 A 
HETATM   12  H   UNL     1       5.600  34.605  66.876  1.00  0.00     0.169 HD
ENDROOT
BRANCH   9  13
HETATM   13  C   UNL     1       3.763  35.665  63.044  1.00  0.00     0.025 A 
HETATM   14  C   UNL     1       4.498  36.908  63.145  1.00  0.00     0.003 A 
HETATM   15  C   UNL     1       4.051  37.755  62.132  1.00  0.00     0.043 A 
HETATM   16  C   UNL     1       5.495  37.402  64.016  1.00  0.00     0.014 A 
HETATM   17  C   UNL     1       4.540  39.055  61.948  1.00  0.00     0.030 A 
HETATM   18  N   UNL     1       3.103  37.067  61.423  1.00  0.00    -0.359 N 
HETATM   19  C   UNL     1       5.522  39.513  62.827  1.00  0.00     0.002 A 
HETATM   20  C   UNL     1       5.997  38.697  63.849  1.00  0.00     0.001 A 
HETATM   21  H   UNL     1       2.615  37.441  60.621  1.00  0.00     0.166 HD
HETATM   22  C   UNL     1       2.897  35.820  61.958  1.00  0.00     0.016 A 
HETATM   23  C   UNL     1       1.878  34.914  61.360  1.00  0.00     0.069 C 
ENDBRANCH   9  13
BRANCH   9  24
HETATM   24  O   UNL     1       2.916  33.469  63.789  1.00  0.00    -0.371 OA
HETATM   25  H   UNL     1       2.429  33.403  64.627  1.00  0.00     0.212 HD
ENDBRANCH   9  24
TORSDOF 2
ENDMDL
MODEL 8
REMARK VINA RESULT:      -8.3      2.164      4.840
REMARK  2 active torsions:
REMARK  status: ('A' for Active; 'I' for Inactive)
REMARK    1  A    between atoms: C_9  and  C_11 
REMARK    2  A    between atoms: C_9  and  O_10 
ROOT
HETATM    1  C   UNL     1       8.001  21.620  53.033  1.00  0.00     0.048 C 
HETATM    2  C   UNL     1       8.028  22.610  54.161  1.00  0.00    -0.061 A 
HETATM    3  C   UNL     1       7.068  23.630  54.234  1.00  0.00     0.020 A 
HETATM    4  C   UNL     1       7.146  24.546  55.275  1.00  0.00     0.018 A 
HETATM    5  C   UNL     1       8.153  24.434  56.234  1.00  0.00     0.045 A 
HETATM    6  N   UNL     1       8.026  25.432  57.189  1.00  0.00    -0.323 N 
HETATM    7  C   UNL     1       6.939  26.267  56.917  1.00  0.00     0.266 A 
HETATM    8  O   UNL     1       6.608  27.208  57.623  1.00  0.00    -0.269 OA
HETATM    9  C   UNL     1       6.247  25.718  55.616  1.00  0.00     0.199 A 
HETATM   10  C   UNL     1       9.113  23.447  56.190  1.00  0.00     0.031 A 
HETATM   11  C   UNL     1       9.047  22.531  55.136  1.00  0.00     0.009 A 
HETATM   12  H   UNL     1       8.629  25.570  57.985  1.00  0.00     0.169 HD
ENDROOT
BRANCH   9  13
HETATM   13  C   UNL     1       6.312  26.662  54.432  1.00  0.00     0.025 A 
HETATM   14  C   UNL     1       5.742  26.415  53.124  1.00  0.00     0.003 A 
HETATM   15  C   UNL     1       6.055  27.501  52.308  1.00  0.00     0.043 A 
HETATM   16  C   UNL     1       4.998  25.359  52.550  1.00  0.00     0.014 A 
HETATM   17  C   UNL     1       5.671  27.585  50.963  1.00  0.00     0.030 A 
HETATM   18  N   UNL     1       6.764  28.388  53.074  1.00  0.00    -0.359 N 
HETATM   19  C   UNL     1       4.941  26.524  50.426  1.00  0.00     0.002 A 
HETATM   20  C   UNL     1       4.605  25.425  51.208  1.00  0.00     0.001 A 
HETATM   21  H   UNL     1       7.113  29.274  52.736  1.00  0.00     0.166 HD
HETATM   22  C   UNL     1       6.949  27.902  54.345  1.00  0.00     0.016 A 
HETATM   23  C   UNL     1       7.727  28.694  55.336  1.00  0.00     0.069 C 
ENDBRANCH   9  13
BRANCH   9  24
HETATM   24  O   UNL     1       4.938  25.243  55.913  1.00  0.00    -0.371 OA
HETATM   25  H   UNL     1       4.414  25.353  55.103  1.00  0.00     0.212 HD
ENDBRANCH   9  24
TORSDOF 2
ENDMDL
MODEL 9
REMARK VINA RESULT:      -8.3      8.504     11.747
REMARK  2 active torsions:
REMARK  status: ('A' for Active; 'I' for Inactive)
REMARK    1  A    between atoms: C_9  and  C_11 
REMARK    2  A    between atoms: C_9  and  O_10 
ROOT
HETATM    1  C   UNL     1       8.958  32.068  59.962  1.00  0.00     0.048 C 
HETATM    2  C   UNL     1       8.110  32.351  61.168  1.00  0.00    -0.061 A 
HETATM    3  C   UNL     1       6.786  32.790  61.020  1.00  0.00     0.020 A 
HETATM    4  C   UNL     1       6.045  33.072  62.160  1.00  0.00     0.018 A 
HETATM    5  C   UNL     1       6.610  32.902  63.424  1.00  0.00     0.045 A 
HETATM    6  N   UNL     1       5.690  33.216  64.412  1.00  0.00    -0.323 N 
HETATM    7  C   UNL     1       4.469  33.620  63.866  1.00  0.00     0.266 A 
HETATM    8  O   UNL     1       3.492  33.929  64.533  1.00  0.00    -0.269 OA
HETATM    9  C   UNL     1       4.608  33.531  62.302  1.00  0.00     0.199 A 
HETATM   10  C   UNL     1       7.908  32.476  63.605  1.00  0.00     0.031 A 
HETATM   11  C   UNL     1       8.662  32.204  62.460  1.00  0.00     0.009 A 
HETATM   12  H   UNL     1       5.851  33.176  65.407  1.00  0.00     0.169 HD
ENDROOT
BRANCH   9  13
HETATM   13  C   UNL     1       4.516  34.868  61.593  1.00  0.00     0.025 A 
HETATM   14  C   UNL     1       5.013  36.128  62.103  1.00  0.00     0.003 A 
HETATM   15  C   UNL     1       4.697  37.120  61.176  1.00  0.00     0.043 A 
HETATM   16  C   UNL     1       5.690  36.524  63.279  1.00  0.00     0.014 A 
HETATM   17  C   UNL     1       5.017  38.472  61.361  1.00  0.00     0.030 A 
HETATM   18  N   UNL     1       4.058  36.506  60.132  1.00  0.00    -0.359 N 
HETATM   19  C   UNL     1       5.683  38.830  62.534  1.00  0.00     0.002 A 
HETATM   20  C   UNL     1       6.019  37.870  63.482  1.00  0.00     0.001 A 
HETATM   21  H   UNL     1       3.723  36.990  59.311  1.00  0.00     0.166 HD
HETATM   22  C   UNL     1       3.920  35.160  60.365  1.00  0.00     0.016 A 
HETATM   23  C   UNL     1       3.218  34.304  59.369  1.00  0.00     0.069 C 
ENDBRANCH   9  13
BRANCH   9  24
HETATM   24  O   UNL     1       3.735  32.533  61.783  1.00  0.00    -0.371 OA
HETATM   25  H   UNL     1       4.140  32.216  60.958  1.00  0.00     0.212 HD
ENDBRANCH   9  24
TORSDOF 2
ENDMDL
MODEL 10
REMARK VINA RESULT:      -8.1      1.599      5.042
REMARK  2 active torsions:
REMARK  status: ('A' for Active; 'I' for Inactive)
REMARK    1  A    between atoms: C_9  and  C_11 
REMARK    2  A    between atoms: C_9  and  O_10 
ROOT
HETATM    1  C   UNL     1       9.100  21.927  53.238  1.00  0.00     0.048 C 
HETATM    2  C   UNL     1       8.310  22.573  54.339  1.00  0.00    -0.061 A 
HETATM    3  C   UNL     1       7.515  23.698  54.078  1.00  0.00     0.020 A 
HETATM    4  C   UNL     1       6.825  24.286  55.130  1.00  0.00     0.018 A 
HETATM    5  C   UNL     1       6.914  23.749  56.414  1.00  0.00     0.045 A 
HETATM    6  N   UNL     1       6.130  24.474  57.298  1.00  0.00    -0.323 N 
HETATM    7  C   UNL     1       5.484  25.536  56.659  1.00  0.00     0.266 A 
HETATM    8  O   UNL     1       4.722  26.309  57.220  1.00  0.00    -0.269 OA
HETATM    9  C   UNL     1       5.886  25.476  55.140  1.00  0.00     0.199 A 
HETATM   10  C   UNL     1       7.688  22.647  56.706  1.00  0.00     0.031 A 
HETATM   11  C   UNL     1       8.395  22.060  55.653  1.00  0.00     0.009 A 
HETATM   12  H   UNL     1       6.023  24.290  58.284  1.00  0.00     0.169 HD
ENDROOT
BRANCH   9  13
HETATM   13  C   UNL     1       6.700  26.663  54.665  1.00  0.00     0.025 A 
HETATM   14  C   UNL     1       7.648  27.409  55.464  1.00  0.00     0.003 A 
HETATM   15  C   UNL     1       8.151  28.445  54.678  1.00  0.00     0.043 A 
HETATM   16  C   UNL     1       8.118  27.311  56.794  1.00  0.00     0.014 A 
HETATM   17  C   UNL     1       9.085  29.379  55.146  1.00  0.00     0.030 A 
HETATM   18  N   UNL     1       7.563  28.336  53.446  1.00  0.00    -0.359 N 
HETATM   19  C   UNL     1       9.526  29.256  56.464  1.00  0.00     0.002 A 
HETATM   20  C   UNL     1       9.051  28.234  57.280  1.00  0.00     0.001 A 
HETATM   21  H   UNL     1       7.753  28.957  52.672  1.00  0.00     0.166 HD
HETATM   22  C   UNL     1       6.676  27.288  53.416  1.00  0.00     0.016 A 
HETATM   23  C   UNL     1       5.897  27.011  52.178  1.00  0.00     0.069 C 
ENDBRANCH   9  13
BRANCH   9  24
HETATM   24  O   UNL     1       4.746  25.189  54.336  1.00  0.00    -0.371 OA
HETATM   25  H   UNL     1       4.110  24.736  54.913  1.00  0.00     0.212 HD
ENDBRANCH   9  24
TORSDOF 2
ENDMDL
