MODEL 1
REMARK VINA RESULT:     -10.0      0.000      0.000
REMARK  7 active torsions:
REMARK  status: ('A' for Active; 'I' for Inactive)
REMARK    1  A    between atoms: C_3  and  N_4 
REMARK       I    between atoms: N_4  and  C_5 
REMARK    2  A    between atoms: C_5  and  C_6 
REMARK    3  A    between atoms: C_7  and  C_8 
REMARK    4  A    between atoms: C_19  and  C_20 
REMARK    5  A    between atoms: C_20  and  C_21 
REMARK    6  A    between atoms: C_21  and  C_22 
REMARK    7  A    between atoms: C_22  and  O_23 
ROOT
HETATM    1  C   UNL     1       6.406  26.219  55.783  1.00  0.00     0.062 C 
HETATM    2  C   UNL     1       6.592  27.388  56.758  1.00  0.00     0.202 C 
HETATM    3  N   UNL     1       5.432  28.288  56.722  1.00  0.00    -0.083 N 
HETATM    4  C   UNL     1       4.486  28.270  55.734  1.00  0.00     0.726 A 
HETATM    5  N   UNL     1       4.529  27.303  54.800  1.00  0.00    -0.192 N 
HETATM    6  N   UNL     1       5.222  29.302  57.587  1.00  0.00    -0.140 NA
HETATM    7  C   UNL     1       4.163  29.898  57.021  1.00  0.00     0.166 A 
HETATM    8  N   UNL     1       3.678  29.287  55.884  1.00  0.00    -0.046 NA
HETATM    9  C   UNL     1       5.442  26.254  54.824  1.00  0.00     0.037 C 
HETATM   10  C   UNL     1       5.291  25.248  53.709  1.00  0.00     0.070 C 
HETATM   11  H   UNL     1       3.818  27.298  54.073  1.00  0.00     0.184 HD
ENDROOT
BRANCH   1  12
HETATM   12  C   UNL     1       7.374  25.094  55.973  1.00  0.00     0.256 C 
HETATM   13  N   UNL     1       6.899  23.870  55.564  1.00  0.00    -0.323 N 
HETATM   14  H   UNL     1       5.895  23.792  55.475  1.00  0.00     0.169 HD
HETATM   15  O   UNL     1       8.417  25.289  56.583  1.00  0.00    -0.267 OA
BRANCH  13  16
HETATM   16  C   UNL     1       7.615  22.660  55.405  1.00  0.00     0.041 A 
HETATM   17  C   UNL     1       8.063  22.108  54.189  1.00  0.00    -0.035 A 
HETATM   18  C   UNL     1       7.807  22.692  52.827  1.00  0.00     0.050 C 
HETATM   19  C   UNL     1       8.774  20.889  54.218  1.00  0.00     0.009 A 
HETATM   20  C   UNL     1       8.989  20.199  55.409  1.00  0.00     0.001 A 
HETATM   21  C   UNL     1       8.496  20.714  56.597  1.00  0.00     0.002 A 
HETATM   22  C   UNL     1       7.813  21.931  56.593  1.00  0.00     0.030 A 
ENDBRANCH  13  16
ENDBRANCH   1  12
BRANCH   2  23
HETATM   23  C   UNL     1       7.853  28.212  56.492  1.00  0.00    -0.025 A 
HETATM   24  C   UNL     1       8.645  28.708  57.543  1.00  0.00     0.052 A 
HETATM   25  C   UNL     1       9.792  29.446  57.265  1.00  0.00     0.117 A 
HETATM   26  F   UNL     1      10.534  29.911  58.278  1.00  0.00    -0.206 F 
HETATM   27  C   UNL     1      10.179  29.706  55.958  1.00  0.00     0.042 A 
HETATM   28  C   UNL     1       9.408  29.218  54.905  1.00  0.00     0.004 A 
HETATM   29  C   UNL     1       8.254  28.475  55.170  1.00  0.00     0.010 A 
ENDBRANCH   2  23
BRANCH   7  30
HETATM   30  C   UNL     1       3.616  31.195  57.491  1.00  0.00     0.085 C 
BRANCH  30  31
HETATM   31  C   UNL     1       4.242  31.658  58.810  1.00  0.00     0.034 C 
BRANCH  31  32
HETATM   32  C   UNL     1       3.306  31.614  60.016  1.00  0.00     0.164 C 
BRANCH  32  33
HETATM   33  O   UNL     1       2.701  30.336  60.155  1.00  0.00    -0.401 OA
HETATM   34  H   UNL     1       3.343  29.687  59.800  1.00  0.00     0.209 HD
ENDBRANCH  32  33
ENDBRANCH  31  32
ENDBRANCH  30  31
ENDBRANCH   7  30
TORSDOF 7
ENDMDL
MODEL 2
REMARK VINA RESULT:      -9.8      1.860      2.710
REMARK  7 active torsions:
REMARK  status: ('A' for Active; 'I' for Inactive)
REMARK    1  A    between atoms: C_3  and  N_4 
REMARK       I    between atoms: N_4  and  C_5 
REMARK    2  A    between atoms: C_5  and  C_6 
REMARK    3  A    between atoms: C_7  and  C_8 
REMARK    4  A    between atoms: C_19  and  C_20 
REMARK    5  A    between atoms: C_20  and  C_21 
REMARK    6  A    between atoms: C_21  and  C_22 
REMARK    7  A    between atoms: C_22  and  O_23 
ROOT
HETATM    1  C   UNL     1       5.035  27.099  53.755  1.00  0.00     0.062 C 
HETATM    2  C   UNL     1       4.932  27.730  55.149  1.00  0.00     0.202 C 
HETATM    3  N   UNL     1       4.220  29.013  55.090  1.00  0.00    -0.083 N 
HETATM    4  C   UNL     1       3.982  29.697  53.930  1.00  0.00     0.726 A 
HETATM    5  N   UNL     1       4.295  29.126  52.753  1.00  0.00    -0.192 N 
HETATM    6  N   UNL     1       3.820  29.717  56.169  1.00  0.00    -0.140 NA
HETATM    7  C   UNL     1       3.405  30.851  55.588  1.00  0.00     0.166 A 
HETATM    8  N   UNL     1       3.482  30.873  54.211  1.00  0.00    -0.046 NA
HETATM    9  C   UNL     1       4.778  27.828  52.636  1.00  0.00     0.037 C 
HETATM   10  C   UNL     1       5.023  27.361  51.222  1.00  0.00     0.070 C 
HETATM   11  H   UNL     1       4.109  29.644  51.898  1.00  0.00     0.184 HD
ENDROOT
BRANCH   1  12
HETATM   12  C   UNL     1       5.457  25.663  53.755  1.00  0.00     0.256 C 
HETATM   13  N   UNL     1       6.819  25.478  53.727  1.00  0.00    -0.323 N 
HETATM   14  H   UNL     1       7.366  26.267  53.409  1.00  0.00     0.169 HD
HETATM   15  O   UNL     1       4.614  24.785  53.637  1.00  0.00    -0.267 OA
BRANCH  13  16
HETATM   16  C   UNL     1       7.547  24.282  53.933  1.00  0.00     0.041 A 
HETATM   17  C   UNL     1       8.168  23.877  55.131  1.00  0.00    -0.035 A 
HETATM   18  C   UNL     1       8.208  24.683  56.401  1.00  0.00     0.050 C 
HETATM   19  C   UNL     1       8.847  22.641  55.159  1.00  0.00     0.009 A 
HETATM   20  C   UNL     1       8.966  21.848  54.019  1.00  0.00     0.001 A 
HETATM   21  C   UNL     1       8.405  22.277  52.826  1.00  0.00     0.002 A 
HETATM   22  C   UNL     1       7.706  23.484  52.784  1.00  0.00     0.030 A 
ENDBRANCH  13  16
ENDBRANCH   1  12
BRANCH   2  23
HETATM   23  C   UNL     1       6.288  27.958  55.819  1.00  0.00    -0.025 A 
HETATM   24  C   UNL     1       7.358  28.561  55.134  1.00  0.00     0.052 A 
HETATM   25  C   UNL     1       8.575  28.763  55.777  1.00  0.00     0.117 A 
HETATM   26  F   UNL     1       9.583  29.338  55.109  1.00  0.00    -0.206 F 
HETATM   27  C   UNL     1       8.761  28.381  57.099  1.00  0.00     0.042 A 
HETATM   28  C   UNL     1       7.710  27.786  57.794  1.00  0.00     0.004 A 
HETATM   29  C   UNL     1       6.482  27.577  57.160  1.00  0.00     0.010 A 
ENDBRANCH   2  23
BRANCH   7  30
HETATM   30  C   UNL     1       3.010  32.058  56.355  1.00  0.00     0.085 C 
BRANCH  30  31
HETATM   31  C   UNL     1       3.966  32.362  57.513  1.00  0.00     0.034 C 
BRANCH  31  32
HETATM   32  C   UNL     1       3.454  31.950  58.893  1.00  0.00     0.164 C 
BRANCH  32  33
HETATM   33  O   UNL     1       3.451  30.539  59.044  1.00  0.00    -0.401 OA
HETATM   34  H   UNL     1       2.948  30.349  59.862  1.00  0.00     0.209 HD
ENDBRANCH  32  33
ENDBRANCH  31  32
ENDBRANCH  30  31
ENDBRANCH   7  30
TORSDOF 7
ENDMDL
MODEL 3
REMARK VINA RESULT:      -9.7      3.044      8.147
REMARK  7 active torsions:
REMARK  status: ('A' for Active; 'I' for Inactive)
REMARK    1  A    between atoms: C_3  and  N_4 
REMARK       I    between atoms: N_4  and  C_5 
REMARK    2  A    between atoms: C_5  and  C_6 
REMARK    3  A    between atoms: C_7  and  C_8 
REMARK    4  A    between atoms: C_19  and  C_20 
REMARK    5  A    between atoms: C_20  and  C_21 
REMARK    6  A    between atoms: C_21  and  C_22 
REMARK    7  A    between atoms: C_22  and  O_23 
ROOT
HETATM    1  C   UNL     1       6.457  26.579  56.446  1.00  0.00     0.062 C 
HETATM    2  C   UNL     1       6.200  25.233  55.757  1.00  0.00     0.202 C 
HETATM    3  N   UNL     1       7.131  24.209  56.249  1.00  0.00    -0.083 N 
HETATM    4  C   UNL     1       8.265  24.491  56.960  1.00  0.00     0.726 A 
HETATM    5  N   UNL     1       8.498  25.756  57.352  1.00  0.00    -0.192 N 
HETATM    6  N   UNL     1       7.041  22.893  55.965  1.00  0.00    -0.140 NA
HETATM    7  C   UNL     1       8.194  22.446  56.483  1.00  0.00     0.166 A 
HETATM    8  N   UNL     1       8.969  23.399  57.110  1.00  0.00    -0.046 NA
HETATM    9  C   UNL     1       7.602  26.799  57.147  1.00  0.00     0.037 C 
HETATM   10  C   UNL     1       8.033  28.133  57.706  1.00  0.00     0.070 C 
HETATM   11  H   UNL     1       9.343  25.952  57.883  1.00  0.00     0.184 HD
ENDROOT
BRANCH   1  12
HETATM   12  C   UNL     1       5.373  27.591  56.251  1.00  0.00     0.256 C 
HETATM   13  N   UNL     1       5.719  28.631  55.419  1.00  0.00    -0.323 N 
HETATM   14  H   UNL     1       6.710  28.775  55.280  1.00  0.00     0.169 HD
HETATM   15  O   UNL     1       4.350  27.520  56.919  1.00  0.00    -0.267 OA
BRANCH  13  16
HETATM   16  C   UNL     1       4.879  29.623  54.860  1.00  0.00     0.041 A 
HETATM   17  C   UNL     1       4.173  29.532  53.645  1.00  0.00    -0.035 A 
HETATM   18  C   UNL     1       4.232  28.368  52.694  1.00  0.00     0.050 C 
HETATM   19  C   UNL     1       3.371  30.621  53.242  1.00  0.00     0.009 A 
HETATM   20  C   UNL     1       3.312  31.797  53.987  1.00  0.00     0.001 A 
HETATM   21  C   UNL     1       4.054  31.907  55.152  1.00  0.00     0.002 A 
HETATM   22  C   UNL     1       4.833  30.832  55.581  1.00  0.00     0.030 A 
ENDBRANCH  13  16
ENDBRANCH   1  12
BRANCH   2  23
HETATM   23  C   UNL     1       6.308  25.295  54.232  1.00  0.00    -0.025 A 
HETATM   24  C   UNL     1       5.232  24.934  53.402  1.00  0.00     0.052 A 
HETATM   25  C   UNL     1       5.361  25.012  52.018  1.00  0.00     0.117 A 
HETATM   26  F   UNL     1       4.327  24.664  51.243  1.00  0.00    -0.206 F 
HETATM   27  C   UNL     1       6.542  25.445  51.430  1.00  0.00     0.042 A 
HETATM   28  C   UNL     1       7.616  25.810  52.239  1.00  0.00     0.004 A 
HETATM   29  C   UNL     1       7.500  25.738  53.630  1.00  0.00     0.010 A 
ENDBRANCH   2  23
BRANCH   7  30
HETATM   30  C   UNL     1       8.684  21.058  56.295  1.00  0.00     0.085 C 
BRANCH  30  31
HETATM   31  C   UNL     1       8.064  20.373  55.073  1.00  0.00     0.034 C 
BRANCH  31  32
HETATM   32  C   UNL     1       8.766  20.667  53.748  1.00  0.00     0.164 C 
BRANCH  32  33
HETATM   33  O   UNL     1       8.156  19.967  52.673  1.00  0.00    -0.401 OA
HETATM   34  H   UNL     1       8.327  19.016  52.830  1.00  0.00     0.209 HD
ENDBRANCH  32  33
ENDBRANCH  31  32
ENDBRANCH  30  31
ENDBRANCH   7  30
TORSDOF 7
ENDMDL
MODEL 4
REMARK VINA RESULT:      -9.5      3.417      8.329
REMARK  7 active torsions:
REMARK  status: ('A' for Active; 'I' for Inactive)
REMARK    1  A    between atoms: C_3  and  N_4 
REMARK       I    between atoms: N_4  and  C_5 
REMARK    2  A    between atoms: C_5  and  C_6 
REMARK    3  A    between atoms: C_7  and  C_8 
REMARK    4  A    between atoms: C_19  and  C_20 
REMARK    5  A    between atoms: C_20  and  C_21 
REMARK    6  A    between atoms: C_21  and  C_22 
REMARK    7  A    between atoms: C_22  and  O_23 
ROOT
HETATM    1  C   UNL     1       7.498  30.009  58.043  1.00  0.00     0.062 C 
HETATM    2  C   UNL     1       6.216  29.214  57.767  1.00  0.00     0.202 C 
HETATM    3  N   UNL     1       6.521  27.959  57.066  1.00  0.00    -0.083 N 
HETATM    4  C   UNL     1       7.718  27.699  56.460  1.00  0.00     0.726 A 
HETATM    5  N   UNL     1       8.732  28.570  56.605  1.00  0.00    -0.192 N 
HETATM    6  N   UNL     1       5.629  26.971  56.842  1.00  0.00    -0.140 NA
HETATM    7  C   UNL     1       6.340  26.171  56.035  1.00  0.00     0.166 A 
HETATM    8  N   UNL     1       7.632  26.582  55.783  1.00  0.00    -0.046 NA
HETATM    9  C   UNL     1       8.664  29.698  57.415  1.00  0.00     0.037 C 
HETATM   10  C   UNL     1       9.928  30.520  57.477  1.00  0.00     0.070 C 
HETATM   11  H   UNL     1       9.619  28.363  56.152  1.00  0.00     0.184 HD
ENDROOT
BRANCH   1  12
HETATM   12  C   UNL     1       7.332  31.132  59.018  1.00  0.00     0.256 C 
HETATM   13  N   UNL     1       7.262  30.729  60.331  1.00  0.00    -0.323 N 
HETATM   14  H   UNL     1       7.026  29.758  60.484  1.00  0.00     0.169 HD
HETATM   15  O   UNL     1       7.129  32.266  58.607  1.00  0.00    -0.267 OA
BRANCH  13  16
HETATM   16  C   UNL     1       7.321  31.528  61.498  1.00  0.00     0.041 A 
HETATM   17  C   UNL     1       8.487  32.037  62.104  1.00  0.00    -0.035 A 
HETATM   18  C   UNL     1       9.892  31.771  61.638  1.00  0.00     0.050 C 
HETATM   19  C   UNL     1       8.358  32.828  63.265  1.00  0.00     0.009 A 
HETATM   20  C   UNL     1       7.117  33.064  63.853  1.00  0.00     0.001 A 
HETATM   21  C   UNL     1       5.977  32.513  63.288  1.00  0.00     0.002 A 
HETATM   22  C   UNL     1       6.080  31.749  62.125  1.00  0.00     0.030 A 
ENDBRANCH  13  16
ENDBRANCH   1  12
BRANCH   2  23
HETATM   23  C   UNL     1       5.181  29.987  56.948  1.00  0.00    -0.025 A 
HETATM   24  C   UNL     1       5.342  30.201  55.567  1.00  0.00     0.052 A 
HETATM   25  C   UNL     1       4.376  30.900  54.851  1.00  0.00     0.117 A 
HETATM   26  F   UNL     1       4.546  31.093  53.537  1.00  0.00    -0.206 F 
HETATM   27  C   UNL     1       3.239  31.397  55.474  1.00  0.00     0.042 A 
HETATM   28  C   UNL     1       3.062  31.191  56.840  1.00  0.00     0.004 A 
HETATM   29  C   UNL     1       4.025  30.490  57.573  1.00  0.00     0.010 A 
ENDBRANCH   2  23
BRANCH   7  30
HETATM   30  C   UNL     1       5.759  24.993  55.345  1.00  0.00     0.085 C 
BRANCH  30  31
HETATM   31  C   UNL     1       6.348  24.776  53.948  1.00  0.00     0.034 C 
BRANCH  31  32
HETATM   32  C   UNL     1       5.350  24.923  52.801  1.00  0.00     0.164 C 
BRANCH  32  33
HETATM   33  O   UNL     1       4.026  25.096  53.285  1.00  0.00    -0.401 OA
HETATM   34  H   UNL     1       3.914  24.455  54.018  1.00  0.00     0.209 HD
ENDBRANCH  32  33
ENDBRANCH  31  32
ENDBRANCH  30  31
ENDBRANCH   7  30
TORSDOF 7
ENDMDL
MODEL 5
REMARK VINA RESULT:      -9.4      2.459      3.362
REMARK  7 active torsions:
REMARK  status: ('A' for Active; 'I' for Inactive)
REMARK    1  A    between atoms: C_3  and  N_4 
REMARK       I    between atoms: N_4  and  C_5 
REMARK    2  A    between atoms: C_5  and  C_6 
REMARK    3  A    between atoms: C_7  and  C_8 
REMARK    4  A    between atoms: C_19  and  C_20 
REMARK    5  A    between atoms: C_20  and  C_21 
REMARK    6  A    between atoms: C_21  and  C_22 
REMARK    7  A    between atoms: C_22  and  O_23 
ROOT
HETATM    1  C   UNL     1       4.912  26.875  52.905  1.00  0.00     0.062 C 
HETATM    2  C   UNL     1       4.662  27.766  54.128  1.00  0.00     0.202 C 
HETATM    3  N   UNL     1       4.137  29.076  53.721  1.00  0.00    -0.083 N 
HETATM    4  C   UNL     1       4.180  29.546  52.438  1.00  0.00     0.726 A 
HETATM    5  N   UNL     1       4.607  28.735  51.454  1.00  0.00    -0.192 N 
HETATM    6  N   UNL     1       3.657  30.007  54.572  1.00  0.00    -0.140 NA
HETATM    7  C   UNL     1       3.489  31.044  53.739  1.00  0.00     0.166 A 
HETATM    8  N   UNL     1       3.793  30.796  52.417  1.00  0.00    -0.046 NA
HETATM    9  C   UNL     1       4.936  27.399  51.651  1.00  0.00     0.037 C 
HETATM   10  C   UNL     1       5.347  26.650  50.406  1.00  0.00     0.070 C 
HETATM   11  H   UNL     1       4.630  29.096  50.503  1.00  0.00     0.184 HD
ENDROOT
BRANCH   1  12
HETATM   12  C   UNL     1       5.143  25.432  53.228  1.00  0.00     0.256 C 
HETATM   13  N   UNL     1       6.470  25.086  53.330  1.00  0.00    -0.323 N 
HETATM   14  H   UNL     1       7.127  25.719  52.894  1.00  0.00     0.169 HD
HETATM   15  O   UNL     1       4.199  24.654  53.237  1.00  0.00    -0.267 OA
BRANCH  13  16
HETATM   16  C   UNL     1       7.027  23.883  53.825  1.00  0.00     0.041 A 
HETATM   17  C   UNL     1       7.169  23.523  55.179  1.00  0.00    -0.035 A 
HETATM   18  C   UNL     1       6.795  24.391  56.350  1.00  0.00     0.050 C 
HETATM   19  C   UNL     1       7.742  22.272  55.493  1.00  0.00     0.009 A 
HETATM   20  C   UNL     1       8.220  21.419  54.499  1.00  0.00     0.001 A 
HETATM   21  C   UNL     1       8.133  21.802  53.170  1.00  0.00     0.002 A 
HETATM   22  C   UNL     1       7.546  23.023  52.838  1.00  0.00     0.030 A 
ENDBRANCH  13  16
ENDBRANCH   1  12
BRANCH   2  23
HETATM   23  C   UNL     1       5.908  27.989  54.988  1.00  0.00    -0.025 A 
HETATM   24  C   UNL     1       7.120  28.430  54.429  1.00  0.00     0.052 A 
HETATM   25  C   UNL     1       8.231  28.633  55.242  1.00  0.00     0.117 A 
HETATM   26  F   UNL     1       9.378  29.053  54.692  1.00  0.00    -0.206 F 
HETATM   27  C   UNL     1       8.170  28.409  56.611  1.00  0.00     0.042 A 
HETATM   28  C   UNL     1       6.975  27.976  57.181  1.00  0.00     0.004 A 
HETATM   29  C   UNL     1       5.851  27.769  56.376  1.00  0.00     0.010 A 
ENDBRANCH   2  23
BRANCH   7  30
HETATM   30  C   UNL     1       3.129  32.406  54.203  1.00  0.00     0.085 C 
BRANCH  30  31
HETATM   31  C   UNL     1       2.485  32.407  55.593  1.00  0.00     0.034 C 
BRANCH  31  32
HETATM   32  C   UNL     1       3.417  32.814  56.733  1.00  0.00     0.164 C 
BRANCH  32  33
HETATM   33  O   UNL     1       4.237  31.730  57.143  1.00  0.00    -0.401 OA
HETATM   34  H   UNL     1       4.933  32.112  57.717  1.00  0.00     0.209 HD
ENDBRANCH  32  33
ENDBRANCH  31  32
ENDBRANCH  30  31
ENDBRANCH   7  30
TORSDOF 7
ENDMDL
MODEL 6
REMARK VINA RESULT:      -9.4      3.553      7.432
REMARK  7 active torsions:
REMARK  status: ('A' for Active; 'I' for Inactive)
REMARK    1  A    between atoms: C_3  and  N_4 
REMARK       I    between atoms: N_4  and  C_5 
REMARK    2  A    between atoms: C_5  and  C_6 
REMARK    3  A    between atoms: C_7  and  C_8 
REMARK    4  A    between atoms: C_19  and  C_20 
REMARK    5  A    between atoms: C_20  and  C_21 
REMARK    6  A    between atoms: C_21  and  C_22 
REMARK    7  A    between atoms: C_22  and  O_23 
ROOT
HETATM    1  C   UNL     1       6.000  27.911  54.723  1.00  0.00     0.062 C 
HETATM    2  C   UNL     1       6.546  27.414  53.379  1.00  0.00     0.202 C 
HETATM    3  N   UNL     1       5.559  27.611  52.309  1.00  0.00    -0.083 N 
HETATM    4  C   UNL     1       4.239  27.886  52.534  1.00  0.00     0.726 A 
HETATM    5  N   UNL     1       3.820  28.116  53.792  1.00  0.00    -0.192 N 
HETATM    6  N   UNL     1       5.809  27.437  50.994  1.00  0.00    -0.140 NA
HETATM    7  C   UNL     1       4.575  27.558  50.487  1.00  0.00     0.166 A 
HETATM    8  N   UNL     1       3.584  27.842  51.403  1.00  0.00    -0.046 NA
HETATM    9  C   UNL     1       4.676  28.175  54.886  1.00  0.00     0.037 C 
HETATM   10  C   UNL     1       4.011  28.492  56.203  1.00  0.00     0.070 C 
HETATM   11  H   UNL     1       2.836  28.323  53.946  1.00  0.00     0.184 HD
ENDROOT
BRANCH   1  12
HETATM   12  C   UNL     1       7.031  28.044  55.798  1.00  0.00     0.256 C 
HETATM   13  N   UNL     1       7.861  29.131  55.649  1.00  0.00    -0.323 N 
HETATM   14  H   UNL     1       7.901  29.532  54.722  1.00  0.00     0.169 HD
HETATM   15  O   UNL     1       7.168  27.149  56.621  1.00  0.00    -0.267 OA
BRANCH  13  16
HETATM   16  C   UNL     1       8.784  29.664  56.579  1.00  0.00     0.041 A 
HETATM   17  C   UNL     1       8.470  30.329  57.781  1.00  0.00    -0.035 A 
HETATM   18  C   UNL     1       7.079  30.636  58.263  1.00  0.00     0.050 C 
HETATM   19  C   UNL     1       9.525  30.790  58.598  1.00  0.00     0.009 A 
HETATM   20  C   UNL     1      10.857  30.654  58.213  1.00  0.00     0.001 A 
HETATM   21  C   UNL     1      11.162  30.053  57.001  1.00  0.00     0.002 A 
HETATM   22  C   UNL     1      10.134  29.567  56.192  1.00  0.00     0.030 A 
ENDBRANCH  13  16
ENDBRANCH   1  12
BRANCH   2  23
HETATM   23  C   UNL     1       6.958  25.940  53.392  1.00  0.00    -0.025 A 
HETATM   24  C   UNL     1       6.618  25.089  54.459  1.00  0.00     0.052 A 
HETATM   25  C   UNL     1       7.000  23.751  54.434  1.00  0.00     0.117 A 
HETATM   26  F   UNL     1       6.668  22.956  55.459  1.00  0.00    -0.206 F 
HETATM   27  C   UNL     1       7.716  23.228  53.366  1.00  0.00     0.042 A 
HETATM   28  C   UNL     1       8.057  24.057  52.299  1.00  0.00     0.004 A 
HETATM   29  C   UNL     1       7.679  25.403  52.310  1.00  0.00     0.010 A 
ENDBRANCH   2  23
BRANCH   7  30
HETATM   30  C   UNL     1       4.252  27.282  49.065  1.00  0.00     0.085 C 
BRANCH  30  31
HETATM   31  C   UNL     1       4.224  25.785  48.745  1.00  0.00     0.034 C 
BRANCH  31  32
HETATM   32  C   UNL     1       2.965  25.306  48.024  1.00  0.00     0.164 C 
BRANCH  32  33
HETATM   33  O   UNL     1       2.729  23.925  48.257  1.00  0.00    -0.401 OA
HETATM   34  H   UNL     1       2.755  23.799  49.228  1.00  0.00     0.209 HD
ENDBRANCH  32  33
ENDBRANCH  31  32
ENDBRANCH  30  31
ENDBRANCH   7  30
TORSDOF 7
ENDMDL
MODEL 7
REMARK VINA RESULT:      -9.2      5.807      7.682
REMARK  7 active torsions:
REMARK  status: ('A' for Active; 'I' for Inactive)
REMARK    1  A    between atoms: C_3  and  N_4 
REMARK       I    between atoms: N_4  and  C_5 
REMARK    2  A    between atoms: C_5  and  C_6 
REMARK    3  A    between atoms: C_7  and  C_8 
REMARK    4  A    between atoms: C_19  and  C_20 
REMARK    5  A    between atoms: C_20  and  C_21 
REMARK    6  A    between atoms: C_21  and  C_22 
REMARK    7  A    between atoms: C_22  and  O_23 
ROOT
HETATM    1  C   UNL     1       5.095  27.804  52.174  1.00  0.00     0.062 C 
HETATM    2  C   UNL     1       5.360  28.100  50.692  1.00  0.00     0.202 C 
HETATM    3  N   UNL     1       5.527  29.542  50.470  1.00  0.00    -0.083 N 
HETATM    4  C   UNL     1       5.171  30.498  51.381  1.00  0.00     0.726 A 
HETATM    5  N   UNL     1       4.759  30.120  52.604  1.00  0.00    -0.192 N 
HETATM    6  N   UNL     1       5.942  30.095  49.311  1.00  0.00    -0.140 NA
HETATM    7  C   UNL     1       5.750  31.395  49.572  1.00  0.00     0.166 A 
HETATM    8  N   UNL     1       5.284  31.683  50.837  1.00  0.00    -0.046 NA
HETATM    9  C   UNL     1       4.751  28.798  53.035  1.00  0.00     0.037 C 
HETATM   10  C   UNL     1       4.297  28.593  54.460  1.00  0.00     0.070 C 
HETATM   11  H   UNL     1       4.501  30.841  53.273  1.00  0.00     0.184 HD
ENDROOT
BRANCH   1  12
HETATM   12  C   UNL     1       5.224  26.362  52.549  1.00  0.00     0.256 C 
HETATM   13  N   UNL     1       6.508  25.973  52.852  1.00  0.00    -0.323 N 
HETATM   14  H   UNL     1       7.244  26.575  52.508  1.00  0.00     0.169 HD
HETATM   15  O   UNL     1       4.261  25.616  52.429  1.00  0.00    -0.267 OA
BRANCH  13  16
HETATM   16  C   UNL     1       6.943  24.762  53.441  1.00  0.00     0.041 A 
HETATM   17  C   UNL     1       6.789  24.388  54.791  1.00  0.00    -0.035 A 
HETATM   18  C   UNL     1       6.175  25.246  55.863  1.00  0.00     0.050 C 
HETATM   19  C   UNL     1       7.278  23.131  55.206  1.00  0.00     0.009 A 
HETATM   20  C   UNL     1       7.956  22.286  54.330  1.00  0.00     0.001 A 
HETATM   21  C   UNL     1       8.158  22.683  53.016  1.00  0.00     0.002 A 
HETATM   22  C   UNL     1       7.659  23.910  52.580  1.00  0.00     0.030 A 
ENDBRANCH  13  16
ENDBRANCH   1  12
BRANCH   2  23
HETATM   23  C   UNL     1       4.259  27.590  49.760  1.00  0.00    -0.025 A 
HETATM   24  C   UNL     1       4.413  26.409  49.013  1.00  0.00     0.052 A 
HETATM   25  C   UNL     1       3.387  25.968  48.183  1.00  0.00     0.117 A 
HETATM   26  F   UNL     1       3.551  24.841  47.479  1.00  0.00    -0.206 F 
HETATM   27  C   UNL     1       2.198  26.676  48.073  1.00  0.00     0.042 A 
HETATM   28  C   UNL     1       2.027  27.846  48.809  1.00  0.00     0.004 A 
HETATM   29  C   UNL     1       3.049  28.300  49.648  1.00  0.00     0.010 A 
ENDBRANCH   2  23
BRANCH   7  30
HETATM   30  C   UNL     1       5.895  32.458  48.546  1.00  0.00     0.085 C 
BRANCH  30  31
HETATM   31  C   UNL     1       4.695  32.533  47.598  1.00  0.00     0.034 C 
BRANCH  31  32
HETATM   32  C   UNL     1       4.823  31.689  46.331  1.00  0.00     0.164 C 
BRANCH  32  33
HETATM   33  O   UNL     1       4.449  30.340  46.568  1.00  0.00    -0.401 OA
HETATM   34  H   UNL     1       4.609  30.172  47.520  1.00  0.00     0.209 HD
ENDBRANCH  32  33
ENDBRANCH  31  32
ENDBRANCH  30  31
ENDBRANCH   7  30
TORSDOF 7
ENDMDL
MODEL 8
REMARK VINA RESULT:      -9.2      3.478      8.347
REMARK  7 active torsions:
REMARK  status: ('A' for Active; 'I' for Inactive)
REMARK    1  A    between atoms: C_3  and  N_4 
REMARK       I    between atoms: N_4  and  C_5 
REMARK    2  A    between atoms: C_5  and  C_6 
REMARK    3  A    between atoms: C_7  and  C_8 
REMARK    4  A    between atoms: C_19  and  C_20 
REMARK    5  A    between atoms: C_20  and  C_21 
REMARK    6  A    between atoms: C_21  and  C_22 
REMARK    7  A    between atoms: C_22  and  O_23 
ROOT
HETATM    1  C   UNL     1       8.104  30.144  58.316  1.00  0.00     0.062 C 
HETATM    2  C   UNL     1       6.739  29.474  58.119  1.00  0.00     0.202 C 
HETATM    3  N   UNL     1       6.888  28.168  57.463  1.00  0.00    -0.083 N 
HETATM    4  C   UNL     1       8.029  27.763  56.828  1.00  0.00     0.726 A 
HETATM    5  N   UNL     1       9.130  28.531  56.899  1.00  0.00    -0.192 N 
HETATM    6  N   UNL     1       5.893  27.268  57.314  1.00  0.00    -0.140 NA
HETATM    7  C   UNL     1       6.488  26.368  56.519  1.00  0.00     0.166 A 
HETATM    8  N   UNL     1       7.805  26.635  56.204  1.00  0.00    -0.046 NA
HETATM    9  C   UNL     1       9.207  29.691  57.662  1.00  0.00     0.037 C 
HETATM   10  C   UNL     1      10.549  30.382  57.644  1.00  0.00     0.070 C 
HETATM   11  H   UNL     1       9.973  28.216  56.426  1.00  0.00     0.184 HD
ENDROOT
BRANCH   1  12
HETATM   12  C   UNL     1       8.089  31.316  59.246  1.00  0.00     0.256 C 
HETATM   13  N   UNL     1       7.205  31.192  60.292  1.00  0.00    -0.323 N 
HETATM   14  H   UNL     1       6.468  30.510  60.169  1.00  0.00     0.169 HD
HETATM   15  O   UNL     1       8.719  32.325  58.959  1.00  0.00    -0.267 OA
BRANCH  13  16
HETATM   16  C   UNL     1       7.094  32.000  61.448  1.00  0.00     0.041 A 
HETATM   17  C   UNL     1       6.155  33.029  61.661  1.00  0.00    -0.035 A 
HETATM   18  C   UNL     1       5.129  33.486  60.660  1.00  0.00     0.050 C 
HETATM   19  C   UNL     1       6.183  33.730  62.885  1.00  0.00     0.009 A 
HETATM   20  C   UNL     1       7.149  33.468  63.854  1.00  0.00     0.001 A 
HETATM   21  C   UNL     1       8.108  32.495  63.617  1.00  0.00     0.002 A 
HETATM   22  C   UNL     1       8.082  31.772  62.424  1.00  0.00     0.030 A 
ENDBRANCH  13  16
ENDBRANCH   1  12
BRANCH   2  23
HETATM   23  C   UNL     1       5.755  30.316  57.303  1.00  0.00    -0.025 A 
HETATM   24  C   UNL     1       4.845  31.192  57.921  1.00  0.00     0.052 A 
HETATM   25  C   UNL     1       3.972  31.951  57.148  1.00  0.00     0.117 A 
HETATM   26  F   UNL     1       3.111  32.780  57.754  1.00  0.00    -0.206 F 
HETATM   27  C   UNL     1       3.978  31.864  55.762  1.00  0.00     0.042 A 
HETATM   28  C   UNL     1       4.877  31.004  55.135  1.00  0.00     0.004 A 
HETATM   29  C   UNL     1       5.760  30.236  55.899  1.00  0.00     0.010 A 
ENDBRANCH   2  23
BRANCH   7  30
HETATM   30  C   UNL     1       5.766  25.229  55.901  1.00  0.00     0.085 C 
BRANCH  30  31
HETATM   31  C   UNL     1       5.771  25.285  54.370  1.00  0.00     0.034 C 
BRANCH  31  32
HETATM   32  C   UNL     1       5.171  26.556  53.772  1.00  0.00     0.164 C 
BRANCH  32  33
HETATM   33  O   UNL     1       3.862  26.326  53.274  1.00  0.00    -0.401 OA
HETATM   34  H   UNL     1       3.898  25.482  52.779  1.00  0.00     0.209 HD
ENDBRANCH  32  33
ENDBRANCH  31  32
ENDBRANCH  30  31
ENDBRANCH   7  30
TORSDOF 7
ENDMDL
MODEL 9
REMARK VINA RESULT:      -9.1      3.305      8.697
REMARK  7 active torsions:
REMARK  status: ('A' for Active; 'I' for Inactive)
REMARK    1  A    between atoms: C_3  and  N_4 
REMARK       I    between atoms: N_4  and  C_5 
REMARK    2  A    between atoms: C_5  and  C_6 
REMARK    3  A    between atoms: C_7  and  C_8 
REMARK    4  A    between atoms: C_19  and  C_20 
REMARK    5  A    between atoms: C_20  and  C_21 
REMARK    6  A    between atoms: C_21  and  C_22 
REMARK    7  A    between atoms: C_22  and  O_23 
ROOT
HETATM    1  C   UNL     1       7.758  30.107  58.331  1.00  0.00     0.062 C 
HETATM    2  C   UNL     1       6.584  29.156  58.068  1.00  0.00     0.202 C 
HETATM    3  N   UNL     1       7.056  27.892  57.488  1.00  0.00    -0.083 N 
HETATM    4  C   UNL     1       8.304  27.719  56.957  1.00  0.00     0.726 A 
HETATM    5  N   UNL     1       9.211  28.706  57.071  1.00  0.00    -0.192 N 
HETATM    6  N   UNL     1       6.288  26.797  57.311  1.00  0.00    -0.140 NA
HETATM    7  C   UNL     1       7.121  26.020  56.604  1.00  0.00     0.166 A 
HETATM    8  N   UNL     1       8.373  26.550  56.373  1.00  0.00    -0.046 NA
HETATM    9  C   UNL     1       8.980  29.880  57.780  1.00  0.00     0.037 C 
HETATM   10  C   UNL     1      10.145  30.839  57.826  1.00  0.00     0.070 C 
HETATM   11  H   UNL     1      10.137  28.564  56.674  1.00  0.00     0.184 HD
ENDROOT
BRANCH   1  12
HETATM   12  C   UNL     1       7.423  31.278  59.200  1.00  0.00     0.256 C 
HETATM   13  N   UNL     1       7.159  30.948  60.509  1.00  0.00    -0.323 N 
HETATM   14  H   UNL     1       6.919  29.981  60.681  1.00  0.00     0.169 HD
HETATM   15  O   UNL     1       7.266  32.382  58.697  1.00  0.00    -0.267 OA
BRANCH  13  16
HETATM   16  C   UNL     1       7.022  31.811  61.622  1.00  0.00     0.041 A 
HETATM   17  C   UNL     1       5.900  32.606  61.930  1.00  0.00    -0.035 A 
HETATM   18  C   UNL     1       4.658  32.713  61.089  1.00  0.00     0.050 C 
HETATM   19  C   UNL     1       5.933  33.405  63.092  1.00  0.00     0.009 A 
HETATM   20  C   UNL     1       7.066  33.469  63.901  1.00  0.00     0.001 A 
HETATM   21  C   UNL     1       8.191  32.732  63.563  1.00  0.00     0.002 A 
HETATM   22  C   UNL     1       8.168  31.915  62.432  1.00  0.00     0.030 A 
ENDBRANCH  13  16
ENDBRANCH   1  12
BRANCH   2  23
HETATM   23  C   UNL     1       5.515  29.744  57.145  1.00  0.00    -0.025 A 
HETATM   24  C   UNL     1       5.660  29.729  55.746  1.00  0.00     0.052 A 
HETATM   25  C   UNL     1       4.662  30.263  54.935  1.00  0.00     0.117 A 
HETATM   26  F   UNL     1       4.817  30.241  53.606  1.00  0.00    -0.206 F 
HETATM   27  C   UNL     1       3.512  30.815  55.482  1.00  0.00     0.042 A 
HETATM   28  C   UNL     1       3.351  30.834  56.865  1.00  0.00     0.004 A 
HETATM   29  C   UNL     1       4.344  30.301  57.692  1.00  0.00     0.010 A 
ENDBRANCH   2  23
BRANCH   7  30
HETATM   30  C   UNL     1       6.706  24.734  55.991  1.00  0.00     0.085 C 
BRANCH  30  31
HETATM   31  C   UNL     1       7.808  24.104  55.134  1.00  0.00     0.034 C 
BRANCH  31  32
HETATM   32  C   UNL     1       7.314  23.118  54.077  1.00  0.00     0.164 C 
BRANCH  32  33
HETATM   33  O   UNL     1       8.391  22.390  53.505  1.00  0.00    -0.401 OA
HETATM   34  H   UNL     1       8.450  22.673  52.569  1.00  0.00     0.209 HD
ENDBRANCH  32  33
ENDBRANCH  31  32
ENDBRANCH  30  31
ENDBRANCH   7  30
TORSDOF 7
ENDMDL
MODEL 10
REMARK VINA RESULT:      -8.9      5.473     11.425
REMARK  7 active torsions:
REMARK  status: ('A' for Active; 'I' for Inactive)
REMARK    1  A    between atoms: C_3  and  N_4 
REMARK       I    between atoms: N_4  and  C_5 
REMARK    2  A    between atoms: C_5  and  C_6 
REMARK    3  A    between atoms: C_7  and  C_8 
REMARK    4  A    between atoms: C_19  and  C_20 
REMARK    5  A    between atoms: C_20  and  C_21 
REMARK    6  A    between atoms: C_21  and  C_22 
REMARK    7  A    between atoms: C_22  and  O_23 
ROOT
HETATM    1  C   UNL     1       5.030  34.051  62.025  1.00  0.00     0.062 C 
HETATM    2  C   UNL     1       5.688  33.453  60.775  1.00  0.00     0.202 C 
HETATM    3  N   UNL     1       4.729  32.632  60.023  1.00  0.00    -0.083 N 
HETATM    4  C   UNL     1       3.537  32.197  60.532  1.00  0.00     0.726 A 
HETATM    5  N   UNL     1       3.140  32.635  61.741  1.00  0.00    -0.192 N 
HETATM    6  N   UNL     1       4.957  32.121  58.795  1.00  0.00    -0.140 NA
HETATM    7  C   UNL     1       3.885  31.330  58.651  1.00  0.00     0.166 A 
HETATM    8  N   UNL     1       2.985  31.357  59.696  1.00  0.00    -0.046 NA
HETATM    9  C   UNL     1       3.838  33.582  62.481  1.00  0.00     0.037 C 
HETATM   10  C   UNL     1       3.196  33.972  63.790  1.00  0.00     0.070 C 
HETATM   11  H   UNL     1       2.249  32.307  62.106  1.00  0.00     0.184 HD
ENDROOT
BRANCH   1  12
HETATM   12  C   UNL     1       5.819  35.142  62.677  1.00  0.00     0.256 C 
HETATM   13  N   UNL     1       5.644  36.380  62.105  1.00  0.00    -0.323 N 
HETATM   14  H   UNL     1       5.273  36.384  61.165  1.00  0.00     0.169 HD
HETATM   15  O   UNL     1       6.642  34.863  63.538  1.00  0.00    -0.267 OA
BRANCH  13  16
HETATM   16  C   UNL     1       6.062  37.641  62.595  1.00  0.00     0.041 A 
HETATM   17  C   UNL     1       5.803  38.166  63.876  1.00  0.00    -0.035 A 
HETATM   18  C   UNL     1       4.982  37.490  64.940  1.00  0.00     0.050 C 
HETATM   19  C   UNL     1       6.307  39.443  64.201  1.00  0.00     0.009 A 
HETATM   20  C   UNL     1       6.998  40.213  63.267  1.00  0.00     0.001 A 
HETATM   21  C   UNL     1       7.200  39.718  61.988  1.00  0.00     0.002 A 
HETATM   22  C   UNL     1       6.733  38.446  61.656  1.00  0.00     0.030 A 
ENDBRANCH  13  16
ENDBRANCH   1  12
BRANCH   2  23
HETATM   23  C   UNL     1       6.921  32.601  61.080  1.00  0.00    -0.025 A 
HETATM   24  C   UNL     1       8.107  32.725  60.335  1.00  0.00     0.052 A 
HETATM   25  C   UNL     1       9.214  31.942  60.646  1.00  0.00     0.117 A 
HETATM   26  F   UNL     1      10.334  32.074  59.925  1.00  0.00    -0.206 F 
HETATM   27  C   UNL     1       9.176  31.029  61.692  1.00  0.00     0.042 A 
HETATM   28  C   UNL     1       8.010  30.896  62.443  1.00  0.00     0.004 A 
HETATM   29  C   UNL     1       6.891  31.677  62.141  1.00  0.00     0.010 A 
ENDBRANCH   2  23
BRANCH   7  30
HETATM   30  C   UNL     1       3.719  30.386  57.518  1.00  0.00     0.085 C 
BRANCH  30  31
HETATM   31  C   UNL     1       5.053  29.820  57.021  1.00  0.00     0.034 C 
BRANCH  31  32
HETATM   32  C   UNL     1       5.209  28.308  57.182  1.00  0.00     0.164 C 
BRANCH  32  33
HETATM   33  O   UNL     1       4.200  27.606  56.472  1.00  0.00    -0.401 OA
HETATM   34  H   UNL     1       4.646  27.165  55.720  1.00  0.00     0.209 HD
ENDBRANCH  32  33
ENDBRANCH  31  32
ENDBRANCH  30  31
ENDBRANCH   7  30
TORSDOF 7
ENDMDL
