MODEL 1
REMARK VINA RESULT:      -9.9      0.000      0.000
REMARK  6 active torsions:
REMARK  status: ('A' for Active; 'I' for Inactive)
REMARK    1  A    between atoms: C_5  and  C_6 
REMARK    2  A    between atoms: C_6  and  N_7 
REMARK    3  A    between atoms: C_6  and  C_11 
REMARK       I    between atoms: N_7  and  C_8 
REMARK    4  A    between atoms: C_11  and  C_12 
REMARK       I    between atoms: C_12  and  N_13 
REMARK    5  A    between atoms: N_13  and  C_14 
REMARK    6  A    between atoms: C_16  and  C_17 
ROOT
HETATM    1  C   UNL     1       7.395  26.239  57.469  1.00  0.00     0.224 C 
HETATM    2  N   UNL     1       7.462  27.522  56.957  1.00  0.00    -0.327 N 
HETATM    3  O   UNL     1       7.988  25.812  58.455  1.00  0.00    -0.273 OA
HETATM    4  H   UNL     1       6.800  27.752  56.224  1.00  0.00     0.169 HD
ENDROOT
BRANCH   1   5
HETATM    5  C   UNL     1       6.433  25.348  56.710  1.00  0.00     0.133 C 
BRANCH   5   6
HETATM    6  C   UNL     1       6.707  25.440  55.204  1.00  0.00     0.126 C 
BRANCH   6   7
HETATM    7  C   UNL     1       7.200  24.131  54.603  1.00  0.00    -0.035 A 
HETATM    8  C   UNL     1       7.377  23.009  55.428  1.00  0.00     0.010 A 
HETATM    9  C   UNL     1       7.799  21.787  54.894  1.00  0.00     0.007 A 
HETATM   10  C   UNL     1       8.050  21.660  53.526  1.00  0.00    -0.062 A 
HETATM   11  C   UNL     1       8.520  20.358  52.946  1.00  0.00     0.048 C 
HETATM   12  C   UNL     1       7.885  22.776  52.700  1.00  0.00     0.007 A 
HETATM   13  C   UNL     1       7.462  23.997  53.232  1.00  0.00     0.010 A 
ENDBRANCH   6   7
BRANCH   6  14
HETATM   14  N   UNL     1       5.603  25.990  54.418  1.00  0.00    -0.352 N 
HETATM   15  C   UNL     1       5.488  27.301  54.021  1.00  0.00     0.214 C 
HETATM   16  C   UNL     1       4.197  27.613  53.312  1.00  0.00     0.117 C 
HETATM   17  O   UNL     1       6.337  28.164  54.219  1.00  0.00    -0.274 OA
HETATM   18  H   UNL     1       4.771  25.416  54.372  1.00  0.00     0.163 HD
ENDBRANCH   6  14
ENDBRANCH   5   6
ENDBRANCH   1   5
BRANCH   2  19
HETATM   19  C   UNL     1       8.288  28.581  57.389  1.00  0.00     0.035 A 
HETATM   20  C   UNL     1       8.056  29.333  58.543  1.00  0.00     0.042 A 
HETATM   21  C   UNL     1       8.927  30.368  58.927  1.00  0.00    -0.021 A 
HETATM   22  C   UNL     1      10.048  30.633  58.129  1.00  0.00     0.012 A 
HETATM   23  C   UNL     1      10.292  29.885  56.976  1.00  0.00     0.003 A 
HETATM   24  C   UNL     1       9.416  28.864  56.610  1.00  0.00     0.029 A 
BRANCH  21  25
HETATM   25  C   UNL     1       8.688  31.152  60.131  1.00  0.00     0.010 A 
HETATM   26  C   UNL     1       9.183  31.003  61.449  1.00  0.00     0.152 A 
HETATM   27  N   UNL     1       8.734  31.943  62.285  1.00  0.00    -0.187 NA
HETATM   28  N   UNL     1       7.942  32.698  61.507  1.00  0.00    -0.289 N 
HETATM   29  H   UNL     1       7.472  33.494  61.926  1.00  0.00     0.188 HD
HETATM   30  C   UNL     1       7.887  32.272  60.213  1.00  0.00     0.123 A 
ENDBRANCH  21  25
ENDBRANCH   2  19
TORSDOF 6
ENDMDL
MODEL 2
REMARK VINA RESULT:      -9.1      2.707      8.974
REMARK  6 active torsions:
REMARK  status: ('A' for Active; 'I' for Inactive)
REMARK    1  A    between atoms: C_5  and  C_6 
REMARK    2  A    between atoms: C_6  and  N_7 
REMARK    3  A    between atoms: C_6  and  C_11 
REMARK       I    between atoms: N_7  and  C_8 
REMARK    4  A    between atoms: C_11  and  C_12 
REMARK       I    between atoms: C_12  and  N_13 
REMARK    5  A    between atoms: N_13  and  C_14 
REMARK    6  A    between atoms: C_16  and  C_17 
ROOT
HETATM    1  C   UNL     1       7.667  26.953  56.712  1.00  0.00     0.224 C 
HETATM    2  N   UNL     1       7.026  26.663  55.521  1.00  0.00    -0.327 N 
HETATM    3  O   UNL     1       8.707  26.450  57.125  1.00  0.00    -0.273 OA
HETATM    4  H   UNL     1       6.256  27.270  55.262  1.00  0.00     0.169 HD
ENDROOT
BRANCH   1   5
HETATM    5  C   UNL     1       6.978  28.046  57.504  1.00  0.00     0.133 C 
BRANCH   5   6
HETATM    6  C   UNL     1       7.599  29.408  57.171  1.00  0.00     0.126 C 
BRANCH   6   7
HETATM    7  C   UNL     1       6.817  30.581  57.745  1.00  0.00    -0.035 A 
HETATM    8  C   UNL     1       5.659  31.031  57.092  1.00  0.00     0.010 A 
HETATM    9  C   UNL     1       4.905  32.086  57.616  1.00  0.00     0.007 A 
HETATM   10  C   UNL     1       5.291  32.711  58.804  1.00  0.00    -0.062 A 
HETATM   11  C   UNL     1       4.499  33.855  59.366  1.00  0.00     0.048 C 
HETATM   12  C   UNL     1       6.447  32.273  59.456  1.00  0.00     0.007 A 
HETATM   13  C   UNL     1       7.201  31.218  58.933  1.00  0.00     0.010 A 
ENDBRANCH   6   7
BRANCH   6  14
HETATM   14  N   UNL     1       9.021  29.523  57.495  1.00  0.00    -0.352 N 
HETATM   15  C   UNL     1      10.034  29.674  56.579  1.00  0.00     0.214 C 
HETATM   16  C   UNL     1      11.412  29.661  57.185  1.00  0.00     0.117 C 
HETATM   17  O   UNL     1       9.864  29.802  55.371  1.00  0.00    -0.274 OA
HETATM   18  H   UNL     1       9.279  29.239  58.431  1.00  0.00     0.163 HD
ENDBRANCH   6  14
ENDBRANCH   5   6
ENDBRANCH   1   5
BRANCH   2  19
HETATM   19  C   UNL     1       7.368  25.673  54.577  1.00  0.00     0.035 A 
HETATM   20  C   UNL     1       7.617  24.336  54.901  1.00  0.00     0.042 A 
HETATM   21  C   UNL     1       7.941  23.393  53.910  1.00  0.00    -0.021 A 
HETATM   22  C   UNL     1       8.003  23.816  52.575  1.00  0.00     0.012 A 
HETATM   23  C   UNL     1       7.752  25.147  52.240  1.00  0.00     0.003 A 
HETATM   24  C   UNL     1       7.435  26.069  53.236  1.00  0.00     0.029 A 
BRANCH  21  25
HETATM   25  C   UNL     1       8.198  21.999  54.246  1.00  0.00     0.010 A 
HETATM   26  C   UNL     1       8.540  20.895  53.428  1.00  0.00     0.152 A 
HETATM   27  N   UNL     1       8.707  19.765  54.121  1.00  0.00    -0.187 NA
HETATM   28  N   UNL     1       8.468  20.138  55.387  1.00  0.00    -0.289 N 
HETATM   29  H   UNL     1       8.532  19.437  56.118  1.00  0.00     0.188 HD
HETATM   30  C   UNL     1       8.167  21.462  55.516  1.00  0.00     0.123 A 
ENDBRANCH  21  25
ENDBRANCH   2  19
TORSDOF 6
ENDMDL
MODEL 3
REMARK VINA RESULT:      -9.0      3.609      5.682
REMARK  6 active torsions:
REMARK  status: ('A' for Active; 'I' for Inactive)
REMARK    1  A    between atoms: C_5  and  C_6 
REMARK    2  A    between atoms: C_6  and  N_7 
REMARK    3  A    between atoms: C_6  and  C_11 
REMARK       I    between atoms: N_7  and  C_8 
REMARK    4  A    between atoms: C_11  and  C_12 
REMARK       I    between atoms: C_12  and  N_13 
REMARK    5  A    between atoms: N_13  and  C_14 
REMARK    6  A    between atoms: C_16  and  C_17 
ROOT
HETATM    1  C   UNL     1       7.772  31.092  59.554  1.00  0.00     0.224 C 
HETATM    2  N   UNL     1       7.692  30.805  60.905  1.00  0.00    -0.327 N 
HETATM    3  O   UNL     1       7.611  32.188  59.026  1.00  0.00    -0.273 OA
HETATM    4  H   UNL     1       7.994  29.881  61.190  1.00  0.00     0.169 HD
ENDROOT
BRANCH   1   5
HETATM    5  C   UNL     1       8.149  29.887  58.715  1.00  0.00     0.133 C 
BRANCH   5   6
HETATM    6  C   UNL     1       7.111  29.673  57.607  1.00  0.00     0.126 C 
BRANCH   6   7
HETATM    7  C   UNL     1       7.242  28.322  56.916  1.00  0.00    -0.035 A 
HETATM    8  C   UNL     1       7.925  27.276  57.556  1.00  0.00     0.010 A 
HETATM    9  C   UNL     1       8.032  26.018  56.956  1.00  0.00     0.007 A 
HETATM   10  C   UNL     1       7.456  25.777  55.706  1.00  0.00    -0.062 A 
HETATM   11  C   UNL     1       7.579  24.435  55.046  1.00  0.00     0.048 C 
HETATM   12  C   UNL     1       6.781  26.816  55.059  1.00  0.00     0.007 A 
HETATM   13  C   UNL     1       6.673  28.074  55.659  1.00  0.00     0.010 A 
ENDBRANCH   6   7
BRANCH   6  14
HETATM   14  N   UNL     1       5.728  29.917  58.015  1.00  0.00    -0.352 N 
HETATM   15  C   UNL     1       4.848  30.757  57.374  1.00  0.00     0.214 C 
HETATM   16  C   UNL     1       3.522  30.898  58.072  1.00  0.00     0.117 C 
HETATM   17  O   UNL     1       5.095  31.358  56.334  1.00  0.00    -0.274 OA
HETATM   18  H   UNL     1       5.493  29.626  58.955  1.00  0.00     0.163 HD
ENDBRANCH   6  14
ENDBRANCH   5   6
ENDBRANCH   1   5
BRANCH   2  19
HETATM   19  C   UNL     1       7.318  31.676  61.950  1.00  0.00     0.035 A 
HETATM   20  C   UNL     1       6.010  32.121  62.167  1.00  0.00     0.042 A 
HETATM   21  C   UNL     1       5.701  32.979  63.236  1.00  0.00    -0.021 A 
HETATM   22  C   UNL     1       6.732  33.381  64.096  1.00  0.00     0.012 A 
HETATM   23  C   UNL     1       8.039  32.940  63.891  1.00  0.00     0.003 A 
HETATM   24  C   UNL     1       8.329  32.091  62.823  1.00  0.00     0.029 A 
BRANCH  21  25
HETATM   25  C   UNL     1       4.338  33.442  63.466  1.00  0.00     0.010 A 
HETATM   26  C   UNL     1       3.180  33.356  62.656  1.00  0.00     0.152 A 
HETATM   27  N   UNL     1       2.101  33.896  63.230  1.00  0.00    -0.187 NA
HETATM   28  N   UNL     1       2.564  34.336  64.411  1.00  0.00    -0.289 N 
HETATM   29  H   UNL     1       1.917  34.797  65.041  1.00  0.00     0.188 HD
HETATM   30  C   UNL     1       3.891  34.083  64.602  1.00  0.00     0.123 A 
ENDBRANCH  21  25
ENDBRANCH   2  19
TORSDOF 6
ENDMDL
MODEL 4
REMARK VINA RESULT:      -8.9      2.906      8.048
REMARK  6 active torsions:
REMARK  status: ('A' for Active; 'I' for Inactive)
REMARK    1  A    between atoms: C_5  and  C_6 
REMARK    2  A    between atoms: C_6  and  N_7 
REMARK    3  A    between atoms: C_6  and  C_11 
REMARK       I    between atoms: N_7  and  C_8 
REMARK    4  A    between atoms: C_11  and  C_12 
REMARK       I    between atoms: C_12  and  N_13 
REMARK    5  A    between atoms: N_13  and  C_14 
REMARK    6  A    between atoms: C_16  and  C_17 
ROOT
HETATM    1  C   UNL     1       5.417  27.056  55.346  1.00  0.00     0.224 C 
HETATM    2  N   UNL     1       6.509  26.223  55.512  1.00  0.00    -0.327 N 
HETATM    3  O   UNL     1       4.684  27.116  54.364  1.00  0.00    -0.273 OA
HETATM    4  H   UNL     1       6.921  26.196  56.438  1.00  0.00     0.169 HD
ENDROOT
BRANCH   1   5
HETATM    5  C   UNL     1       5.137  27.915  56.563  1.00  0.00     0.133 C 
BRANCH   5   6
HETATM    6  C   UNL     1       5.638  29.344  56.324  1.00  0.00     0.126 C 
BRANCH   6   7
HETATM    7  C   UNL     1       7.131  29.506  56.573  1.00  0.00    -0.035 A 
HETATM    8  C   UNL     1       7.588  29.893  57.843  1.00  0.00     0.010 A 
HETATM    9  C   UNL     1       8.955  30.019  58.105  1.00  0.00     0.007 A 
HETATM   10  C   UNL     1       9.896  29.756  57.106  1.00  0.00    -0.062 A 
HETATM   11  C   UNL     1      11.365  29.904  57.372  1.00  0.00     0.048 C 
HETATM   12  C   UNL     1       9.448  29.378  55.837  1.00  0.00     0.007 A 
HETATM   13  C   UNL     1       8.081  29.252  55.574  1.00  0.00     0.010 A 
ENDBRANCH   6   7
BRANCH   6  14
HETATM   14  N   UNL     1       5.262  29.912  55.029  1.00  0.00    -0.352 N 
HETATM   15  C   UNL     1       4.157  30.697  54.798  1.00  0.00     0.214 C 
HETATM   16  C   UNL     1       3.957  31.056  53.350  1.00  0.00     0.117 C 
HETATM   17  O   UNL     1       3.382  31.078  55.668  1.00  0.00    -0.274 OA
HETATM   18  H   UNL     1       5.719  29.503  54.225  1.00  0.00     0.163 HD
ENDBRANCH   6  14
ENDBRANCH   5   6
ENDBRANCH   1   5
BRANCH   2  19
HETATM   19  C   UNL     1       7.070  25.339  54.567  1.00  0.00     0.035 A 
HETATM   20  C   UNL     1       7.447  24.024  54.854  1.00  0.00     0.042 A 
HETATM   21  C   UNL     1       7.989  23.188  53.862  1.00  0.00    -0.021 A 
HETATM   22  C   UNL     1       8.141  23.696  52.564  1.00  0.00     0.012 A 
HETATM   23  C   UNL     1       7.764  25.006  52.266  1.00  0.00     0.003 A 
HETATM   24  C   UNL     1       7.231  25.822  53.263  1.00  0.00     0.029 A 
BRANCH  21  25
HETATM   25  C   UNL     1       8.380  21.817  54.158  1.00  0.00     0.010 A 
HETATM   26  C   UNL     1       8.413  20.663  53.338  1.00  0.00     0.152 A 
HETATM   27  N   UNL     1       8.849  19.577  53.982  1.00  0.00    -0.187 NA
HETATM   28  N   UNL     1       9.093  20.028  55.223  1.00  0.00    -0.289 N 
HETATM   29  H   UNL     1       9.439  19.372  55.916  1.00  0.00     0.188 HD
HETATM   30  C   UNL     1       8.836  21.359  55.377  1.00  0.00     0.123 A 
ENDBRANCH  21  25
ENDBRANCH   2  19
TORSDOF 6
ENDMDL
MODEL 5
REMARK VINA RESULT:      -8.9      5.385      8.811
REMARK  6 active torsions:
REMARK  status: ('A' for Active; 'I' for Inactive)
REMARK    1  A    between atoms: C_5  and  C_6 
REMARK    2  A    between atoms: C_6  and  N_7 
REMARK    3  A    between atoms: C_6  and  C_11 
REMARK       I    between atoms: N_7  and  C_8 
REMARK    4  A    between atoms: C_11  and  C_12 
REMARK       I    between atoms: C_12  and  N_13 
REMARK    5  A    between atoms: N_13  and  C_14 
REMARK    6  A    between atoms: C_16  and  C_17 
ROOT
HETATM    1  C   UNL     1       5.428  25.574  51.172  1.00  0.00     0.224 C 
HETATM    2  N   UNL     1       6.663  25.709  51.780  1.00  0.00    -0.327 N 
HETATM    3  O   UNL     1       4.460  24.958  51.608  1.00  0.00    -0.273 OA
HETATM    4  H   UNL     1       7.306  26.370  51.357  1.00  0.00     0.169 HD
ENDROOT
BRANCH   1   5
HETATM    5  C   UNL     1       5.325  26.334  49.864  1.00  0.00     0.133 C 
BRANCH   5   6
HETATM    6  C   UNL     1       4.402  27.546  50.032  1.00  0.00     0.126 C 
BRANCH   6   7
HETATM    7  C   UNL     1       3.256  27.571  49.030  1.00  0.00    -0.035 A 
HETATM    8  C   UNL     1       3.149  26.553  48.069  1.00  0.00     0.010 A 
HETATM    9  C   UNL     1       2.089  26.537  47.157  1.00  0.00     0.007 A 
HETATM   10  C   UNL     1       1.112  27.535  47.188  1.00  0.00    -0.062 A 
HETATM   11  C   UNL     1      -0.020  27.536  46.204  1.00  0.00     0.048 C 
HETATM   12  C   UNL     1       1.216  28.556  48.137  1.00  0.00     0.007 A 
HETATM   13  C   UNL     1       2.275  28.573  49.049  1.00  0.00     0.010 A 
ENDBRANCH   6   7
BRANCH   6  14
HETATM   14  N   UNL     1       3.906  27.748  51.394  1.00  0.00    -0.352 N 
HETATM   15  C   UNL     1       4.597  28.374  52.404  1.00  0.00     0.214 C 
HETATM   16  C   UNL     1       3.889  28.349  53.733  1.00  0.00     0.117 C 
HETATM   17  O   UNL     1       5.695  28.904  52.271  1.00  0.00    -0.274 OA
HETATM   18  H   UNL     1       3.107  27.186  51.655  1.00  0.00     0.163 HD
ENDBRANCH   6  14
ENDBRANCH   5   6
ENDBRANCH   1   5
BRANCH   2  19
HETATM   19  C   UNL     1       7.109  25.098  52.970  1.00  0.00     0.035 A 
HETATM   20  C   UNL     1       7.502  23.760  53.063  1.00  0.00     0.042 A 
HETATM   21  C   UNL     1       7.951  23.215  54.278  1.00  0.00    -0.021 A 
HETATM   22  C   UNL     1       8.006  24.043  55.408  1.00  0.00     0.012 A 
HETATM   23  C   UNL     1       7.620  25.381  55.325  1.00  0.00     0.003 A 
HETATM   24  C   UNL     1       7.175  25.905  54.111  1.00  0.00     0.029 A 
BRANCH  21  25
HETATM   25  C   UNL     1       8.364  21.821  54.376  1.00  0.00     0.010 A 
HETATM   26  C   UNL     1       8.444  20.805  53.393  1.00  0.00     0.152 A 
HETATM   27  N   UNL     1       8.885  19.642  53.879  1.00  0.00    -0.187 NA
HETATM   28  N   UNL     1       9.085  19.905  55.180  1.00  0.00    -0.289 N 
HETATM   29  H   UNL     1       9.426  19.158  55.777  1.00  0.00     0.188 HD
HETATM   30  C   UNL     1       8.796  21.192  55.525  1.00  0.00     0.123 A 
ENDBRANCH  21  25
ENDBRANCH   2  19
TORSDOF 6
ENDMDL
MODEL 6
REMARK VINA RESULT:      -8.8      4.598      9.265
REMARK  6 active torsions:
REMARK  status: ('A' for Active; 'I' for Inactive)
REMARK    1  A    between atoms: C_5  and  C_6 
REMARK    2  A    between atoms: C_6  and  N_7 
REMARK    3  A    between atoms: C_6  and  C_11 
REMARK       I    between atoms: N_7  and  C_8 
REMARK    4  A    between atoms: C_11  and  C_12 
REMARK       I    between atoms: C_12  and  N_13 
REMARK    5  A    between atoms: N_13  and  C_14 
REMARK    6  A    between atoms: C_16  and  C_17 
ROOT
HETATM    1  C   UNL     1       5.571  26.352  51.376  1.00  0.00     0.224 C 
HETATM    2  N   UNL     1       5.681  26.702  50.043  1.00  0.00    -0.327 N 
HETATM    3  O   UNL     1       4.775  26.809  52.191  1.00  0.00    -0.273 OA
HETATM    4  H   UNL     1       6.292  26.128  49.472  1.00  0.00     0.169 HD
ENDROOT
BRANCH   1   5
HETATM    5  C   UNL     1       6.533  25.252  51.781  1.00  0.00     0.133 C 
BRANCH   5   6
HETATM    6  C   UNL     1       6.639  25.183  53.309  1.00  0.00     0.126 C 
BRANCH   6   7
HETATM    7  C   UNL     1       7.153  23.842  53.814  1.00  0.00    -0.035 A 
HETATM    8  C   UNL     1       7.668  22.906  52.903  1.00  0.00     0.010 A 
HETATM    9  C   UNL     1       8.174  21.680  53.346  1.00  0.00     0.007 A 
HETATM   10  C   UNL     1       8.179  21.364  54.707  1.00  0.00    -0.062 A 
HETATM   11  C   UNL     1       8.705  20.045  55.190  1.00  0.00     0.048 C 
HETATM   12  C   UNL     1       7.660  22.288  55.618  1.00  0.00     0.007 A 
HETATM   13  C   UNL     1       7.155  23.514  55.177  1.00  0.00     0.010 A 
ENDBRANCH   6   7
BRANCH   6  14
HETATM   14  N   UNL     1       7.382  26.287  53.917  1.00  0.00    -0.352 N 
HETATM   15  C   UNL     1       6.894  27.134  54.884  1.00  0.00     0.214 C 
HETATM   16  C   UNL     1       7.839  28.246  55.253  1.00  0.00     0.117 C 
HETATM   17  O   UNL     1       5.791  27.025  55.409  1.00  0.00    -0.274 OA
HETATM   18  H   UNL     1       8.215  26.577  53.422  1.00  0.00     0.163 HD
ENDBRANCH   6  14
ENDBRANCH   5   6
ENDBRANCH   1   5
BRANCH   2  19
HETATM   19  C   UNL     1       4.978  27.715  49.357  1.00  0.00     0.035 A 
HETATM   20  C   UNL     1       3.834  27.489  48.586  1.00  0.00     0.042 A 
HETATM   21  C   UNL     1       3.172  28.546  47.938  1.00  0.00    -0.021 A 
HETATM   22  C   UNL     1       3.675  29.846  48.084  1.00  0.00     0.012 A 
HETATM   23  C   UNL     1       4.814  30.083  48.854  1.00  0.00     0.003 A 
HETATM   24  C   UNL     1       5.460  29.022  49.488  1.00  0.00     0.029 A 
BRANCH  21  25
HETATM   25  C   UNL     1       1.978  28.313  47.136  1.00  0.00     0.010 A 
HETATM   26  C   UNL     1       1.265  27.121  46.857  1.00  0.00     0.152 A 
HETATM   27  N   UNL     1       0.199  27.322  46.078  1.00  0.00    -0.187 NA
HETATM   28  N   UNL     1       0.225  28.644  45.848  1.00  0.00    -0.289 N 
HETATM   29  H   UNL     1      -0.500  29.047  45.265  1.00  0.00     0.188 HD
HETATM   30  C   UNL     1       1.263  29.281  46.463  1.00  0.00     0.123 A 
ENDBRANCH  21  25
ENDBRANCH   2  19
TORSDOF 6
ENDMDL
MODEL 7
REMARK VINA RESULT:      -8.6      3.207      8.570
REMARK  6 active torsions:
REMARK  status: ('A' for Active; 'I' for Inactive)
REMARK    1  A    between atoms: C_5  and  C_6 
REMARK    2  A    between atoms: C_6  and  N_7 
REMARK    3  A    between atoms: C_6  and  C_11 
REMARK       I    between atoms: N_7  and  C_8 
REMARK    4  A    between atoms: C_11  and  C_12 
REMARK       I    between atoms: C_12  and  N_13 
REMARK    5  A    between atoms: N_13  and  C_14 
REMARK    6  A    between atoms: C_16  and  C_17 
ROOT
HETATM    1  C   UNL     1       5.949  26.400  56.444  1.00  0.00     0.224 C 
HETATM    2  N   UNL     1       7.041  26.420  55.595  1.00  0.00    -0.327 N 
HETATM    3  O   UNL     1       5.124  25.498  56.557  1.00  0.00    -0.273 OA
HETATM    4  H   UNL     1       7.703  27.176  55.728  1.00  0.00     0.169 HD
ENDROOT
BRANCH   1   5
HETATM    5  C   UNL     1       5.859  27.631  57.324  1.00  0.00     0.133 C 
BRANCH   5   6
HETATM    6  C   UNL     1       6.275  28.875  56.531  1.00  0.00     0.126 C 
BRANCH   6   7
HETATM    7  C   UNL     1       5.098  29.759  56.141  1.00  0.00    -0.035 A 
HETATM    8  C   UNL     1       4.333  30.380  57.140  1.00  0.00     0.010 A 
HETATM    9  C   UNL     1       3.266  31.221  56.807  1.00  0.00     0.007 A 
HETATM   10  C   UNL     1       2.945  31.462  55.469  1.00  0.00    -0.062 A 
HETATM   11  C   UNL     1       1.792  32.348  55.100  1.00  0.00     0.048 C 
HETATM   12  C   UNL     1       3.698  30.840  54.468  1.00  0.00     0.007 A 
HETATM   13  C   UNL     1       4.764  30.000  54.801  1.00  0.00     0.010 A 
ENDBRANCH   6   7
BRANCH   6  14
HETATM   14  N   UNL     1       7.336  29.667  57.155  1.00  0.00    -0.352 N 
HETATM   15  C   UNL     1       8.620  29.232  57.384  1.00  0.00     0.214 C 
HETATM   16  C   UNL     1       9.472  30.219  58.136  1.00  0.00     0.117 C 
HETATM   17  O   UNL     1       9.058  28.143  57.029  1.00  0.00    -0.274 OA
HETATM   18  H   UNL     1       7.029  30.493  57.651  1.00  0.00     0.163 HD
ENDBRANCH   6  14
ENDBRANCH   5   6
ENDBRANCH   1   5
BRANCH   2  19
HETATM   19  C   UNL     1       7.390  25.466  54.618  1.00  0.00     0.035 A 
HETATM   20  C   UNL     1       7.743  24.144  54.906  1.00  0.00     0.042 A 
HETATM   21  C   UNL     1       8.068  23.237  53.882  1.00  0.00    -0.021 A 
HETATM   22  C   UNL     1       8.026  23.679  52.553  1.00  0.00     0.012 A 
HETATM   23  C   UNL     1       7.671  24.995  52.254  1.00  0.00     0.003 A 
HETATM   24  C   UNL     1       7.354  25.882  53.282  1.00  0.00     0.029 A 
BRANCH  21  25
HETATM   25  C   UNL     1       8.433  21.858  54.180  1.00  0.00     0.010 A 
HETATM   26  C   UNL     1       8.435  20.701  53.364  1.00  0.00     0.152 A 
HETATM   27  N   UNL     1       8.853  19.608  54.009  1.00  0.00    -0.187 NA
HETATM   28  N   UNL     1       9.116  20.059  55.246  1.00  0.00    -0.289 N 
HETATM   29  H   UNL     1       9.454  19.398  55.939  1.00  0.00     0.188 HD
HETATM   30  C   UNL     1       8.888  21.395  55.397  1.00  0.00     0.123 A 
ENDBRANCH  21  25
ENDBRANCH   2  19
TORSDOF 6
ENDMDL
MODEL 8
REMARK VINA RESULT:      -8.5      3.056      5.365
REMARK  6 active torsions:
REMARK  status: ('A' for Active; 'I' for Inactive)
REMARK    1  A    between atoms: C_5  and  C_6 
REMARK    2  A    between atoms: C_6  and  N_7 
REMARK    3  A    between atoms: C_6  and  C_11 
REMARK       I    between atoms: N_7  and  C_8 
REMARK    4  A    between atoms: C_11  and  C_12 
REMARK       I    between atoms: C_12  and  N_13 
REMARK    5  A    between atoms: N_13  and  C_14 
REMARK    6  A    between atoms: C_16  and  C_17 
ROOT
HETATM    1  C   UNL     1       6.827  31.200  58.555  1.00  0.00     0.224 C 
HETATM    2  N   UNL     1       7.280  30.741  59.779  1.00  0.00    -0.327 N 
HETATM    3  O   UNL     1       6.488  32.348  58.283  1.00  0.00    -0.273 OA
HETATM    4  H   UNL     1       7.655  29.799  59.798  1.00  0.00     0.169 HD
ENDROOT
BRANCH   1   5
HETATM    5  C   UNL     1       6.823  30.127  57.484  1.00  0.00     0.133 C 
BRANCH   5   6
HETATM    6  C   UNL     1       7.744  28.972  57.894  1.00  0.00     0.126 C 
BRANCH   6   7
HETATM    7  C   UNL     1       7.500  27.698  57.097  1.00  0.00    -0.035 A 
HETATM    8  C   UNL     1       6.625  27.720  56.000  1.00  0.00     0.010 A 
HETATM    9  C   UNL     1       6.407  26.571  55.234  1.00  0.00     0.007 A 
HETATM   10  C   UNL     1       7.062  25.377  55.545  1.00  0.00    -0.062 A 
HETATM   11  C   UNL     1       6.822  24.134  54.740  1.00  0.00     0.048 C 
HETATM   12  C   UNL     1       7.928  25.345  56.642  1.00  0.00     0.007 A 
HETATM   13  C   UNL     1       8.146  26.493  57.408  1.00  0.00     0.010 A 
ENDBRANCH   6   7
BRANCH   6  14
HETATM   14  N   UNL     1       9.168  29.308  57.914  1.00  0.00    -0.352 N 
HETATM   15  C   UNL     1       9.926  29.616  56.809  1.00  0.00     0.214 C 
HETATM   16  C   UNL     1      11.387  29.818  57.109  1.00  0.00     0.117 C 
HETATM   17  O   UNL     1       9.484  29.714  55.669  1.00  0.00    -0.274 OA
HETATM   18  H   UNL     1       9.661  29.069  58.764  1.00  0.00     0.163 HD
ENDBRANCH   6  14
ENDBRANCH   5   6
ENDBRANCH   1   5
BRANCH   2  19
HETATM   19  C   UNL     1       7.362  31.457  60.991  1.00  0.00     0.035 A 
HETATM   20  C   UNL     1       6.253  31.953  61.683  1.00  0.00     0.042 A 
HETATM   21  C   UNL     1       6.402  32.648  62.896  1.00  0.00    -0.021 A 
HETATM   22  C   UNL     1       7.693  32.832  63.412  1.00  0.00     0.012 A 
HETATM   23  C   UNL     1       8.806  32.338  62.731  1.00  0.00     0.003 A 
HETATM   24  C   UNL     1       8.640  31.653  61.527  1.00  0.00     0.029 A 
BRANCH  21  25
HETATM   25  C   UNL     1       5.248  33.163  63.620  1.00  0.00     0.010 A 
HETATM   26  C   UNL     1       5.077  33.482  64.989  1.00  0.00     0.152 A 
HETATM   27  N   UNL     1       3.855  33.945  65.268  1.00  0.00    -0.187 NA
HETATM   28  N   UNL     1       3.234  33.922  64.079  1.00  0.00    -0.289 N 
HETATM   29  H   UNL     1       2.270  34.233  64.031  1.00  0.00     0.188 HD
HETATM   30  C   UNL     1       4.024  33.470  63.062  1.00  0.00     0.123 A 
ENDBRANCH  21  25
ENDBRANCH   2  19
TORSDOF 6
ENDMDL
MODEL 9
REMARK VINA RESULT:      -8.5      4.107      8.503
REMARK  6 active torsions:
REMARK  status: ('A' for Active; 'I' for Inactive)
REMARK    1  A    between atoms: C_5  and  C_6 
REMARK    2  A    between atoms: C_6  and  N_7 
REMARK    3  A    between atoms: C_6  and  C_11 
REMARK       I    between atoms: N_7  and  C_8 
REMARK    4  A    between atoms: C_11  and  C_12 
REMARK       I    between atoms: C_12  and  N_13 
REMARK    5  A    between atoms: N_13  and  C_14 
REMARK    6  A    between atoms: C_16  and  C_17 
ROOT
HETATM    1  C   UNL     1       5.590  25.892  51.432  1.00  0.00     0.224 C 
HETATM    2  N   UNL     1       5.611  26.352  50.128  1.00  0.00    -0.327 N 
HETATM    3  O   UNL     1       4.594  25.690  52.122  1.00  0.00    -0.273 OA
HETATM    4  H   UNL     1       6.507  26.327  49.654  1.00  0.00     0.169 HD
ENDROOT
BRANCH   1   5
HETATM    5  C   UNL     1       6.971  25.584  51.975  1.00  0.00     0.133 C 
BRANCH   5   6
HETATM    6  C   UNL     1       6.897  25.325  53.485  1.00  0.00     0.126 C 
BRANCH   6   7
HETATM    7  C   UNL     1       7.366  23.932  53.878  1.00  0.00    -0.035 A 
HETATM    8  C   UNL     1       7.563  23.619  55.232  1.00  0.00     0.010 A 
HETATM    9  C   UNL     1       7.964  22.338  55.621  1.00  0.00     0.007 A 
HETATM   10  C   UNL     1       8.174  21.340  54.666  1.00  0.00    -0.062 A 
HETATM   11  C   UNL     1       8.621  19.966  55.072  1.00  0.00     0.048 C 
HETATM   12  C   UNL     1       7.988  21.646  53.315  1.00  0.00     0.007 A 
HETATM   13  C   UNL     1       7.587  22.927  52.926  1.00  0.00     0.010 A 
ENDBRANCH   6   7
BRANCH   6  14
HETATM   14  N   UNL     1       7.546  26.345  54.308  1.00  0.00    -0.352 N 
HETATM   15  C   UNL     1       6.928  27.460  54.824  1.00  0.00     0.214 C 
HETATM   16  C   UNL     1       7.861  28.394  55.548  1.00  0.00     0.117 C 
HETATM   17  O   UNL     1       5.731  27.704  54.713  1.00  0.00    -0.274 OA
HETATM   18  H   UNL     1       8.557  26.338  54.294  1.00  0.00     0.163 HD
ENDBRANCH   6  14
ENDBRANCH   5   6
ENDBRANCH   1   5
BRANCH   2  19
HETATM   19  C   UNL     1       4.517  26.776  49.345  1.00  0.00     0.035 A 
HETATM   20  C   UNL     1       3.690  27.853  49.675  1.00  0.00     0.042 A 
HETATM   21  C   UNL     1       2.622  28.233  48.844  1.00  0.00    -0.021 A 
HETATM   22  C   UNL     1       2.401  27.513  47.661  1.00  0.00     0.012 A 
HETATM   23  C   UNL     1       3.223  26.439  47.321  1.00  0.00     0.003 A 
HETATM   24  C   UNL     1       4.276  26.074  48.159  1.00  0.00     0.029 A 
BRANCH  21  25
HETATM   25  C   UNL     1       1.761  29.358  49.184  1.00  0.00     0.010 A 
HETATM   26  C   UNL     1       1.007  30.232  48.364  1.00  0.00     0.152 A 
HETATM   27  N   UNL     1       0.326  31.144  49.062  1.00  0.00    -0.187 NA
HETATM   28  N   UNL     1       0.644  30.863  50.336  1.00  0.00    -0.289 N 
HETATM   29  H   UNL     1       0.242  31.435  51.071  1.00  0.00     0.188 HD
HETATM   30  C   UNL     1       1.491  29.802  50.462  1.00  0.00     0.123 A 
ENDBRANCH  21  25
ENDBRANCH   2  19
TORSDOF 6
ENDMDL
MODEL 10
REMARK VINA RESULT:      -8.2      2.262      2.668
REMARK  6 active torsions:
REMARK  status: ('A' for Active; 'I' for Inactive)
REMARK    1  A    between atoms: C_5  and  C_6 
REMARK    2  A    between atoms: C_6  and  N_7 
REMARK    3  A    between atoms: C_6  and  C_11 
REMARK       I    between atoms: N_7  and  C_8 
REMARK    4  A    between atoms: C_11  and  C_12 
REMARK       I    between atoms: C_12  and  N_13 
REMARK    5  A    between atoms: N_13  and  C_14 
REMARK    6  A    between atoms: C_16  and  C_17 
ROOT
HETATM    1  C   UNL     1       5.843  26.243  56.433  1.00  0.00     0.224 C 
HETATM    2  N   UNL     1       5.886  27.566  56.031  1.00  0.00    -0.327 N 
HETATM    3  O   UNL     1       6.091  25.810  57.554  1.00  0.00    -0.273 OA
HETATM    4  H   UNL     1       5.514  27.771  55.110  1.00  0.00     0.169 HD
ENDROOT
BRANCH   1   5
HETATM    5  C   UNL     1       5.389  25.304  55.334  1.00  0.00     0.133 C 
BRANCH   5   6
HETATM    6  C   UNL     1       6.475  25.186  54.259  1.00  0.00     0.126 C 
BRANCH   6   7
HETATM    7  C   UNL     1       7.121  23.808  54.207  1.00  0.00    -0.035 A 
HETATM    8  C   UNL     1       7.317  23.086  55.394  1.00  0.00     0.010 A 
HETATM    9  C   UNL     1       7.879  21.806  55.369  1.00  0.00     0.007 A 
HETATM   10  C   UNL     1       8.253  21.219  54.158  1.00  0.00    -0.062 A 
HETATM   11  C   UNL     1       8.873  19.853  54.121  1.00  0.00     0.048 C 
HETATM   12  C   UNL     1       8.068  21.936  52.972  1.00  0.00     0.007 A 
HETATM   13  C   UNL     1       7.506  23.215  52.996  1.00  0.00     0.010 A 
ENDBRANCH   6   7
BRANCH   6  14
HETATM   14  N   UNL     1       6.059  25.617  52.925  1.00  0.00    -0.352 N 
HETATM   15  C   UNL     1       6.126  26.906  52.450  1.00  0.00     0.214 C 
HETATM   16  C   UNL     1       5.533  27.082  51.078  1.00  0.00     0.117 C 
HETATM   17  O   UNL     1       6.610  27.849  53.068  1.00  0.00    -0.274 OA
HETATM   18  H   UNL     1       5.476  24.965  52.418  1.00  0.00     0.163 HD
ENDBRANCH   6  14
ENDBRANCH   5   6
ENDBRANCH   1   5
BRANCH   2  19
HETATM   19  C   UNL     1       6.311  28.682  56.781  1.00  0.00     0.035 A 
HETATM   20  C   UNL     1       5.446  29.643  57.311  1.00  0.00     0.042 A 
HETATM   21  C   UNL     1       5.932  30.727  58.063  1.00  0.00    -0.021 A 
HETATM   22  C   UNL     1       7.313  30.826  58.283  1.00  0.00     0.012 A 
HETATM   23  C   UNL     1       8.185  29.870  57.763  1.00  0.00     0.003 A 
HETATM   24  C   UNL     1       7.685  28.803  57.016  1.00  0.00     0.029 A 
BRANCH  21  25
HETATM   25  C   UNL     1       5.032  31.728  58.618  1.00  0.00     0.010 A 
HETATM   26  C   UNL     1       3.649  31.669  58.917  1.00  0.00     0.152 A 
HETATM   27  N   UNL     1       3.178  32.808  59.433  1.00  0.00    -0.187 NA
HETATM   28  N   UNL     1       4.257  33.606  59.463  1.00  0.00    -0.289 N 
HETATM   29  H   UNL     1       4.150  34.549  59.821  1.00  0.00     0.188 HD
HETATM   30  C   UNL     1       5.389  33.006  58.994  1.00  0.00     0.123 A 
ENDBRANCH  21  25
ENDBRANCH   2  19
TORSDOF 6
ENDMDL
