MODEL 1
REMARK VINA RESULT:     -10.4      0.000      0.000
REMARK  13 active torsions:
REMARK  status: ('A' for Active; 'I' for Inactive)
REMARK    1  A    between atoms: O_2  and  C_3 
REMARK    2  A    between atoms: C_6  and  C_7 
REMARK    3  A    between atoms: C_7  and  C_8 
REMARK    4  A    between atoms: C_9  and  C_10 
REMARK    5  A    between atoms: N_17  and  C_18 
REMARK    6  A    between atoms: C_18  and  C_19 
REMARK    7  A    between atoms: C_19  and  O_20 
REMARK    8  A    between atoms: C_19  and  C_21 
REMARK    9  A    between atoms: C_21  and  N_22 
REMARK   10  A    between atoms: N_22  and  C_25 
REMARK   11  A    between atoms: C_25  and  C_26 
REMARK   12  A    between atoms: C_26  and  C_27 
REMARK   13  A    between atoms: C_32  and  O_33 
ROOT
HETATM    1  C   UNL     1       8.978  30.088  58.850  1.00  0.00     0.162 C 
ENDROOT
BRANCH   1   2
HETATM    2  N   UNL     1       8.144  29.635  57.747  1.00  0.00    -0.353 N 
HETATM    3  C   UNL     1       6.908  30.140  57.404  1.00  0.00     0.045 A 
HETATM    4  C   UNL     1       6.528  29.511  56.211  1.00  0.00     0.002 A 
HETATM    5  C   UNL     1       6.093  31.102  58.027  1.00  0.00     0.030 A 
HETATM    6  C   UNL     1       7.541  28.549  55.904  1.00  0.00    -0.008 A 
HETATM    7  C   UNL     1       5.320  29.913  55.597  1.00  0.00     0.014 A 
HETATM    8  C   UNL     1       8.529  28.668  56.856  1.00  0.00     0.103 A 
HETATM    9  C   UNL     1       4.515  30.881  56.204  1.00  0.00     0.001 A 
HETATM   10  C   UNL     1       4.892  31.457  57.409  1.00  0.00     0.002 A 
BRANCH   6  11
HETATM   11  C   UNL     1       7.605  27.600  54.838  1.00  0.00     0.018 C 
HETATM   12  C   UNL     1       6.705  26.626  54.623  1.00  0.00     0.056 C 
BRANCH  12  13
HETATM   13  C   UNL     1       6.859  25.700  53.470  1.00  0.00     0.182 C 
HETATM   14  O   UNL     1       6.660  26.091  52.323  1.00  0.00    -0.288 OA
BRANCH  13  15
HETATM   15  C   UNL     1       7.204  24.268  53.730  1.00  0.00     0.014 A 
HETATM   16  C   UNL     1       7.598  23.365  52.732  1.00  0.00     0.018 A 
HETATM   17  C   UNL     1       7.969  22.053  53.060  1.00  0.00     0.037 A 
HETATM   18  C   UNL     1       7.944  21.623  54.386  1.00  0.00     0.068 A 
HETATM   19  C   UNL     1       7.510  22.505  55.376  1.00  0.00     0.037 A 
HETATM   20  C   UNL     1       7.147  23.816  55.054  1.00  0.00     0.018 A 
BRANCH  18  21
HETATM   21  O   UNL     1       8.299  20.381  54.830  1.00  0.00    -0.356 OA
HETATM   22  C   UNL     1       9.025  20.323  56.053  1.00  0.00     0.210 C 
ENDBRANCH  18  21
ENDBRANCH  13  15
ENDBRANCH  12  13
ENDBRANCH   6  11
ENDBRANCH   1   2
BRANCH   1  23
HETATM   23  C   UNL     1       9.021  31.618  59.027  1.00  0.00     0.162 C 
BRANCH  23  24
HETATM   24  O   UNL     1      10.222  32.211  58.492  1.00  0.00    -0.392 OA
HETATM   25  H   UNL     1      10.276  31.987  57.541  1.00  0.00     0.210 HD
ENDBRANCH  23  24
BRANCH  23  26
HETATM   26  C   UNL     1       8.891  32.100  60.485  1.00  0.00     0.265 C 
BRANCH  26  27
HETATM   27  N   UNL     1       8.036  31.094  61.217  1.00  0.00    -0.072 N 
HETATM   28  H   UNL     1       7.070  31.249  60.873  1.00  0.00     0.277 HD
HETATM   29  H   UNL     1       8.270  30.150  60.887  1.00  0.00     0.277 HD
BRANCH  27  30
HETATM   30  C   UNL     1       8.096  31.118  62.708  1.00  0.00     0.237 C 
BRANCH  30  31
HETATM   31  C   UNL     1       8.039  32.539  63.271  1.00  0.00     0.068 C 
BRANCH  31  32
HETATM   32  C   UNL     1       6.657  32.875  63.725  1.00  0.00    -0.029 A 
HETATM   33  C   UNL     1       6.295  33.433  64.993  1.00  0.00     0.001 A 
HETATM   34  C   UNL     1       4.907  33.549  65.018  1.00  0.00     0.043 A 
HETATM   35  C   UNL     1       7.021  33.843  66.130  1.00  0.00     0.051 A 
HETATM   36  C   UNL     1       4.212  34.044  66.127  1.00  0.00     0.033 A 
HETATM   37  N   UNL     1       4.440  33.109  63.802  1.00  0.00    -0.365 N 
HETATM   38  C   UNL     1       4.958  34.434  67.247  1.00  0.00     0.039 A 
HETATM   39  C   UNL     1       6.348  34.341  67.254  1.00  0.00     0.069 A 
HETATM   40  H   UNL     1       3.464  33.098  63.533  1.00  0.00     0.165 HD
HETATM   41  C   UNL     1       5.486  32.691  63.019  1.00  0.00     0.096 A 
BRANCH  39  42
HETATM   42  O   UNL     1       7.174  34.689  68.289  1.00  0.00    -0.356 OA
HETATM   43  C   UNL     1       6.761  34.305  69.597  1.00  0.00     0.210 C 
ENDBRANCH  39  42
ENDBRANCH  31  32
ENDBRANCH  30  31
ENDBRANCH  27  30
ENDBRANCH  26  27
ENDBRANCH  23  26
ENDBRANCH   1  23
TORSDOF 13
ENDMDL
MODEL 2
REMARK VINA RESULT:     -10.1      2.425      3.931
REMARK  13 active torsions:
REMARK  status: ('A' for Active; 'I' for Inactive)
REMARK    1  A    between atoms: O_2  and  C_3 
REMARK    2  A    between atoms: C_6  and  C_7 
REMARK    3  A    between atoms: C_7  and  C_8 
REMARK    4  A    between atoms: C_9  and  C_10 
REMARK    5  A    between atoms: N_17  and  C_18 
REMARK    6  A    between atoms: C_18  and  C_19 
REMARK    7  A    between atoms: C_19  and  O_20 
REMARK    8  A    between atoms: C_19  and  C_21 
REMARK    9  A    between atoms: C_21  and  N_22 
REMARK   10  A    between atoms: N_22  and  C_25 
REMARK   11  A    between atoms: C_25  and  C_26 
REMARK   12  A    between atoms: C_26  and  C_27 
REMARK   13  A    between atoms: C_32  and  O_33 
ROOT
HETATM    1  C   UNL     1       3.904  31.260  57.565  1.00  0.00     0.162 C 
ENDROOT
BRANCH   1   2
HETATM    2  N   UNL     1       4.717  30.134  57.130  1.00  0.00    -0.353 N 
HETATM    3  C   UNL     1       6.052  29.938  57.418  1.00  0.00     0.045 A 
HETATM    4  C   UNL     1       6.393  28.673  56.922  1.00  0.00     0.002 A 
HETATM    5  C   UNL     1       6.987  30.751  58.081  1.00  0.00     0.030 A 
HETATM    6  C   UNL     1       5.240  28.161  56.250  1.00  0.00    -0.008 A 
HETATM    7  C   UNL     1       7.701  28.192  57.159  1.00  0.00     0.014 A 
HETATM    8  C   UNL     1       4.222  29.074  56.417  1.00  0.00     0.103 A 
HETATM    9  C   UNL     1       8.630  28.990  57.832  1.00  0.00     0.001 A 
HETATM   10  C   UNL     1       8.279  30.258  58.275  1.00  0.00     0.002 A 
BRANCH   6  11
HETATM   11  C   UNL     1       5.075  26.946  55.516  1.00  0.00     0.018 C 
HETATM   12  C   UNL     1       5.895  26.524  54.538  1.00  0.00     0.056 C 
BRANCH  12  13
HETATM   13  C   UNL     1       5.640  25.232  53.848  1.00  0.00     0.182 C 
HETATM   14  O   UNL     1       4.629  25.074  53.168  1.00  0.00    -0.288 OA
BRANCH  13  15
HETATM   15  C   UNL     1       6.604  24.104  54.040  1.00  0.00     0.014 A 
HETATM   16  C   UNL     1       7.277  23.464  52.990  1.00  0.00     0.018 A 
HETATM   17  C   UNL     1       8.217  22.456  53.252  1.00  0.00     0.037 A 
HETATM   18  C   UNL     1       8.490  22.069  54.562  1.00  0.00     0.068 A 
HETATM   19  C   UNL     1       7.790  22.672  55.608  1.00  0.00     0.037 A 
HETATM   20  C   UNL     1       6.858  23.682  55.351  1.00  0.00     0.018 A 
BRANCH  18  21
HETATM   21  O   UNL     1       9.393  21.116  54.943  1.00  0.00    -0.356 OA
HETATM   22  C   UNL     1       9.192  20.518  56.219  1.00  0.00     0.210 C 
ENDBRANCH  18  21
ENDBRANCH  13  15
ENDBRANCH  12  13
ENDBRANCH   6  11
ENDBRANCH   1   2
BRANCH   1  23
HETATM   23  C   UNL     1       3.848  31.451  59.092  1.00  0.00     0.162 C 
BRANCH  23  24
HETATM   24  O   UNL     1       2.950  30.527  59.740  1.00  0.00    -0.392 OA
HETATM   25  H   UNL     1       3.384  30.197  60.552  1.00  0.00     0.210 HD
ENDBRANCH  23  24
BRANCH  23  26
HETATM   26  C   UNL     1       3.445  32.867  59.548  1.00  0.00     0.265 C 
BRANCH  26  27
HETATM   27  N   UNL     1       2.990  32.766  60.983  1.00  0.00    -0.072 N 
HETATM   28  H   UNL     1       2.164  32.140  60.968  1.00  0.00     0.277 HD
HETATM   29  H   UNL     1       3.690  32.243  61.522  1.00  0.00     0.277 HD
BRANCH  27  30
HETATM   30  C   UNL     1       2.693  34.048  61.686  1.00  0.00     0.237 C 
BRANCH  30  31
HETATM   31  C   UNL     1       3.814  35.076  61.524  1.00  0.00     0.068 C 
BRANCH  31  32
HETATM   32  C   UNL     1       4.767  35.007  62.671  1.00  0.00    -0.029 A 
HETATM   33  C   UNL     1       5.846  34.077  62.820  1.00  0.00     0.001 A 
HETATM   34  C   UNL     1       6.454  34.335  64.047  1.00  0.00     0.043 A 
HETATM   35  C   UNL     1       6.358  33.030  62.028  1.00  0.00     0.051 A 
HETATM   36  C   UNL     1       7.539  33.591  64.522  1.00  0.00     0.033 A 
HETATM   37  N   UNL     1       5.793  35.401  64.612  1.00  0.00    -0.365 N 
HETATM   38  C   UNL     1       8.021  32.549  63.718  1.00  0.00     0.039 A 
HETATM   39  C   UNL     1       7.444  32.269  62.481  1.00  0.00     0.069 A 
HETATM   40  H   UNL     1       6.035  35.817  65.502  1.00  0.00     0.165 HD
HETATM   41  C   UNL     1       4.769  35.807  63.796  1.00  0.00     0.096 A 
BRANCH  39  42
HETATM   42  O   UNL     1       7.829  31.278  61.618  1.00  0.00    -0.356 OA
HETATM   43  C   UNL     1       9.067  30.631  61.895  1.00  0.00     0.210 C 
ENDBRANCH  39  42
ENDBRANCH  31  32
ENDBRANCH  30  31
ENDBRANCH  27  30
ENDBRANCH  26  27
ENDBRANCH  23  26
ENDBRANCH   1  23
TORSDOF 13
ENDMDL
MODEL 3
REMARK VINA RESULT:      -9.9      2.197     12.903
REMARK  13 active torsions:
REMARK  status: ('A' for Active; 'I' for Inactive)
REMARK    1  A    between atoms: O_2  and  C_3 
REMARK    2  A    between atoms: C_6  and  C_7 
REMARK    3  A    between atoms: C_7  and  C_8 
REMARK    4  A    between atoms: C_9  and  C_10 
REMARK    5  A    between atoms: N_17  and  C_18 
REMARK    6  A    between atoms: C_18  and  C_19 
REMARK    7  A    between atoms: C_19  and  O_20 
REMARK    8  A    between atoms: C_19  and  C_21 
REMARK    9  A    between atoms: C_21  and  N_22 
REMARK   10  A    between atoms: N_22  and  C_25 
REMARK   11  A    between atoms: C_25  and  C_26 
REMARK   12  A    between atoms: C_26  and  C_27 
REMARK   13  A    between atoms: C_32  and  O_33 
ROOT
HETATM    1  C   UNL     1       5.639  31.610  57.594  1.00  0.00     0.162 C 
ENDROOT
BRANCH   1   2
HETATM    2  N   UNL     1       5.989  31.959  58.962  1.00  0.00    -0.353 N 
HETATM    3  C   UNL     1       7.183  31.674  59.592  1.00  0.00     0.045 A 
HETATM    4  C   UNL     1       7.143  32.306  60.843  1.00  0.00     0.002 A 
HETATM    5  C   UNL     1       8.298  30.929  59.173  1.00  0.00     0.030 A 
HETATM    6  C   UNL     1       5.850  32.902  60.971  1.00  0.00    -0.008 A 
HETATM    7  C   UNL     1       8.291  32.235  61.664  1.00  0.00     0.014 A 
HETATM    8  C   UNL     1       5.175  32.689  59.789  1.00  0.00     0.103 A 
HETATM    9  C   UNL     1       9.409  31.509  61.245  1.00  0.00     0.001 A 
HETATM   10  C   UNL     1       9.406  30.856  60.021  1.00  0.00     0.002 A 
BRANCH   6  11
HETATM   11  C   UNL     1       5.273  33.604  62.074  1.00  0.00     0.018 C 
HETATM   12  C   UNL     1       4.885  33.033  63.227  1.00  0.00     0.056 C 
BRANCH  12  13
HETATM   13  C   UNL     1       4.311  33.861  64.320  1.00  0.00     0.182 C 
HETATM   14  O   UNL     1       3.259  34.473  64.155  1.00  0.00    -0.288 OA
BRANCH  13  15
HETATM   15  C   UNL     1       5.063  33.986  65.608  1.00  0.00     0.014 A 
HETATM   16  C   UNL     1       6.461  33.944  65.704  1.00  0.00     0.018 A 
HETATM   17  C   UNL     1       7.099  34.133  66.938  1.00  0.00     0.037 A 
HETATM   18  C   UNL     1       6.351  34.358  68.092  1.00  0.00     0.068 A 
HETATM   19  C   UNL     1       4.958  34.357  68.009  1.00  0.00     0.037 A 
HETATM   20  C   UNL     1       4.318  34.176  66.779  1.00  0.00     0.018 A 
BRANCH  18  21
HETATM   21  O   UNL     1       6.856  34.574  69.344  1.00  0.00    -0.356 OA
HETATM   22  C   UNL     1       5.912  34.827  70.379  1.00  0.00     0.210 C 
ENDBRANCH  18  21
ENDBRANCH  13  15
ENDBRANCH  12  13
ENDBRANCH   6  11
ENDBRANCH   1   2
BRANCH   1  23
HETATM   23  C   UNL     1       4.845  30.297  57.457  1.00  0.00     0.162 C 
BRANCH  23  24
HETATM   24  O   UNL     1       3.866  30.122  58.501  1.00  0.00    -0.392 OA
HETATM   25  H   UNL     1       4.072  29.293  58.977  1.00  0.00     0.210 HD
ENDBRANCH  23  24
BRANCH  23  26
HETATM   26  C   UNL     1       5.711  29.023  57.431  1.00  0.00     0.265 C 
BRANCH  26  27
HETATM   27  N   UNL     1       5.861  28.610  55.988  1.00  0.00    -0.072 N 
HETATM   28  H   UNL     1       5.199  27.824  55.854  1.00  0.00     0.277 HD
HETATM   29  H   UNL     1       5.492  29.354  55.385  1.00  0.00     0.277 HD
BRANCH  27  30
HETATM   30  C   UNL     1       7.236  28.252  55.531  1.00  0.00     0.237 C 
BRANCH  30  31
HETATM   31  C   UNL     1       7.279  26.905  54.808  1.00  0.00     0.068 C 
BRANCH  31  32
HETATM   32  C   UNL     1       7.630  25.805  55.755  1.00  0.00    -0.029 A 
HETATM   33  C   UNL     1       7.875  24.437  55.410  1.00  0.00     0.001 A 
HETATM   34  C   UNL     1       8.127  23.746  56.593  1.00  0.00     0.043 A 
HETATM   35  C   UNL     1       7.897  23.718  54.198  1.00  0.00     0.051 A 
HETATM   36  C   UNL     1       8.389  22.372  56.622  1.00  0.00     0.033 A 
HETATM   37  N   UNL     1       8.069  24.661  57.619  1.00  0.00    -0.365 N 
HETATM   38  C   UNL     1       8.394  21.680  55.404  1.00  0.00     0.039 A 
HETATM   39  C   UNL     1       8.156  22.340  54.201  1.00  0.00     0.069 A 
HETATM   40  H   UNL     1       8.232  24.439  58.593  1.00  0.00     0.165 HD
HETATM   41  C   UNL     1       7.760  25.903  57.125  1.00  0.00     0.096 A 
BRANCH  39  42
HETATM   42  O   UNL     1       8.134  21.767  52.957  1.00  0.00    -0.356 OA
HETATM   43  C   UNL     1       8.325  20.357  52.897  1.00  0.00     0.210 C 
ENDBRANCH  39  42
ENDBRANCH  31  32
ENDBRANCH  30  31
ENDBRANCH  27  30
ENDBRANCH  26  27
ENDBRANCH  23  26
ENDBRANCH   1  23
TORSDOF 13
ENDMDL
MODEL 4
REMARK VINA RESULT:      -9.9      1.824      2.645
REMARK  13 active torsions:
REMARK  status: ('A' for Active; 'I' for Inactive)
REMARK    1  A    between atoms: O_2  and  C_3 
REMARK    2  A    between atoms: C_6  and  C_7 
REMARK    3  A    between atoms: C_7  and  C_8 
REMARK    4  A    between atoms: C_9  and  C_10 
REMARK    5  A    between atoms: N_17  and  C_18 
REMARK    6  A    between atoms: C_18  and  C_19 
REMARK    7  A    between atoms: C_19  and  O_20 
REMARK    8  A    between atoms: C_19  and  C_21 
REMARK    9  A    between atoms: C_21  and  N_22 
REMARK   10  A    between atoms: N_22  and  C_25 
REMARK   11  A    between atoms: C_25  and  C_26 
REMARK   12  A    between atoms: C_26  and  C_27 
REMARK   13  A    between atoms: C_32  and  O_33 
ROOT
HETATM    1  C   UNL     1       8.595  30.198  59.110  1.00  0.00     0.162 C 
ENDROOT
BRANCH   1   2
HETATM    2  N   UNL     1       7.884  29.738  57.927  1.00  0.00    -0.353 N 
HETATM    3  C   UNL     1       6.668  30.208  57.477  1.00  0.00     0.045 A 
HETATM    4  C   UNL     1       6.424  29.589  56.244  1.00  0.00     0.002 A 
HETATM    5  C   UNL     1       5.766  31.129  58.035  1.00  0.00     0.030 A 
HETATM    6  C   UNL     1       7.494  28.668  56.017  1.00  0.00    -0.008 A 
HETATM    7  C   UNL     1       5.265  29.963  55.526  1.00  0.00     0.014 A 
HETATM    8  C   UNL     1       8.384  28.802  57.059  1.00  0.00     0.103 A 
HETATM    9  C   UNL     1       4.373  30.891  56.069  1.00  0.00     0.001 A 
HETATM   10  C   UNL     1       4.616  31.456  57.313  1.00  0.00     0.002 A 
BRANCH   6  11
HETATM   11  C   UNL     1       7.691  27.743  54.947  1.00  0.00     0.018 C 
HETATM   12  C   UNL     1       6.916  26.672  54.708  1.00  0.00     0.056 C 
BRANCH  12  13
HETATM   13  C   UNL     1       7.200  25.780  53.552  1.00  0.00     0.182 C 
HETATM   14  O   UNL     1       7.049  26.180  52.400  1.00  0.00    -0.288 OA
BRANCH  13  15
HETATM   15  C   UNL     1       7.620  24.368  53.811  1.00  0.00     0.014 A 
HETATM   16  C   UNL     1       7.620  23.361  52.835  1.00  0.00     0.018 A 
HETATM   17  C   UNL     1       8.089  22.074  53.135  1.00  0.00     0.037 A 
HETATM   18  C   UNL     1       8.555  21.773  54.414  1.00  0.00     0.068 A 
HETATM   19  C   UNL     1       8.516  22.759  55.400  1.00  0.00     0.037 A 
HETATM   20  C   UNL     1       8.056  24.046  55.102  1.00  0.00     0.018 A 
BRANCH  18  21
HETATM   21  O   UNL     1       9.052  20.567  54.821  1.00  0.00    -0.356 OA
HETATM   22  C   UNL     1       9.189  20.372  56.224  1.00  0.00     0.210 C 
ENDBRANCH  18  21
ENDBRANCH  13  15
ENDBRANCH  12  13
ENDBRANCH   6  11
ENDBRANCH   1   2
BRANCH   1  23
HETATM   23  C   UNL     1       8.698  31.730  59.234  1.00  0.00     0.162 C 
BRANCH  23  24
HETATM   24  O   UNL     1       9.954  32.248  58.752  1.00  0.00    -0.392 OA
HETATM   25  H   UNL     1      10.637  31.558  58.874  1.00  0.00     0.210 HD
ENDBRANCH  23  24
BRANCH  23  26
HETATM   26  C   UNL     1       8.504  32.273  60.663  1.00  0.00     0.265 C 
BRANCH  26  27
HETATM   27  N   UNL     1       7.244  31.651  61.214  1.00  0.00    -0.072 N 
HETATM   28  H   UNL     1       6.464  32.201  60.812  1.00  0.00     0.277 HD
HETATM   29  H   UNL     1       7.126  30.715  60.807  1.00  0.00     0.277 HD
BRANCH  27  30
HETATM   30  C   UNL     1       7.137  31.552  62.699  1.00  0.00     0.237 C 
BRANCH  30  31
HETATM   31  C   UNL     1       7.963  32.621  63.416  1.00  0.00     0.068 C 
BRANCH  31  32
HETATM   32  C   UNL     1       7.081  33.540  64.194  1.00  0.00    -0.029 A 
HETATM   33  C   UNL     1       6.159  34.491  63.650  1.00  0.00     0.001 A 
HETATM   34  C   UNL     1       5.573  35.164  64.719  1.00  0.00     0.043 A 
HETATM   35  C   UNL     1       5.775  34.850  62.342  1.00  0.00     0.051 A 
HETATM   36  C   UNL     1       4.631  36.184  64.542  1.00  0.00     0.033 A 
HETATM   37  N   UNL     1       6.091  34.625  65.873  1.00  0.00    -0.365 N 
HETATM   38  C   UNL     1       4.276  36.527  63.231  1.00  0.00     0.039 A 
HETATM   39  C   UNL     1       4.834  35.869  62.138  1.00  0.00     0.069 A 
HETATM   40  H   UNL     1       5.827  34.912  66.807  1.00  0.00     0.165 HD
HETATM   41  C   UNL     1       7.008  33.652  65.568  1.00  0.00     0.096 A 
BRANCH  39  42
HETATM   42  O   UNL     1       4.565  36.122  60.820  1.00  0.00    -0.356 OA
HETATM   43  C   UNL     1       3.776  35.158  60.129  1.00  0.00     0.210 C 
ENDBRANCH  39  42
ENDBRANCH  31  32
ENDBRANCH  30  31
ENDBRANCH  27  30
ENDBRANCH  26  27
ENDBRANCH  23  26
ENDBRANCH   1  23
TORSDOF 13
ENDMDL
MODEL 5
REMARK VINA RESULT:      -9.8      2.308     12.631
REMARK  13 active torsions:
REMARK  status: ('A' for Active; 'I' for Inactive)
REMARK    1  A    between atoms: O_2  and  C_3 
REMARK    2  A    between atoms: C_6  and  C_7 
REMARK    3  A    between atoms: C_7  and  C_8 
REMARK    4  A    between atoms: C_9  and  C_10 
REMARK    5  A    between atoms: N_17  and  C_18 
REMARK    6  A    between atoms: C_18  and  C_19 
REMARK    7  A    between atoms: C_19  and  O_20 
REMARK    8  A    between atoms: C_19  and  C_21 
REMARK    9  A    between atoms: C_21  and  N_22 
REMARK   10  A    between atoms: N_22  and  C_25 
REMARK   11  A    between atoms: C_25  and  C_26 
REMARK   12  A    between atoms: C_26  and  C_27 
REMARK   13  A    between atoms: C_32  and  O_33 
ROOT
HETATM    1  C   UNL     1       5.719  31.393  57.033  1.00  0.00     0.162 C 
ENDROOT
BRANCH   1   2
HETATM    2  N   UNL     1       6.013  31.790  58.402  1.00  0.00    -0.353 N 
HETATM    3  C   UNL     1       7.237  31.689  59.030  1.00  0.00     0.045 A 
HETATM    4  C   UNL     1       7.103  32.306  60.281  1.00  0.00     0.002 A 
HETATM    5  C   UNL     1       8.452  31.123  58.609  1.00  0.00     0.030 A 
HETATM    6  C   UNL     1       5.735  32.698  60.412  1.00  0.00    -0.008 A 
HETATM    7  C   UNL     1       8.250  32.410  61.102  1.00  0.00     0.014 A 
HETATM    8  C   UNL     1       5.099  32.387  59.230  1.00  0.00     0.103 A 
HETATM    9  C   UNL     1       9.465  31.863  60.681  1.00  0.00     0.001 A 
HETATM   10  C   UNL     1       9.559  31.218  59.456  1.00  0.00     0.002 A 
BRANCH   6  11
HETATM   11  C   UNL     1       5.059  33.303  61.516  1.00  0.00     0.018 C 
HETATM   12  C   UNL     1       4.676  32.654  62.628  1.00  0.00     0.056 C 
BRANCH  12  13
HETATM   13  C   UNL     1       3.993  33.386  63.728  1.00  0.00     0.182 C 
HETATM   14  O   UNL     1       2.816  33.723  63.619  1.00  0.00    -0.288 OA
BRANCH  13  15
HETATM   15  C   UNL     1       4.774  33.758  64.948  1.00  0.00     0.014 A 
HETATM   16  C   UNL     1       4.194  34.227  66.135  1.00  0.00     0.018 A 
HETATM   17  C   UNL     1       4.985  34.495  67.261  1.00  0.00     0.037 A 
HETATM   18  C   UNL     1       6.366  34.305  67.215  1.00  0.00     0.068 A 
HETATM   19  C   UNL     1       6.952  33.880  66.023  1.00  0.00     0.037 A 
HETATM   20  C   UNL     1       6.166  33.605  64.900  1.00  0.00     0.018 A 
BRANCH  18  21
HETATM   21  O   UNL     1       7.236  34.512  68.248  1.00  0.00    -0.356 OA
HETATM   22  C   UNL     1       6.671  34.911  69.491  1.00  0.00     0.210 C 
ENDBRANCH  18  21
ENDBRANCH  13  15
ENDBRANCH  12  13
ENDBRANCH   6  11
ENDBRANCH   1   2
BRANCH   1  23
HETATM   23  C   UNL     1       5.197  29.951  56.888  1.00  0.00     0.162 C 
BRANCH  23  24
HETATM   24  O   UNL     1       4.688  29.412  58.125  1.00  0.00    -0.392 OA
HETATM   25  H   UNL     1       3.712  29.380  58.066  1.00  0.00     0.210 HD
ENDBRANCH  23  24
BRANCH  23  26
HETATM   26  C   UNL     1       6.232  28.944  56.349  1.00  0.00     0.265 C 
BRANCH  26  27
HETATM   27  N   UNL     1       6.604  28.028  57.488  1.00  0.00    -0.072 N 
HETATM   28  H   UNL     1       6.880  28.653  58.268  1.00  0.00     0.277 HD
HETATM   29  H   UNL     1       5.759  27.558  57.832  1.00  0.00     0.277 HD
BRANCH  27  30
HETATM   30  C   UNL     1       7.652  27.002  57.211  1.00  0.00     0.237 C 
BRANCH  30  31
HETATM   31  C   UNL     1       7.171  25.581  57.507  1.00  0.00     0.068 C 
BRANCH  31  32
HETATM   32  C   UNL     1       7.756  24.610  56.536  1.00  0.00    -0.029 A 
HETATM   33  C   UNL     1       7.635  24.662  55.110  1.00  0.00     0.001 A 
HETATM   34  C   UNL     1       8.293  23.548  54.593  1.00  0.00     0.043 A 
HETATM   35  C   UNL     1       7.016  25.551  54.208  1.00  0.00     0.051 A 
HETATM   36  C   UNL     1       8.353  23.276  53.222  1.00  0.00     0.033 A 
HETATM   37  N   UNL     1       8.823  22.858  55.659  1.00  0.00    -0.365 N 
HETATM   38  C   UNL     1       7.720  24.171  52.349  1.00  0.00     0.039 A 
HETATM   39  C   UNL     1       7.061  25.300  52.829  1.00  0.00     0.069 A 
HETATM   40  H   UNL     1       9.373  22.012  55.576  1.00  0.00     0.165 HD
HETATM   41  C   UNL     1       8.497  23.484  56.834  1.00  0.00     0.096 A 
BRANCH  39  42
HETATM   42  O   UNL     1       6.409  26.236  52.072  1.00  0.00    -0.356 OA
HETATM   43  C   UNL     1       5.287  25.785  51.319  1.00  0.00     0.210 C 
ENDBRANCH  39  42
ENDBRANCH  31  32
ENDBRANCH  30  31
ENDBRANCH  27  30
ENDBRANCH  26  27
ENDBRANCH  23  26
ENDBRANCH   1  23
TORSDOF 13
ENDMDL
MODEL 6
REMARK VINA RESULT:      -9.8      2.484     12.136
REMARK  13 active torsions:
REMARK  status: ('A' for Active; 'I' for Inactive)
REMARK    1  A    between atoms: O_2  and  C_3 
REMARK    2  A    between atoms: C_6  and  C_7 
REMARK    3  A    between atoms: C_7  and  C_8 
REMARK    4  A    between atoms: C_9  and  C_10 
REMARK    5  A    between atoms: N_17  and  C_18 
REMARK    6  A    between atoms: C_18  and  C_19 
REMARK    7  A    between atoms: C_19  and  O_20 
REMARK    8  A    between atoms: C_19  and  C_21 
REMARK    9  A    between atoms: C_21  and  N_22 
REMARK   10  A    between atoms: N_22  and  C_25 
REMARK   11  A    between atoms: C_25  and  C_26 
REMARK   12  A    between atoms: C_26  and  C_27 
REMARK   13  A    between atoms: C_32  and  O_33 
ROOT
HETATM    1  C   UNL     1       6.198  28.669  55.055  1.00  0.00     0.162 C 
ENDROOT
BRANCH   1   2
HETATM    2  N   UNL     1       6.251  29.727  56.053  1.00  0.00    -0.353 N 
HETATM    3  C   UNL     1       5.433  30.836  56.104  1.00  0.00     0.045 A 
HETATM    4  C   UNL     1       5.738  31.512  57.293  1.00  0.00     0.002 A 
HETATM    5  C   UNL     1       4.445  31.301  55.220  1.00  0.00     0.030 A 
HETATM    6  C   UNL     1       6.827  30.816  57.904  1.00  0.00    -0.008 A 
HETATM    7  C   UNL     1       4.976  32.655  57.627  1.00  0.00     0.014 A 
HETATM    8  C   UNL     1       7.102  29.711  57.128  1.00  0.00     0.103 A 
HETATM    9  C   UNL     1       3.981  33.112  56.759  1.00  0.00     0.001 A 
HETATM   10  C   UNL     1       3.729  32.449  55.566  1.00  0.00     0.002 A 
BRANCH   6  11
HETATM   11  C   UNL     1       7.559  31.126  59.091  1.00  0.00     0.018 C 
HETATM   12  C   UNL     1       7.060  31.793  60.146  1.00  0.00     0.056 C 
BRANCH  12  13
HETATM   13  C   UNL     1       7.906  32.048  61.342  1.00  0.00     0.182 C 
HETATM   14  O   UNL     1       9.057  31.623  61.397  1.00  0.00    -0.288 OA
BRANCH  13  15
HETATM   15  C   UNL     1       7.316  32.782  62.505  1.00  0.00     0.014 A 
HETATM   16  C   UNL     1       7.870  32.779  63.793  1.00  0.00     0.018 A 
HETATM   17  C   UNL     1       7.297  33.544  64.820  1.00  0.00     0.037 A 
HETATM   18  C   UNL     1       6.160  34.313  64.577  1.00  0.00     0.068 A 
HETATM   19  C   UNL     1       5.580  34.283  63.308  1.00  0.00     0.037 A 
HETATM   20  C   UNL     1       6.153  33.528  62.280  1.00  0.00     0.018 A 
BRANCH  18  21
HETATM   21  O   UNL     1       5.524  35.110  65.486  1.00  0.00    -0.356 OA
HETATM   22  C   UNL     1       4.237  35.596  65.121  1.00  0.00     0.210 C 
ENDBRANCH  18  21
ENDBRANCH  13  15
ENDBRANCH  12  13
ENDBRANCH   6  11
ENDBRANCH   1   2
BRANCH   1  23
HETATM   23  C   UNL     1       4.821  27.994  54.917  1.00  0.00     0.162 C 
BRANCH  23  24
HETATM   24  O   UNL     1       4.501  27.138  56.032  1.00  0.00    -0.392 OA
HETATM   25  H   UNL     1       4.983  27.467  56.818  1.00  0.00     0.210 HD
ENDBRANCH  23  24
BRANCH  23  26
HETATM   26  C   UNL     1       4.643  27.154  53.637  1.00  0.00     0.265 C 
BRANCH  26  27
HETATM   27  N   UNL     1       4.699  25.701  54.041  1.00  0.00    -0.072 N 
HETATM   28  H   UNL     1       4.815  25.704  55.071  1.00  0.00     0.277 HD
HETATM   29  H   UNL     1       3.776  25.276  53.894  1.00  0.00     0.277 HD
BRANCH  27  30
HETATM   30  C   UNL     1       5.735  24.858  53.376  1.00  0.00     0.237 C 
BRANCH  30  31
HETATM   31  C   UNL     1       7.155  25.233  53.802  1.00  0.00     0.068 C 
BRANCH  31  32
HETATM   32  C   UNL     1       7.499  24.605  55.112  1.00  0.00    -0.029 A 
HETATM   33  C   UNL     1       7.837  23.230  55.328  1.00  0.00     0.001 A 
HETATM   34  C   UNL     1       8.046  23.061  56.696  1.00  0.00     0.043 A 
HETATM   35  C   UNL     1       7.976  22.108  54.487  1.00  0.00     0.051 A 
HETATM   36  C   UNL     1       8.376  21.824  57.260  1.00  0.00     0.033 A 
HETATM   37  N   UNL     1       7.874  24.290  57.288  1.00  0.00    -0.365 N 
HETATM   38  C   UNL     1       8.497  20.723  56.402  1.00  0.00     0.039 A 
HETATM   39  C   UNL     1       8.304  20.857  55.029  1.00  0.00     0.069 A 
HETATM   40  H   UNL     1       7.984  24.468  58.279  1.00  0.00     0.165 HD
HETATM   41  C   UNL     1       7.535  25.225  56.344  1.00  0.00     0.096 A 
BRANCH  39  42
HETATM   42  O   UNL     1       8.393  19.854  54.101  1.00  0.00    -0.356 OA
HETATM   43  C   UNL     1       8.556  20.250  52.742  1.00  0.00     0.210 C 
ENDBRANCH  39  42
ENDBRANCH  31  32
ENDBRANCH  30  31
ENDBRANCH  27  30
ENDBRANCH  26  27
ENDBRANCH  23  26
ENDBRANCH   1  23
TORSDOF 13
ENDMDL
MODEL 7
REMARK VINA RESULT:      -9.8      3.814      7.125
REMARK  13 active torsions:
REMARK  status: ('A' for Active; 'I' for Inactive)
REMARK    1  A    between atoms: O_2  and  C_3 
REMARK    2  A    between atoms: C_6  and  C_7 
REMARK    3  A    between atoms: C_7  and  C_8 
REMARK    4  A    between atoms: C_9  and  C_10 
REMARK    5  A    between atoms: N_17  and  C_18 
REMARK    6  A    between atoms: C_18  and  C_19 
REMARK    7  A    between atoms: C_19  and  O_20 
REMARK    8  A    between atoms: C_19  and  C_21 
REMARK    9  A    between atoms: C_21  and  N_22 
REMARK   10  A    between atoms: N_22  and  C_25 
REMARK   11  A    between atoms: C_25  and  C_26 
REMARK   12  A    between atoms: C_26  and  C_27 
REMARK   13  A    between atoms: C_32  and  O_33 
ROOT
HETATM    1  C   UNL     1       6.164  25.300  56.819  1.00  0.00     0.162 C 
ENDROOT
BRANCH   1   2
HETATM    2  N   UNL     1       6.303  24.950  55.414  1.00  0.00    -0.353 N 
HETATM    3  C   UNL     1       7.150  23.992  54.897  1.00  0.00     0.045 A 
HETATM    4  C   UNL     1       6.864  23.892  53.529  1.00  0.00     0.002 A 
HETATM    5  C   UNL     1       8.134  23.197  55.508  1.00  0.00     0.030 A 
HETATM    6  C   UNL     1       5.879  24.885  53.233  1.00  0.00    -0.008 A 
HETATM    7  C   UNL     1       7.547  22.913  52.772  1.00  0.00     0.014 A 
HETATM    8  C   UNL     1       5.541  25.502  54.417  1.00  0.00     0.103 A 
HETATM    9  C   UNL     1       8.515  22.108  53.379  1.00  0.00     0.001 A 
HETATM   10  C   UNL     1       8.811  22.258  54.727  1.00  0.00     0.002 A 
BRANCH   6  11
HETATM   11  C   UNL     1       5.295  25.247  51.980  1.00  0.00     0.018 C 
HETATM   12  C   UNL     1       5.452  26.438  51.377  1.00  0.00     0.056 C 
BRANCH  12  13
HETATM   13  C   UNL     1       4.812  26.705  50.062  1.00  0.00     0.182 C 
HETATM   14  O   UNL     1       4.248  25.804  49.446  1.00  0.00    -0.288 OA
BRANCH  13  15
HETATM   15  C   UNL     1       4.915  28.075  49.469  1.00  0.00     0.014 A 
HETATM   16  C   UNL     1       4.488  28.400  48.174  1.00  0.00     0.018 A 
HETATM   17  C   UNL     1       4.556  29.722  47.709  1.00  0.00     0.037 A 
HETATM   18  C   UNL     1       5.059  30.733  48.527  1.00  0.00     0.068 A 
HETATM   19  C   UNL     1       5.526  30.406  49.800  1.00  0.00     0.037 A 
HETATM   20  C   UNL     1       5.452  29.091  50.270  1.00  0.00     0.018 A 
BRANCH  18  21
HETATM   21  O   UNL     1       5.158  32.054  48.195  1.00  0.00    -0.356 OA
HETATM   22  C   UNL     1       5.083  32.374  46.810  1.00  0.00     0.210 C 
ENDBRANCH  18  21
ENDBRANCH  13  15
ENDBRANCH  12  13
ENDBRANCH   6  11
ENDBRANCH   1   2
BRANCH   1  23
HETATM   23  C   UNL     1       7.203  26.318  57.327  1.00  0.00     0.162 C 
BRANCH  23  24
HETATM   24  O   UNL     1       7.678  26.018  58.655  1.00  0.00    -0.392 OA
HETATM   25  H   UNL     1       7.478  25.080  58.847  1.00  0.00     0.210 HD
ENDBRANCH  23  24
BRANCH  23  26
HETATM   26  C   UNL     1       6.717  27.780  57.340  1.00  0.00     0.265 C 
BRANCH  26  27
HETATM   27  N   UNL     1       7.476  28.497  58.429  1.00  0.00    -0.072 N 
HETATM   28  H   UNL     1       6.850  28.488  59.255  1.00  0.00     0.277 HD
HETATM   29  H   UNL     1       8.277  27.921  58.716  1.00  0.00     0.277 HD
BRANCH  27  30
HETATM   30  C   UNL     1       7.955  29.876  58.119  1.00  0.00     0.237 C 
BRANCH  30  31
HETATM   31  C   UNL     1       7.193  30.948  58.900  1.00  0.00     0.068 C 
BRANCH  31  32
HETATM   32  C   UNL     1       7.869  31.240  60.199  1.00  0.00    -0.029 A 
HETATM   33  C   UNL     1       7.303  31.948  61.307  1.00  0.00     0.001 A 
HETATM   34  C   UNL     1       8.282  32.031  62.294  1.00  0.00     0.043 A 
HETATM   35  C   UNL     1       6.048  32.537  61.559  1.00  0.00     0.051 A 
HETATM   36  C   UNL     1       8.069  32.683  63.514  1.00  0.00     0.033 A 
HETATM   37  N   UNL     1       9.393  31.373  61.822  1.00  0.00    -0.365 N 
HETATM   38  C   UNL     1       6.815  33.268  63.734  1.00  0.00     0.039 A 
HETATM   39  C   UNL     1       5.809  33.197  62.773  1.00  0.00     0.069 A 
HETATM   40  H   UNL     1      10.255  31.258  62.341  1.00  0.00     0.165 HD
HETATM   41  C   UNL     1       9.158  30.900  60.556  1.00  0.00     0.096 A 
BRANCH  39  42
HETATM   42  O   UNL     1       4.554  33.732  62.879  1.00  0.00    -0.356 OA
HETATM   43  C   UNL     1       3.521  33.100  62.130  1.00  0.00     0.210 C 
ENDBRANCH  39  42
ENDBRANCH  31  32
ENDBRANCH  30  31
ENDBRANCH  27  30
ENDBRANCH  26  27
ENDBRANCH  23  26
ENDBRANCH   1  23
TORSDOF 13
ENDMDL
MODEL 8
REMARK VINA RESULT:      -9.8      2.514     11.930
REMARK  13 active torsions:
REMARK  status: ('A' for Active; 'I' for Inactive)
REMARK    1  A    between atoms: O_2  and  C_3 
REMARK    2  A    between atoms: C_6  and  C_7 
REMARK    3  A    between atoms: C_7  and  C_8 
REMARK    4  A    between atoms: C_9  and  C_10 
REMARK    5  A    between atoms: N_17  and  C_18 
REMARK    6  A    between atoms: C_18  and  C_19 
REMARK    7  A    between atoms: C_19  and  O_20 
REMARK    8  A    between atoms: C_19  and  C_21 
REMARK    9  A    between atoms: C_21  and  N_22 
REMARK   10  A    between atoms: N_22  and  C_25 
REMARK   11  A    between atoms: C_25  and  C_26 
REMARK   12  A    between atoms: C_26  and  C_27 
REMARK   13  A    between atoms: C_32  and  O_33 
ROOT
HETATM    1  C   UNL     1       7.083  27.100  55.711  1.00  0.00     0.162 C 
ENDROOT
BRANCH   1   2
HETATM    2  N   UNL     1       6.886  28.352  56.425  1.00  0.00    -0.353 N 
HETATM    3  C   UNL     1       5.751  29.136  56.391  1.00  0.00     0.045 A 
HETATM    4  C   UNL     1       5.940  30.166  57.321  1.00  0.00     0.002 A 
HETATM    5  C   UNL     1       4.571  29.026  55.636  1.00  0.00     0.030 A 
HETATM    6  C   UNL     1       7.262  30.021  57.846  1.00  0.00    -0.008 A 
HETATM    7  C   UNL     1       4.878  31.073  57.540  1.00  0.00     0.014 A 
HETATM    8  C   UNL     1       7.806  28.884  57.291  1.00  0.00     0.103 A 
HETATM    9  C   UNL     1       3.696  30.959  56.803  1.00  0.00     0.001 A 
HETATM   10  C   UNL     1       3.551  29.955  55.856  1.00  0.00     0.002 A 
BRANCH   6  11
HETATM   11  C   UNL     1       7.974  30.845  58.771  1.00  0.00     0.018 C 
HETATM   12  C   UNL     1       7.480  31.286  59.941  1.00  0.00     0.056 C 
BRANCH  12  13
HETATM   13  C   UNL     1       8.315  32.126  60.839  1.00  0.00     0.182 C 
HETATM   14  O   UNL     1       9.517  32.266  60.628  1.00  0.00    -0.288 OA
BRANCH  13  15
HETATM   15  C   UNL     1       7.682  32.754  62.041  1.00  0.00     0.014 A 
HETATM   16  C   UNL     1       8.142  32.569  63.353  1.00  0.00     0.018 A 
HETATM   17  C   UNL     1       7.537  33.242  64.424  1.00  0.00     0.037 A 
HETATM   18  C   UNL     1       6.462  34.101  64.202  1.00  0.00     0.068 A 
HETATM   19  C   UNL     1       5.973  34.253  62.904  1.00  0.00     0.037 A 
HETATM   20  C   UNL     1       6.578  33.590  61.832  1.00  0.00     0.018 A 
BRANCH  18  21
HETATM   21  O   UNL     1       5.804  34.823  65.157  1.00  0.00    -0.356 OA
HETATM   22  C   UNL     1       5.564  34.172  66.399  1.00  0.00     0.210 C 
ENDBRANCH  18  21
ENDBRANCH  13  15
ENDBRANCH  12  13
ENDBRANCH   6  11
ENDBRANCH   1   2
BRANCH   1  23
HETATM   23  C   UNL     1       7.501  27.268  54.238  1.00  0.00     0.162 C 
BRANCH  23  24
HETATM   24  O   UNL     1       7.936  28.607  53.928  1.00  0.00    -0.392 OA
HETATM   25  H   UNL     1       8.650  28.849  54.551  1.00  0.00     0.210 HD
ENDBRANCH  23  24
BRANCH  23  26
HETATM   26  C   UNL     1       6.409  26.898  53.215  1.00  0.00     0.265 C 
BRANCH  26  27
HETATM   27  N   UNL     1       6.028  25.460  53.463  1.00  0.00    -0.072 N 
HETATM   28  H   UNL     1       6.465  25.209  54.368  1.00  0.00     0.277 HD
HETATM   29  H   UNL     1       5.019  25.407  53.649  1.00  0.00     0.277 HD
BRANCH  27  30
HETATM   30  C   UNL     1       6.378  24.478  52.395  1.00  0.00     0.237 C 
BRANCH  30  31
HETATM   31  C   UNL     1       7.823  23.989  52.502  1.00  0.00     0.068 C 
BRANCH  31  32
HETATM   32  C   UNL     1       7.884  22.655  53.169  1.00  0.00    -0.029 A 
HETATM   33  C   UNL     1       8.054  22.417  54.571  1.00  0.00     0.001 A 
HETATM   34  C   UNL     1       8.096  21.037  54.758  1.00  0.00     0.043 A 
HETATM   35  C   UNL     1       8.187  23.249  55.700  1.00  0.00     0.051 A 
HETATM   36  C   UNL     1       8.274  20.452  56.017  1.00  0.00     0.033 A 
HETATM   37  N   UNL     1       7.926  20.453  53.524  1.00  0.00    -0.365 N 
HETATM   38  C   UNL     1       8.414  21.304  57.121  1.00  0.00     0.039 A 
HETATM   39  C   UNL     1       8.368  22.688  56.972  1.00  0.00     0.069 A 
HETATM   40  H   UNL     1       7.895  19.454  53.363  1.00  0.00     0.165 HD
HETATM   41  C   UNL     1       7.807  21.419  52.559  1.00  0.00     0.096 A 
BRANCH  39  42
HETATM   42  O   UNL     1       8.496  23.611  57.975  1.00  0.00    -0.356 OA
HETATM   43  C   UNL     1       9.070  24.866  57.623  1.00  0.00     0.210 C 
ENDBRANCH  39  42
ENDBRANCH  31  32
ENDBRANCH  30  31
ENDBRANCH  27  30
ENDBRANCH  26  27
ENDBRANCH  23  26
ENDBRANCH   1  23
TORSDOF 13
ENDMDL
MODEL 9
REMARK VINA RESULT:      -9.6      2.199     12.116
REMARK  13 active torsions:
REMARK  status: ('A' for Active; 'I' for Inactive)
REMARK    1  A    between atoms: O_2  and  C_3 
REMARK    2  A    between atoms: C_6  and  C_7 
REMARK    3  A    between atoms: C_7  and  C_8 
REMARK    4  A    between atoms: C_9  and  C_10 
REMARK    5  A    between atoms: N_17  and  C_18 
REMARK    6  A    between atoms: C_18  and  C_19 
REMARK    7  A    between atoms: C_19  and  O_20 
REMARK    8  A    between atoms: C_19  and  C_21 
REMARK    9  A    between atoms: C_21  and  N_22 
REMARK   10  A    between atoms: N_22  and  C_25 
REMARK   11  A    between atoms: C_25  and  C_26 
REMARK   12  A    between atoms: C_26  and  C_27 
REMARK   13  A    between atoms: C_32  and  O_33 
ROOT
HETATM    1  C   UNL     1       4.701  30.296  56.780  1.00  0.00     0.162 C 
ENDROOT
BRANCH   1   2
HETATM    2  N   UNL     1       5.919  30.468  57.557  1.00  0.00    -0.353 N 
HETATM    3  C   UNL     1       7.161  29.956  57.243  1.00  0.00     0.045 A 
HETATM    4  C   UNL     1       8.064  30.474  58.182  1.00  0.00     0.002 A 
HETATM    5  C   UNL     1       7.576  29.095  56.213  1.00  0.00     0.030 A 
HETATM    6  C   UNL     1       7.302  31.240  59.118  1.00  0.00    -0.008 A 
HETATM    7  C   UNL     1       9.434  30.163  58.034  1.00  0.00     0.014 A 
HETATM    8  C   UNL     1       5.992  31.234  58.692  1.00  0.00     0.103 A 
HETATM    9  C   UNL     1       9.854  29.320  57.001  1.00  0.00     0.001 A 
HETATM   10  C   UNL     1       8.934  28.784  56.111  1.00  0.00     0.002 A 
BRANCH   6  11
HETATM   11  C   UNL     1       7.725  31.919  60.302  1.00  0.00     0.018 C 
HETATM   12  C   UNL     1       7.236  31.691  61.532  1.00  0.00     0.056 C 
BRANCH  12  13
HETATM   13  C   UNL     1       7.762  32.444  62.702  1.00  0.00     0.182 C 
HETATM   14  O   UNL     1       8.972  32.576  62.869  1.00  0.00    -0.288 OA
BRANCH  13  15
HETATM   15  C   UNL     1       6.797  32.991  63.706  1.00  0.00     0.014 A 
HETATM   16  C   UNL     1       5.412  33.059  63.502  1.00  0.00     0.018 A 
HETATM   17  C   UNL     1       4.561  33.525  64.515  1.00  0.00     0.037 A 
HETATM   18  C   UNL     1       5.083  33.936  65.741  1.00  0.00     0.068 A 
HETATM   19  C   UNL     1       6.465  33.911  65.932  1.00  0.00     0.037 A 
HETATM   20  C   UNL     1       7.315  33.440  64.927  1.00  0.00     0.018 A 
BRANCH  18  21
HETATM   21  O   UNL     1       4.359  34.389  66.807  1.00  0.00    -0.356 OA
HETATM   22  C   UNL     1       3.292  35.286  66.520  1.00  0.00     0.210 C 
ENDBRANCH  18  21
ENDBRANCH  13  15
ENDBRANCH  12  13
ENDBRANCH   6  11
ENDBRANCH   1   2
BRANCH   1  23
HETATM   23  C   UNL     1       4.927  30.186  55.261  1.00  0.00     0.162 C 
BRANCH  23  24
HETATM   24  O   UNL     1       5.179  31.461  54.638  1.00  0.00    -0.392 OA
HETATM   25  H   UNL     1       4.318  31.863  54.404  1.00  0.00     0.210 HD
ENDBRANCH  23  24
BRANCH  23  26
HETATM   26  C   UNL     1       3.771  29.525  54.486  1.00  0.00     0.265 C 
BRANCH  26  27
HETATM   27  N   UNL     1       3.941  28.031  54.610  1.00  0.00    -0.072 N 
HETATM   28  H   UNL     1       3.765  27.814  55.608  1.00  0.00     0.277 HD
HETATM   29  H   UNL     1       3.173  27.563  54.113  1.00  0.00     0.277 HD
BRANCH  27  30
HETATM   30  C   UNL     1       5.239  27.462  54.145  1.00  0.00     0.237 C 
BRANCH  30  31
HETATM   31  C   UNL     1       5.231  25.932  54.120  1.00  0.00     0.068 C 
BRANCH  31  32
HETATM   32  C   UNL     1       6.002  25.379  55.272  1.00  0.00    -0.029 A 
HETATM   33  C   UNL     1       6.976  24.330  55.213  1.00  0.00     0.001 A 
HETATM   34  C   UNL     1       7.420  24.098  56.513  1.00  0.00     0.043 A 
HETATM   35  C   UNL     1       7.515  23.547  54.173  1.00  0.00     0.051 A 
HETATM   36  C   UNL     1       8.367  23.116  56.822  1.00  0.00     0.033 A 
HETATM   37  N   UNL     1       6.767  24.991  57.331  1.00  0.00    -0.365 N 
HETATM   38  C   UNL     1       8.879  22.346  55.769  1.00  0.00     0.039 A 
HETATM   39  C   UNL     1       8.465  22.556  54.456  1.00  0.00     0.069 A 
HETATM   40  H   UNL     1       6.911  25.061  58.331  1.00  0.00     0.165 HD
HETATM   41  C   UNL     1       5.904  25.761  56.595  1.00  0.00     0.096 A 
BRANCH  39  42
HETATM   42  O   UNL     1       8.894  21.864  53.355  1.00  0.00    -0.356 OA
HETATM   43  C   UNL     1       8.216  20.647  53.058  1.00  0.00     0.210 C 
ENDBRANCH  39  42
ENDBRANCH  31  32
ENDBRANCH  30  31
ENDBRANCH  27  30
ENDBRANCH  26  27
ENDBRANCH  23  26
ENDBRANCH   1  23
TORSDOF 13
ENDMDL
MODEL 10
REMARK VINA RESULT:      -9.6      2.723     11.975
REMARK  13 active torsions:
REMARK  status: ('A' for Active; 'I' for Inactive)
REMARK    1  A    between atoms: O_2  and  C_3 
REMARK    2  A    between atoms: C_6  and  C_7 
REMARK    3  A    between atoms: C_7  and  C_8 
REMARK    4  A    between atoms: C_9  and  C_10 
REMARK    5  A    between atoms: N_17  and  C_18 
REMARK    6  A    between atoms: C_18  and  C_19 
REMARK    7  A    between atoms: C_19  and  O_20 
REMARK    8  A    between atoms: C_19  and  C_21 
REMARK    9  A    between atoms: C_21  and  N_22 
REMARK   10  A    between atoms: N_22  and  C_25 
REMARK   11  A    between atoms: C_25  and  C_26 
REMARK   12  A    between atoms: C_26  and  C_27 
REMARK   13  A    between atoms: C_32  and  O_33 
ROOT
HETATM    1  C   UNL     1       3.795  30.284  56.554  1.00  0.00     0.162 C 
ENDROOT
BRANCH   1   2
HETATM    2  N   UNL     1       5.121  30.347  57.150  1.00  0.00    -0.353 N 
HETATM    3  C   UNL     1       6.247  29.693  56.694  1.00  0.00     0.045 A 
HETATM    4  C   UNL     1       7.321  30.139  57.477  1.00  0.00     0.002 A 
HETATM    5  C   UNL     1       6.423  28.761  55.658  1.00  0.00     0.030 A 
HETATM    6  C   UNL     1       6.780  31.012  58.472  1.00  0.00    -0.008 A 
HETATM    7  C   UNL     1       8.618  29.676  57.159  1.00  0.00     0.014 A 
HETATM    8  C   UNL     1       5.430  31.135  58.228  1.00  0.00     0.103 A 
HETATM    9  C   UNL     1       8.800  28.761  56.119  1.00  0.00     0.001 A 
HETATM   10  C   UNL     1       7.714  28.302  55.387  1.00  0.00     0.002 A 
BRANCH   6  11
HETATM   11  C   UNL     1       7.433  31.678  59.555  1.00  0.00     0.018 C 
HETATM   12  C   UNL     1       7.334  31.319  60.846  1.00  0.00     0.056 C 
BRANCH  12  13
HETATM   13  C   UNL     1       8.071  32.072  61.894  1.00  0.00     0.182 C 
HETATM   14  O   UNL     1       9.298  32.127  61.880  1.00  0.00    -0.288 OA
BRANCH  13  15
HETATM   15  C   UNL     1       7.300  32.716  63.003  1.00  0.00     0.014 A 
HETATM   16  C   UNL     1       7.873  33.141  64.210  1.00  0.00     0.018 A 
HETATM   17  C   UNL     1       7.099  33.796  65.179  1.00  0.00     0.037 A 
HETATM   18  C   UNL     1       5.742  34.028  64.959  1.00  0.00     0.068 A 
HETATM   19  C   UNL     1       5.158  33.568  63.778  1.00  0.00     0.037 A 
HETATM   20  C   UNL     1       5.928  32.921  62.807  1.00  0.00     0.018 A 
BRANCH  18  21
HETATM   21  O   UNL     1       4.892  34.669  65.814  1.00  0.00    -0.356 OA
HETATM   22  C   UNL     1       4.684  34.062  67.084  1.00  0.00     0.210 C 
ENDBRANCH  18  21
ENDBRANCH  13  15
ENDBRANCH  12  13
ENDBRANCH   6  11
ENDBRANCH   1   2
BRANCH   1  23
HETATM   23  C   UNL     1       3.450  31.480  55.646  1.00  0.00     0.162 C 
BRANCH  23  24
HETATM   24  O   UNL     1       2.071  31.887  55.756  1.00  0.00    -0.392 OA
HETATM   25  H   UNL     1       2.051  32.822  56.045  1.00  0.00     0.210 HD
ENDBRANCH  23  24
BRANCH  23  26
HETATM   26  C   UNL     1       3.735  31.252  54.148  1.00  0.00     0.265 C 
BRANCH  26  27
HETATM   27  N   UNL     1       3.219  29.879  53.795  1.00  0.00    -0.072 N 
HETATM   28  H   UNL     1       3.027  29.413  54.701  1.00  0.00     0.277 HD
HETATM   29  H   UNL     1       2.293  29.969  53.360  1.00  0.00     0.277 HD
BRANCH  27  30
HETATM   30  C   UNL     1       4.088  29.039  52.920  1.00  0.00     0.237 C 
BRANCH  30  31
HETATM   31  C   UNL     1       3.909  27.543  53.184  1.00  0.00     0.068 C 
BRANCH  31  32
HETATM   32  C   UNL     1       4.967  26.752  52.488  1.00  0.00    -0.029 A 
HETATM   33  C   UNL     1       5.811  25.759  53.082  1.00  0.00     0.001 A 
HETATM   34  C   UNL     1       6.678  25.300  52.093  1.00  0.00     0.043 A 
HETATM   35  C   UNL     1       5.925  25.215  54.377  1.00  0.00     0.051 A 
HETATM   36  C   UNL     1       7.657  24.332  52.340  1.00  0.00     0.033 A 
HETATM   37  N   UNL     1       6.356  25.962  50.931  1.00  0.00    -0.365 N 
HETATM   38  C   UNL     1       7.755  23.815  53.639  1.00  0.00     0.039 A 
HETATM   39  C   UNL     1       6.899  24.244  54.651  1.00  0.00     0.069 A 
HETATM   40  H   UNL     1       6.815  25.811  50.042  1.00  0.00     0.165 HD
HETATM   41  C   UNL     1       5.333  26.846  51.160  1.00  0.00     0.096 A 
BRANCH  39  42
HETATM   42  O   UNL     1       6.906  23.812  55.950  1.00  0.00    -0.356 OA
HETATM   43  C   UNL     1       8.135  23.932  56.660  1.00  0.00     0.210 C 
ENDBRANCH  39  42
ENDBRANCH  31  32
ENDBRANCH  30  31
ENDBRANCH  27  30
ENDBRANCH  26  27
ENDBRANCH  23  26
ENDBRANCH   1  23
TORSDOF 13
ENDMDL
