MODEL 1
REMARK VINA RESULT:     -10.0      0.000      0.000
REMARK  7 active torsions:
REMARK  status: ('A' for Active; 'I' for Inactive)
REMARK    1  A    between atoms: C_4  and  C_5 
REMARK    2  A    between atoms: C_5  and  N_6 
REMARK       I    between atoms: N_6  and  C_7 
REMARK    3  A    between atoms: N_6  and  C_22 
REMARK    4  A    between atoms: C_7  and  C_8 
REMARK    5  A    between atoms: C_13  and  C_14 
REMARK    6  A    between atoms: C_15  and  O_16 
REMARK    7  A    between atoms: C_22  and  C_23 
ROOT
HETATM    1  N   UNL     1       8.070  25.104  56.114  1.00  0.00    -0.343 N 
HETATM    2  C   UNL     1       7.603  25.957  57.108  1.00  0.00     0.235 C 
HETATM    3  O   UNL     1       7.842  25.741  58.305  1.00  0.00    -0.272 OA
ENDROOT
BRANCH   2   4
HETATM    4  C   UNL     1       6.802  27.182  56.744  1.00  0.00     0.195 C 
HETATM    5  C   UNL     1       5.321  26.950  56.799  1.00  0.00     0.247 C 
HETATM    6  O   UNL     1       4.704  25.943  56.494  1.00  0.00    -0.271 OA
HETATM    7  N   UNL     1       4.746  28.125  57.256  1.00  0.00    -0.290 N 
HETATM    8  N   UNL     1       5.684  29.053  57.718  1.00  0.00    -0.228 NA
HETATM    9  H   UNL     1       3.743  28.196  57.404  1.00  0.00     0.183 HD
HETATM   10  C   UNL     1       6.942  28.268  57.826  1.00  0.00     0.134 C 
HETATM   11  H   UNL     1       5.429  29.386  58.653  1.00  0.00     0.147 HD
BRANCH  10  12
HETATM   12  C   UNL     1       8.205  29.086  57.649  1.00  0.00    -0.004 A 
HETATM   13  C   UNL     1       8.670  29.967  58.637  1.00  0.00     0.073 A 
HETATM   14  C   UNL     1       9.852  30.689  58.455  1.00  0.00     0.037 A 
HETATM   15  C   UNL     1      10.600  30.538  57.290  1.00  0.00     0.003 A 
HETATM   16  C   UNL     1      10.166  29.661  56.303  1.00  0.00     0.001 A 
HETATM   17  C   UNL     1       8.984  28.940  56.483  1.00  0.00     0.012 A 
BRANCH  13  18
HETATM   18  O   UNL     1       8.039  30.200  59.828  1.00  0.00    -0.360 OA
HETATM   19  H   UNL     1       7.204  30.697  59.731  1.00  0.00     0.217 HD
ENDBRANCH  13  18
ENDBRANCH  10  12
ENDBRANCH   2   4
BRANCH   1  20
HETATM   20  C   UNL     1       8.826  23.923  56.546  1.00  0.00     0.164 C 
BRANCH  20  21
HETATM   21  C   UNL     1       8.554  22.703  55.700  1.00  0.00    -0.040 A 
HETATM   22  C   UNL     1       9.125  22.580  54.424  1.00  0.00     0.009 A 
HETATM   23  C   UNL     1       8.925  21.424  53.666  1.00  0.00     0.001 A 
HETATM   24  C   UNL     1       8.154  20.380  54.174  1.00  0.00     0.000 A 
HETATM   25  C   UNL     1       7.587  20.487  55.442  1.00  0.00     0.001 A 
HETATM   26  C   UNL     1       7.794  21.637  56.204  1.00  0.00     0.009 A 
ENDBRANCH  20  21
ENDBRANCH   1  20
BRANCH   1  27
HETATM   27  C   UNL     1       8.257  25.502  54.713  1.00  0.00     0.164 C 
BRANCH  27  28
HETATM   28  C   UNL     1       7.023  25.592  53.850  1.00  0.00    -0.040 A 
HETATM   29  C   UNL     1       6.797  26.754  53.090  1.00  0.00     0.009 A 
HETATM   30  C   UNL     1       5.678  26.863  52.263  1.00  0.00     0.001 A 
HETATM   31  C   UNL     1       4.776  25.806  52.173  1.00  0.00     0.000 A 
HETATM   32  C   UNL     1       5.000  24.640  52.900  1.00  0.00     0.001 A 
HETATM   33  C   UNL     1       6.122  24.529  53.725  1.00  0.00     0.009 A 
ENDBRANCH  27  28
ENDBRANCH   1  27
TORSDOF 7
ENDMDL
MODEL 2
REMARK VINA RESULT:      -9.9      2.061      6.653
REMARK  7 active torsions:
REMARK  status: ('A' for Active; 'I' for Inactive)
REMARK    1  A    between atoms: C_4  and  C_5 
REMARK    2  A    between atoms: C_5  and  N_6 
REMARK       I    between atoms: N_6  and  C_7 
REMARK    3  A    between atoms: N_6  and  C_22 
REMARK    4  A    between atoms: C_7  and  C_8 
REMARK    5  A    between atoms: C_13  and  C_14 
REMARK    6  A    between atoms: C_15  and  O_16 
REMARK    7  A    between atoms: C_22  and  C_23 
ROOT
HETATM    1  N   UNL     1       7.794  27.839  57.012  1.00  0.00    -0.343 N 
HETATM    2  C   UNL     1       7.119  28.254  55.870  1.00  0.00     0.235 C 
HETATM    3  O   UNL     1       7.627  29.065  55.082  1.00  0.00    -0.272 OA
ENDROOT
BRANCH   2   4
HETATM    4  C   UNL     1       5.749  27.708  55.555  1.00  0.00     0.195 C 
HETATM    5  C   UNL     1       4.643  28.649  55.933  1.00  0.00     0.247 C 
HETATM    6  O   UNL     1       4.584  29.393  56.898  1.00  0.00    -0.271 OA
HETATM    7  N   UNL     1       3.652  28.512  54.974  1.00  0.00    -0.290 N 
HETATM    8  N   UNL     1       4.052  27.744  53.877  1.00  0.00    -0.228 NA
HETATM    9  H   UNL     1       2.809  29.078  55.006  1.00  0.00     0.183 HD
HETATM   10  C   UNL     1       5.526  27.632  54.034  1.00  0.00     0.134 C 
HETATM   11  H   UNL     1       3.856  28.240  53.002  1.00  0.00     0.147 HD
BRANCH  10  12
HETATM   12  C   UNL     1       6.124  26.376  53.435  1.00  0.00    -0.004 A 
HETATM   13  C   UNL     1       5.342  25.255  53.113  1.00  0.00     0.073 A 
HETATM   14  C   UNL     1       5.918  24.121  52.538  1.00  0.00     0.037 A 
HETATM   15  C   UNL     1       7.282  24.084  52.260  1.00  0.00     0.003 A 
HETATM   16  C   UNL     1       8.074  25.187  52.558  1.00  0.00     0.001 A 
HETATM   17  C   UNL     1       7.500  26.322  53.134  1.00  0.00     0.012 A 
BRANCH  13  18
HETATM   18  O   UNL     1       3.993  25.164  53.323  1.00  0.00    -0.360 OA
HETATM   19  H   UNL     1       3.591  26.005  53.614  1.00  0.00     0.217 HD
ENDBRANCH  13  18
ENDBRANCH  10  12
ENDBRANCH   2   4
BRANCH   1  20
HETATM   20  C   UNL     1       9.115  28.428  57.261  1.00  0.00     0.164 C 
BRANCH  20  21
HETATM   21  C   UNL     1       9.054  29.700  58.072  1.00  0.00    -0.040 A 
HETATM   22  C   UNL     1       8.009  29.914  58.983  1.00  0.00     0.009 A 
HETATM   23  C   UNL     1       7.986  31.061  59.779  1.00  0.00     0.001 A 
HETATM   24  C   UNL     1       9.006  32.005  59.674  1.00  0.00     0.000 A 
HETATM   25  C   UNL     1      10.053  31.802  58.778  1.00  0.00     0.001 A 
HETATM   26  C   UNL     1      10.083  30.651  57.989  1.00  0.00     0.009 A 
ENDBRANCH  20  21
ENDBRANCH   1  20
BRANCH   1  27
HETATM   27  C   UNL     1       7.514  26.584  57.720  1.00  0.00     0.164 C 
BRANCH  27  28
HETATM   28  C   UNL     1       7.767  25.299  56.972  1.00  0.00    -0.040 A 
HETATM   29  C   UNL     1       9.089  24.844  56.811  1.00  0.00     0.009 A 
HETATM   30  C   UNL     1       9.359  23.648  56.145  1.00  0.00     0.001 A 
HETATM   31  C   UNL     1       8.312  22.882  55.641  1.00  0.00     0.000 A 
HETATM   32  C   UNL     1       6.997  23.306  55.815  1.00  0.00     0.001 A 
HETATM   33  C   UNL     1       6.726  24.501  56.485  1.00  0.00     0.009 A 
ENDBRANCH  27  28
ENDBRANCH   1  27
TORSDOF 7
ENDMDL
MODEL 3
REMARK VINA RESULT:      -9.4      1.854      6.749
REMARK  7 active torsions:
REMARK  status: ('A' for Active; 'I' for Inactive)
REMARK    1  A    between atoms: C_4  and  C_5 
REMARK    2  A    between atoms: C_5  and  N_6 
REMARK       I    between atoms: N_6  and  C_7 
REMARK    3  A    between atoms: N_6  and  C_22 
REMARK    4  A    between atoms: C_7  and  C_8 
REMARK    5  A    between atoms: C_13  and  C_14 
REMARK    6  A    between atoms: C_15  and  O_16 
REMARK    7  A    between atoms: C_22  and  C_23 
ROOT
HETATM    1  N   UNL     1       6.468  27.192  55.252  1.00  0.00    -0.343 N 
HETATM    2  C   UNL     1       6.440  25.898  55.760  1.00  0.00     0.235 C 
HETATM    3  O   UNL     1       5.392  25.237  55.777  1.00  0.00    -0.272 OA
ENDROOT
BRANCH   2   4
HETATM    4  C   UNL     1       7.701  25.262  56.290  1.00  0.00     0.195 C 
HETATM    5  C   UNL     1       8.004  25.653  57.705  1.00  0.00     0.247 C 
HETATM    6  O   UNL     1       7.824  26.734  58.243  1.00  0.00    -0.271 OA
HETATM    7  N   UNL     1       8.560  24.543  58.321  1.00  0.00    -0.290 N 
HETATM    8  N   UNL     1       8.472  23.383  57.545  1.00  0.00    -0.228 NA
HETATM    9  H   UNL     1       8.820  24.563  59.303  1.00  0.00     0.183 HD
HETATM   10  C   UNL     1       7.514  23.744  56.467  1.00  0.00     0.134 C 
HETATM   11  H   UNL     1       8.070  22.616  58.092  1.00  0.00     0.147 HD
BRANCH  10  12
HETATM   12  C   UNL     1       7.723  22.991  55.170  1.00  0.00    -0.004 A 
HETATM   13  C   UNL     1       7.763  21.589  55.116  1.00  0.00     0.073 A 
HETATM   14  C   UNL     1       7.932  20.922  53.901  1.00  0.00     0.037 A 
HETATM   15  C   UNL     1       8.051  21.638  52.713  1.00  0.00     0.003 A 
HETATM   16  C   UNL     1       8.001  23.027  52.738  1.00  0.00     0.001 A 
HETATM   17  C   UNL     1       7.833  23.695  53.953  1.00  0.00     0.012 A 
BRANCH  13  18
HETATM   18  O   UNL     1       7.648  20.768  56.205  1.00  0.00    -0.360 OA
HETATM   19  H   UNL     1       6.948  20.094  56.107  1.00  0.00     0.217 HD
ENDBRANCH  13  18
ENDBRANCH  10  12
ENDBRANCH   2   4
BRANCH   1  20
HETATM   20  C   UNL     1       5.199  27.751  54.772  1.00  0.00     0.164 C 
BRANCH  20  21
HETATM   21  C   UNL     1       5.087  27.763  53.267  1.00  0.00    -0.040 A 
HETATM   22  C   UNL     1       4.991  28.976  52.569  1.00  0.00     0.009 A 
HETATM   23  C   UNL     1       4.950  28.991  51.174  1.00  0.00     0.001 A 
HETATM   24  C   UNL     1       5.006  27.794  50.460  1.00  0.00     0.000 A 
HETATM   25  C   UNL     1       5.108  26.583  51.140  1.00  0.00     0.001 A 
HETATM   26  C   UNL     1       5.159  26.568  52.534  1.00  0.00     0.009 A 
ENDBRANCH  20  21
ENDBRANCH   1  20
BRANCH   1  27
HETATM   27  C   UNL     1       7.682  27.852  54.755  1.00  0.00     0.164 C 
BRANCH  27  28
HETATM   28  C   UNL     1       8.392  28.792  55.698  1.00  0.00    -0.040 A 
HETATM   29  C   UNL     1       7.668  29.395  56.743  1.00  0.00     0.009 A 
HETATM   30  C   UNL     1       8.296  30.252  57.648  1.00  0.00     0.001 A 
HETATM   31  C   UNL     1       9.659  30.507  57.530  1.00  0.00     0.000 A 
HETATM   32  C   UNL     1      10.394  29.898  56.516  1.00  0.00     0.001 A 
HETATM   33  C   UNL     1       9.766  29.038  55.612  1.00  0.00     0.009 A 
ENDBRANCH  27  28
ENDBRANCH   1  27
TORSDOF 7
ENDMDL
MODEL 4
REMARK VINA RESULT:      -9.4      2.846      5.028
REMARK  7 active torsions:
REMARK  status: ('A' for Active; 'I' for Inactive)
REMARK    1  A    between atoms: C_4  and  C_5 
REMARK    2  A    between atoms: C_5  and  N_6 
REMARK       I    between atoms: N_6  and  C_7 
REMARK    3  A    between atoms: N_6  and  C_22 
REMARK    4  A    between atoms: C_7  and  C_8 
REMARK    5  A    between atoms: C_13  and  C_14 
REMARK    6  A    between atoms: C_15  and  O_16 
REMARK    7  A    between atoms: C_22  and  C_23 
ROOT
HETATM    1  N   UNL     1       7.142  26.861  54.392  1.00  0.00    -0.343 N 
HETATM    2  C   UNL     1       5.799  26.790  54.044  1.00  0.00     0.235 C 
HETATM    3  O   UNL     1       5.055  25.922  54.523  1.00  0.00    -0.272 OA
ENDROOT
BRANCH   2   4
HETATM    4  C   UNL     1       5.210  27.788  53.078  1.00  0.00     0.195 C 
HETATM    5  C   UNL     1       4.824  27.175  51.765  1.00  0.00     0.247 C 
HETATM    6  O   UNL     1       5.393  26.288  51.151  1.00  0.00    -0.271 OA
HETATM    7  N   UNL     1       3.675  27.823  51.340  1.00  0.00    -0.290 N 
HETATM    8  N   UNL     1       3.122  28.658  52.315  1.00  0.00    -0.228 NA
HETATM    9  H   UNL     1       3.208  27.553  50.479  1.00  0.00     0.183 HD
HETATM   10  C   UNL     1       3.831  28.270  53.563  1.00  0.00     0.134 C 
HETATM   11  H   UNL     1       2.124  28.457  52.434  1.00  0.00     0.147 HD
BRANCH  10  12
HETATM   12  C   UNL     1       3.945  29.382  54.586  1.00  0.00    -0.004 A 
HETATM   13  C   UNL     1       3.906  29.135  55.967  1.00  0.00     0.073 A 
HETATM   14  C   UNL     1       4.040  30.178  56.886  1.00  0.00     0.037 A 
HETATM   15  C   UNL     1       4.228  31.486  56.447  1.00  0.00     0.003 A 
HETATM   16  C   UNL     1       4.284  31.754  55.085  1.00  0.00     0.001 A 
HETATM   17  C   UNL     1       4.149  30.712  54.165  1.00  0.00     0.012 A 
BRANCH  13  18
HETATM   18  O   UNL     1       3.738  27.899  56.529  1.00  0.00    -0.360 OA
HETATM   19  H   UNL     1       3.109  27.898  57.276  1.00  0.00     0.217 HD
ENDBRANCH  13  18
ENDBRANCH  10  12
ENDBRANCH   2   4
BRANCH   1  20
HETATM   20  C   UNL     1       7.647  25.844  55.322  1.00  0.00     0.164 C 
BRANCH  20  21
HETATM   21  C   UNL     1       7.782  24.478  54.693  1.00  0.00    -0.040 A 
HETATM   22  C   UNL     1       7.660  23.319  55.473  1.00  0.00     0.009 A 
HETATM   23  C   UNL     1       7.723  22.056  54.882  1.00  0.00     0.001 A 
HETATM   24  C   UNL     1       7.907  21.937  53.505  1.00  0.00     0.000 A 
HETATM   25  C   UNL     1       8.023  23.080  52.718  1.00  0.00     0.001 A 
HETATM   26  C   UNL     1       7.951  24.343  53.306  1.00  0.00     0.009 A 
ENDBRANCH  20  21
ENDBRANCH   1  20
BRANCH   1  27
HETATM   27  C   UNL     1       7.958  28.076  54.275  1.00  0.00     0.164 C 
BRANCH  27  28
HETATM   28  C   UNL     1       8.361  28.762  55.556  1.00  0.00    -0.040 A 
HETATM   29  C   UNL     1       9.661  29.286  55.678  1.00  0.00     0.009 A 
HETATM   30  C   UNL     1      10.062  29.947  56.840  1.00  0.00     0.001 A 
HETATM   31  C   UNL     1       9.165  30.107  57.891  1.00  0.00     0.000 A 
HETATM   32  C   UNL     1       7.866  29.617  57.776  1.00  0.00     0.001 A 
HETATM   33  C   UNL     1       7.464  28.958  56.612  1.00  0.00     0.009 A 
ENDBRANCH  27  28
ENDBRANCH   1  27
TORSDOF 7
ENDMDL
MODEL 5
REMARK VINA RESULT:      -9.2      2.225      3.038
REMARK  7 active torsions:
REMARK  status: ('A' for Active; 'I' for Inactive)
REMARK    1  A    between atoms: C_4  and  C_5 
REMARK    2  A    between atoms: C_5  and  N_6 
REMARK       I    between atoms: N_6  and  C_7 
REMARK    3  A    between atoms: N_6  and  C_22 
REMARK    4  A    between atoms: C_7  and  C_8 
REMARK    5  A    between atoms: C_13  and  C_14 
REMARK    6  A    between atoms: C_15  and  O_16 
REMARK    7  A    between atoms: C_22  and  C_23 
ROOT
HETATM    1  N   UNL     1       5.572  26.561  53.939  1.00  0.00    -0.343 N 
HETATM    2  C   UNL     1       5.354  27.481  54.958  1.00  0.00     0.235 C 
HETATM    3  O   UNL     1       5.017  27.116  56.093  1.00  0.00    -0.272 OA
ENDROOT
BRANCH   2   4
HETATM    4  C   UNL     1       5.540  28.956  54.702  1.00  0.00     0.195 C 
HETATM    5  C   UNL     1       4.297  29.624  54.195  1.00  0.00     0.247 C 
HETATM    6  O   UNL     1       3.456  29.173  53.435  1.00  0.00    -0.271 OA
HETATM    7  N   UNL     1       4.272  30.897  54.741  1.00  0.00    -0.290 N 
HETATM    8  N   UNL     1       5.245  31.092  55.726  1.00  0.00    -0.228 NA
HETATM    9  H   UNL     1       3.499  31.531  54.560  1.00  0.00     0.183 HD
HETATM   10  C   UNL     1       5.733  29.720  56.025  1.00  0.00     0.134 C 
HETATM   11  H   UNL     1       4.821  31.477  56.576  1.00  0.00     0.147 HD
BRANCH  10  12
HETATM   12  C   UNL     1       7.165  29.660  56.512  1.00  0.00    -0.004 A 
HETATM   13  C   UNL     1       7.529  30.031  57.816  1.00  0.00     0.073 A 
HETATM   14  C   UNL     1       8.855  29.941  58.244  1.00  0.00     0.037 A 
HETATM   15  C   UNL     1       9.844  29.467  57.386  1.00  0.00     0.003 A 
HETATM   16  C   UNL     1       9.506  29.081  56.094  1.00  0.00     0.001 A 
HETATM   17  C   UNL     1       8.181  29.172  55.664  1.00  0.00     0.012 A 
BRANCH  13  18
HETATM   18  O   UNL     1       6.657  30.501  58.760  1.00  0.00    -0.360 OA
HETATM   19  H   UNL     1       5.964  29.856  58.999  1.00  0.00     0.217 HD
ENDBRANCH  13  18
ENDBRANCH  10  12
ENDBRANCH   2   4
BRANCH   1  20
HETATM   20  C   UNL     1       5.352  25.145  54.258  1.00  0.00     0.164 C 
BRANCH  20  21
HETATM   21  C   UNL     1       6.630  24.344  54.318  1.00  0.00    -0.040 A 
HETATM   22  C   UNL     1       7.438  24.378  55.464  1.00  0.00     0.009 A 
HETATM   23  C   UNL     1       8.588  23.590  55.545  1.00  0.00     0.001 A 
HETATM   24  C   UNL     1       8.943  22.760  54.482  1.00  0.00     0.000 A 
HETATM   25  C   UNL     1       8.147  22.713  53.341  1.00  0.00     0.001 A 
HETATM   26  C   UNL     1       6.992  23.493  53.263  1.00  0.00     0.009 A 
ENDBRANCH  20  21
ENDBRANCH   1  20
BRANCH   1  27
HETATM   27  C   UNL     1       6.404  26.825  52.758  1.00  0.00     0.164 C 
BRANCH  27  28
HETATM   28  C   UNL     1       5.691  27.059  51.450  1.00  0.00    -0.040 A 
HETATM   29  C   UNL     1       5.622  28.363  50.926  1.00  0.00     0.009 A 
HETATM   30  C   UNL     1       4.990  28.613  49.708  1.00  0.00     0.001 A 
HETATM   31  C   UNL     1       4.429  27.562  48.988  1.00  0.00     0.000 A 
HETATM   32  C   UNL     1       4.511  26.262  49.481  1.00  0.00     0.001 A 
HETATM   33  C   UNL     1       5.147  26.011  50.699  1.00  0.00     0.009 A 
ENDBRANCH  27  28
ENDBRANCH   1  27
TORSDOF 7
ENDMDL
MODEL 6
REMARK VINA RESULT:      -9.1      2.157      7.032
REMARK  7 active torsions:
REMARK  status: ('A' for Active; 'I' for Inactive)
REMARK    1  A    between atoms: C_4  and  C_5 
REMARK    2  A    between atoms: C_5  and  N_6 
REMARK       I    between atoms: N_6  and  C_7 
REMARK    3  A    between atoms: N_6  and  C_22 
REMARK    4  A    between atoms: C_7  and  C_8 
REMARK    5  A    between atoms: C_13  and  C_14 
REMARK    6  A    between atoms: C_15  and  O_16 
REMARK    7  A    between atoms: C_22  and  C_23 
ROOT
HETATM    1  N   UNL     1       6.131  28.099  56.436  1.00  0.00    -0.343 N 
HETATM    2  C   UNL     1       6.011  26.723  56.590  1.00  0.00     0.235 C 
HETATM    3  O   UNL     1       4.921  26.199  56.862  1.00  0.00    -0.272 OA
ENDROOT
BRANCH   2   4
HETATM    4  C   UNL     1       7.213  25.830  56.411  1.00  0.00     0.195 C 
HETATM    5  C   UNL     1       7.710  25.251  57.702  1.00  0.00     0.247 C 
HETATM    6  O   UNL     1       7.743  25.780  58.802  1.00  0.00    -0.271 OA
HETATM    7  N   UNL     1       8.158  23.970  57.424  1.00  0.00    -0.290 N 
HETATM    8  N   UNL     1       7.827  23.540  56.136  1.00  0.00    -0.228 NA
HETATM    9  H   UNL     1       8.516  23.368  58.160  1.00  0.00     0.183 HD
HETATM   10  C   UNL     1       6.828  24.537  55.670  1.00  0.00     0.134 C 
HETATM   11  H   UNL     1       7.376  22.621  56.170  1.00  0.00     0.147 HD
BRANCH  10  12
HETATM   12  C   UNL     1       6.795  24.732  54.168  1.00  0.00    -0.004 A 
HETATM   13  C   UNL     1       5.603  24.989  53.473  1.00  0.00     0.073 A 
HETATM   14  C   UNL     1       5.608  25.190  52.091  1.00  0.00     0.037 A 
HETATM   15  C   UNL     1       6.802  25.150  51.376  1.00  0.00     0.003 A 
HETATM   16  C   UNL     1       7.997  24.910  52.044  1.00  0.00     0.001 A 
HETATM   17  C   UNL     1       7.993  24.708  53.426  1.00  0.00     0.012 A 
BRANCH  13  18
HETATM   18  O   UNL     1       4.367  25.064  54.054  1.00  0.00    -0.360 OA
HETATM   19  H   UNL     1       4.172  25.943  54.433  1.00  0.00     0.217 HD
ENDBRANCH  13  18
ENDBRANCH  10  12
ENDBRANCH   2   4
BRANCH   1  20
HETATM   20  C   UNL     1       4.922  28.905  56.644  1.00  0.00     0.164 C 
BRANCH  20  21
HETATM   21  C   UNL     1       4.339  29.442  55.360  1.00  0.00    -0.040 A 
HETATM   22  C   UNL     1       4.207  30.825  55.162  1.00  0.00     0.009 A 
HETATM   23  C   UNL     1       3.725  31.325  53.951  1.00  0.00     0.001 A 
HETATM   24  C   UNL     1       3.371  30.450  52.925  1.00  0.00     0.000 A 
HETATM   25  C   UNL     1       3.503  29.076  53.106  1.00  0.00     0.001 A 
HETATM   26  C   UNL     1       3.993  28.575  54.313  1.00  0.00     0.009 A 
ENDBRANCH  20  21
ENDBRANCH   1  20
BRANCH   1  27
HETATM   27  C   UNL     1       7.205  28.749  55.674  1.00  0.00     0.164 C 
BRANCH  27  28
HETATM   28  C   UNL     1       8.358  29.324  56.458  1.00  0.00    -0.040 A 
HETATM   29  C   UNL     1       9.621  29.429  55.848  1.00  0.00     0.009 A 
HETATM   30  C   UNL     1      10.706  29.975  56.535  1.00  0.00     0.001 A 
HETATM   31  C   UNL     1      10.540  30.438  57.837  1.00  0.00     0.000 A 
HETATM   32  C   UNL     1       9.289  30.364  58.445  1.00  0.00     0.001 A 
HETATM   33  C   UNL     1       8.203  29.820  57.757  1.00  0.00     0.009 A 
ENDBRANCH  27  28
ENDBRANCH   1  27
TORSDOF 7
ENDMDL
MODEL 7
REMARK VINA RESULT:      -9.0      3.037      5.022
REMARK  7 active torsions:
REMARK  status: ('A' for Active; 'I' for Inactive)
REMARK    1  A    between atoms: C_4  and  C_5 
REMARK    2  A    between atoms: C_5  and  N_6 
REMARK       I    between atoms: N_6  and  C_7 
REMARK    3  A    between atoms: N_6  and  C_22 
REMARK    4  A    between atoms: C_7  and  C_8 
REMARK    5  A    between atoms: C_13  and  C_14 
REMARK    6  A    between atoms: C_15  and  O_16 
REMARK    7  A    between atoms: C_22  and  C_23 
ROOT
HETATM    1  N   UNL     1       7.020  27.496  54.917  1.00  0.00    -0.343 N 
HETATM    2  C   UNL     1       5.660  27.771  54.850  1.00  0.00     0.235 C 
HETATM    3  O   UNL     1       4.831  27.064  55.440  1.00  0.00    -0.272 OA
ENDROOT
BRANCH   2   4
HETATM    4  C   UNL     1       5.162  28.958  54.063  1.00  0.00     0.195 C 
HETATM    5  C   UNL     1       4.552  28.574  52.748  1.00  0.00     0.247 C 
HETATM    6  O   UNL     1       4.899  27.685  51.987  1.00  0.00    -0.271 OA
HETATM    7  N   UNL     1       3.497  29.443  52.523  1.00  0.00    -0.290 N 
HETATM    8  N   UNL     1       3.191  30.235  53.634  1.00  0.00    -0.228 NA
HETATM    9  H   UNL     1       2.910  29.355  51.698  1.00  0.00     0.183 HD
HETATM   10  C   UNL     1       3.939  29.594  54.748  1.00  0.00     0.134 C 
HETATM   11  H   UNL     1       2.190  30.184  53.845  1.00  0.00     0.147 HD
BRANCH  10  12
HETATM   12  C   UNL     1       4.340  30.544  55.857  1.00  0.00    -0.004 A 
HETATM   13  C   UNL     1       4.809  31.842  55.598  1.00  0.00     0.073 A 
HETATM   14  C   UNL     1       5.148  32.704  56.643  1.00  0.00     0.037 A 
HETATM   15  C   UNL     1       5.013  32.296  57.968  1.00  0.00     0.003 A 
HETATM   16  C   UNL     1       4.538  31.020  58.249  1.00  0.00     0.001 A 
HETATM   17  C   UNL     1       4.201  30.156  57.205  1.00  0.00     0.012 A 
BRANCH  13  18
HETATM   18  O   UNL     1       4.978  32.370  54.347  1.00  0.00    -0.360 OA
HETATM   19  H   UNL     1       5.904  32.347  54.041  1.00  0.00     0.217 HD
ENDBRANCH  13  18
ENDBRANCH  10  12
ENDBRANCH   2   4
BRANCH   1  20
HETATM   20  C   UNL     1       7.427  26.313  55.686  1.00  0.00     0.164 C 
BRANCH  20  21
HETATM   21  C   UNL     1       7.725  25.115  54.818  1.00  0.00    -0.040 A 
HETATM   22  C   UNL     1       8.274  23.951  55.376  1.00  0.00     0.009 A 
HETATM   23  C   UNL     1       8.492  22.820  54.586  1.00  0.00     0.001 A 
HETATM   24  C   UNL     1       8.163  22.840  53.232  1.00  0.00     0.000 A 
HETATM   25  C   UNL     1       7.612  23.987  52.666  1.00  0.00     0.001 A 
HETATM   26  C   UNL     1       7.384  25.114  53.457  1.00  0.00     0.009 A 
ENDBRANCH  20  21
ENDBRANCH   1  20
BRANCH   1  27
HETATM   27  C   UNL     1       8.072  28.492  54.678  1.00  0.00     0.164 C 
BRANCH  27  28
HETATM   28  C   UNL     1       8.651  29.187  55.885  1.00  0.00    -0.040 A 
HETATM   29  C   UNL     1      10.029  29.467  55.924  1.00  0.00     0.009 A 
HETATM   30  C   UNL     1      10.596  30.129  57.014  1.00  0.00     0.001 A 
HETATM   31  C   UNL     1       9.791  30.532  58.075  1.00  0.00     0.000 A 
HETATM   32  C   UNL     1       8.421  30.284  58.040  1.00  0.00     0.001 A 
HETATM   33  C   UNL     1       7.853  29.625  56.948  1.00  0.00     0.009 A 
ENDBRANCH  27  28
ENDBRANCH   1  27
TORSDOF 7
ENDMDL
MODEL 8
REMARK VINA RESULT:      -8.9      2.681      5.734
REMARK  7 active torsions:
REMARK  status: ('A' for Active; 'I' for Inactive)
REMARK    1  A    between atoms: C_4  and  C_5 
REMARK    2  A    between atoms: C_5  and  N_6 
REMARK       I    between atoms: N_6  and  C_7 
REMARK    3  A    between atoms: N_6  and  C_22 
REMARK    4  A    between atoms: C_7  and  C_8 
REMARK    5  A    between atoms: C_13  and  C_14 
REMARK    6  A    between atoms: C_15  and  O_16 
REMARK    7  A    between atoms: C_22  and  C_23 
ROOT
HETATM    1  N   UNL     1       5.239  28.606  53.521  1.00  0.00    -0.343 N 
HETATM    2  C   UNL     1       4.842  29.059  54.773  1.00  0.00     0.235 C 
HETATM    3  O   UNL     1       3.644  29.149  55.075  1.00  0.00    -0.272 OA
ENDROOT
BRANCH   2   4
HETATM    4  C   UNL     1       5.874  29.439  55.807  1.00  0.00     0.195 C 
HETATM    5  C   UNL     1       5.687  30.829  56.337  1.00  0.00     0.247 C 
HETATM    6  O   UNL     1       5.316  31.822  55.734  1.00  0.00    -0.271 OA
HETATM    7  N   UNL     1       6.036  30.799  57.678  1.00  0.00    -0.290 N 
HETATM    8  N   UNL     1       6.235  29.504  58.165  1.00  0.00    -0.228 NA
HETATM    9  H   UNL     1       5.960  31.629  58.259  1.00  0.00     0.183 HD
HETATM   10  C   UNL     1       5.676  28.630  57.101  1.00  0.00     0.134 C 
HETATM   11  H   UNL     1       5.695  29.357  59.023  1.00  0.00     0.147 HD
BRANCH  10  12
HETATM   12  C   UNL     1       6.316  27.260  57.018  1.00  0.00    -0.004 A 
HETATM   13  C   UNL     1       7.687  27.060  57.244  1.00  0.00     0.073 A 
HETATM   14  C   UNL     1       8.245  25.781  57.185  1.00  0.00     0.037 A 
HETATM   15  C   UNL     1       7.444  24.674  56.914  1.00  0.00     0.003 A 
HETATM   16  C   UNL     1       6.082  24.845  56.701  1.00  0.00     0.001 A 
HETATM   17  C   UNL     1       5.524  26.124  56.757  1.00  0.00     0.012 A 
BRANCH  13  18
HETATM   18  O   UNL     1       8.579  28.057  57.529  1.00  0.00    -0.360 OA
HETATM   19  H   UNL     1       9.209  28.230  56.803  1.00  0.00     0.217 HD
ENDBRANCH  13  18
ENDBRANCH  10  12
ENDBRANCH   2   4
BRANCH   1  20
HETATM   20  C   UNL     1       4.179  28.274  52.562  1.00  0.00     0.164 C 
BRANCH  20  21
HETATM   21  C   UNL     1       4.541  28.610  51.136  1.00  0.00    -0.040 A 
HETATM   22  C   UNL     1       4.959  29.904  50.794  1.00  0.00     0.009 A 
HETATM   23  C   UNL     1       5.353  30.200  49.487  1.00  0.00     0.001 A 
HETATM   24  C   UNL     1       5.335  29.206  48.510  1.00  0.00     0.000 A 
HETATM   25  C   UNL     1       4.927  27.916  48.838  1.00  0.00     0.001 A 
HETATM   26  C   UNL     1       4.542  27.616  50.145  1.00  0.00     0.009 A 
ENDBRANCH  20  21
ENDBRANCH   1  20
BRANCH   1  27
HETATM   27  C   UNL     1       6.558  28.025  53.237  1.00  0.00     0.164 C 
BRANCH  27  28
HETATM   28  C   UNL     1       6.650  26.521  53.179  1.00  0.00    -0.040 A 
HETATM   29  C   UNL     1       7.916  25.907  53.194  1.00  0.00     0.009 A 
HETATM   30  C   UNL     1       8.039  24.517  53.163  1.00  0.00     0.001 A 
HETATM   31  C   UNL     1       6.899  23.720  53.132  1.00  0.00     0.000 A 
HETATM   32  C   UNL     1       5.638  24.312  53.142  1.00  0.00     0.001 A 
HETATM   33  C   UNL     1       5.515  25.703  53.175  1.00  0.00     0.009 A 
ENDBRANCH  27  28
ENDBRANCH   1  27
TORSDOF 7
ENDMDL
MODEL 9
REMARK VINA RESULT:      -8.8      2.624      5.382
REMARK  7 active torsions:
REMARK  status: ('A' for Active; 'I' for Inactive)
REMARK    1  A    between atoms: C_4  and  C_5 
REMARK    2  A    between atoms: C_5  and  N_6 
REMARK       I    between atoms: N_6  and  C_7 
REMARK    3  A    between atoms: N_6  and  C_22 
REMARK    4  A    between atoms: C_7  and  C_8 
REMARK    5  A    between atoms: C_13  and  C_14 
REMARK    6  A    between atoms: C_15  and  O_16 
REMARK    7  A    between atoms: C_22  and  C_23 
ROOT
HETATM    1  N   UNL     1       6.769  28.400  57.224  1.00  0.00    -0.343 N 
HETATM    2  C   UNL     1       7.358  29.655  57.329  1.00  0.00     0.235 C 
HETATM    3  O   UNL     1       6.739  30.684  57.023  1.00  0.00    -0.272 OA
ENDROOT
BRANCH   2   4
HETATM    4  C   UNL     1       8.772  29.791  57.838  1.00  0.00     0.195 C 
HETATM    5  C   UNL     1       9.793  29.788  56.739  1.00  0.00     0.247 C 
HETATM    6  O   UNL     1       9.783  29.144  55.704  1.00  0.00    -0.271 OA
HETATM    7  N   UNL     1      10.798  30.662  57.121  1.00  0.00    -0.290 N 
HETATM    8  N   UNL     1      10.471  31.415  58.253  1.00  0.00    -0.228 NA
HETATM    9  H   UNL     1      11.591  30.848  56.513  1.00  0.00     0.183 HD
HETATM   10  C   UNL     1       9.011  31.196  58.421  1.00  0.00     0.134 C 
HETATM   11  H   UNL     1      10.631  32.412  58.077  1.00  0.00     0.147 HD
BRANCH  10  12
HETATM   12  C   UNL     1       8.524  31.308  59.850  1.00  0.00    -0.004 A 
HETATM   13  C   UNL     1       7.348  31.997  60.189  1.00  0.00     0.073 A 
HETATM   14  C   UNL     1       6.911  32.062  61.514  1.00  0.00     0.037 A 
HETATM   15  C   UNL     1       7.630  31.430  62.526  1.00  0.00     0.003 A 
HETATM   16  C   UNL     1       8.789  30.731  62.214  1.00  0.00     0.001 A 
HETATM   17  C   UNL     1       9.228  30.667  60.889  1.00  0.00     0.012 A 
BRANCH  13  18
HETATM   18  O   UNL     1       6.547  32.650  59.293  1.00  0.00    -0.360 OA
HETATM   19  H   UNL     1       6.583  32.269  58.395  1.00  0.00     0.217 HD
ENDBRANCH  13  18
ENDBRANCH  10  12
ENDBRANCH   2   4
BRANCH   1  20
HETATM   20  C   UNL     1       5.398  28.346  56.703  1.00  0.00     0.164 C 
BRANCH  20  21
HETATM   21  C   UNL     1       5.337  28.318  55.195  1.00  0.00    -0.040 A 
HETATM   22  C   UNL     1       6.508  28.167  54.438  1.00  0.00     0.009 A 
HETATM   23  C   UNL     1       6.446  28.079  53.046  1.00  0.00     0.001 A 
HETATM   24  C   UNL     1       5.214  28.140  52.396  1.00  0.00     0.000 A 
HETATM   25  C   UNL     1       4.043  28.284  53.136  1.00  0.00     0.001 A 
HETATM   26  C   UNL     1       4.103  28.363  54.528  1.00  0.00     0.009 A 
ENDBRANCH  20  21
ENDBRANCH   1  20
BRANCH   1  27
HETATM   27  C   UNL     1       7.210  27.221  57.980  1.00  0.00     0.164 C 
BRANCH  27  28
HETATM   28  C   UNL     1       7.446  25.951  57.201  1.00  0.00    -0.040 A 
HETATM   29  C   UNL     1       8.724  25.364  57.211  1.00  0.00     0.009 A 
HETATM   30  C   UNL     1       8.974  24.178  56.520  1.00  0.00     0.001 A 
HETATM   31  C   UNL     1       7.946  23.552  55.822  1.00  0.00     0.000 A 
HETATM   32  C   UNL     1       6.668  24.107  55.823  1.00  0.00     0.001 A 
HETATM   33  C   UNL     1       6.418  25.293  56.517  1.00  0.00     0.009 A 
ENDBRANCH  27  28
ENDBRANCH   1  27
TORSDOF 7
ENDMDL
MODEL 10
REMARK VINA RESULT:      -8.7      8.341     13.239
REMARK  7 active torsions:
REMARK  status: ('A' for Active; 'I' for Inactive)
REMARK    1  A    between atoms: C_4  and  C_5 
REMARK    2  A    between atoms: C_5  and  N_6 
REMARK       I    between atoms: N_6  and  C_7 
REMARK    3  A    between atoms: N_6  and  C_22 
REMARK    4  A    between atoms: C_7  and  C_8 
REMARK    5  A    between atoms: C_13  and  C_14 
REMARK    6  A    between atoms: C_15  and  O_16 
REMARK    7  A    between atoms: C_22  and  C_23 
ROOT
HETATM    1  N   UNL     1       5.172  36.171  62.260  1.00  0.00    -0.343 N 
HETATM    2  C   UNL     1       4.693  35.080  61.544  1.00  0.00     0.235 C 
HETATM    3  O   UNL     1       4.382  35.182  60.348  1.00  0.00    -0.272 OA
ENDROOT
BRANCH   2   4
HETATM    4  C   UNL     1       4.555  33.734  62.210  1.00  0.00     0.195 C 
HETATM    5  C   UNL     1       3.128  33.346  62.457  1.00  0.00     0.247 C 
HETATM    6  O   UNL     1       2.196  34.066  62.776  1.00  0.00    -0.271 OA
HETATM    7  N   UNL     1       3.045  31.975  62.272  1.00  0.00    -0.290 N 
HETATM    8  N   UNL     1       4.206  31.424  61.722  1.00  0.00    -0.228 NA
HETATM    9  H   UNL     1       2.158  31.486  62.358  1.00  0.00     0.183 HD
HETATM   10  C   UNL     1       4.977  32.605  61.253  1.00  0.00     0.134 C 
HETATM   11  H   UNL     1       3.976  30.843  60.910  1.00  0.00     0.147 HD
BRANCH  10  12
HETATM   12  C   UNL     1       6.478  32.404  61.238  1.00  0.00    -0.004 A 
HETATM   13  C   UNL     1       7.218  32.372  60.045  1.00  0.00     0.073 A 
HETATM   14  C   UNL     1       8.604  32.210  60.065  1.00  0.00     0.037 A 
HETATM   15  C   UNL     1       9.284  32.090  61.275  1.00  0.00     0.003 A 
HETATM   16  C   UNL     1       8.576  32.132  62.469  1.00  0.00     0.001 A 
HETATM   17  C   UNL     1       7.188  32.292  62.451  1.00  0.00     0.012 A 
BRANCH  13  18
HETATM   18  O   UNL     1       6.676  32.488  58.794  1.00  0.00    -0.360 OA
HETATM   19  H   UNL     1       6.571  33.415  58.505  1.00  0.00     0.217 HD
ENDBRANCH  13  18
ENDBRANCH  10  12
ENDBRANCH   2   4
BRANCH   1  20
HETATM   20  C   UNL     1       5.260  37.452  61.550  1.00  0.00     0.164 C 
BRANCH  20  21
HETATM   21  C   UNL     1       6.059  38.491  62.297  1.00  0.00    -0.040 A 
HETATM   22  C   UNL     1       7.179  39.092  61.702  1.00  0.00     0.009 A 
HETATM   23  C   UNL     1       7.882  40.097  62.368  1.00  0.00     0.001 A 
HETATM   24  C   UNL     1       7.474  40.515  63.634  1.00  0.00     0.000 A 
HETATM   25  C   UNL     1       6.361  39.932  64.233  1.00  0.00     0.001 A 
HETATM   26  C   UNL     1       5.651  38.933  63.565  1.00  0.00     0.009 A 
ENDBRANCH  20  21
ENDBRANCH   1  20
BRANCH   1  27
HETATM   27  C   UNL     1       5.990  36.060  63.475  1.00  0.00     0.164 C 
BRANCH  27  28
HETATM   28  C   UNL     1       5.317  35.522  64.713  1.00  0.00    -0.040 A 
HETATM   29  C   UNL     1       5.954  34.516  65.462  1.00  0.00     0.009 A 
HETATM   30  C   UNL     1       5.372  34.011  66.625  1.00  0.00     0.001 A 
HETATM   31  C   UNL     1       4.151  34.513  67.064  1.00  0.00     0.000 A 
HETATM   32  C   UNL     1       3.520  35.527  66.347  1.00  0.00     0.001 A 
HETATM   33  C   UNL     1       4.104  36.035  65.185  1.00  0.00     0.009 A 
ENDBRANCH  27  28
ENDBRANCH   1  27
TORSDOF 7
ENDMDL
