MODEL 1
REMARK VINA RESULT:      -9.0      0.000      0.000
REMARK  2 active torsions:
REMARK  status: ('A' for Active; 'I' for Inactive)
REMARK    1  A    between atoms: C_3  and  C_4 
REMARK    2  A    between atoms: C_19  and  O_20 
ROOT
HETATM    1  C   UNL     1       6.333  25.449  55.026  1.00  0.00     0.137 C 
HETATM    2  N   UNL     1       7.532  24.635  55.346  1.00  0.00    -0.278 NA
HETATM    3  C   UNL     1       7.609  23.334  54.809  1.00  0.00     0.036 A 
HETATM    4  C   UNL     1       7.722  23.088  53.422  1.00  0.00     0.053 A 
HETATM    5  N   UNL     1       7.674  24.116  52.446  1.00  0.00    -0.356 N 
HETATM    6  C   UNL     1       6.761  25.147  52.495  1.00  0.00     0.041 A 
HETATM    7  C   UNL     1       6.153  25.678  53.568  1.00  0.00     0.056 A 
HETATM    8  C   UNL     1       5.109  26.578  53.049  1.00  0.00     0.251 A 
HETATM    9  O   UNL     1       4.230  27.120  53.691  1.00  0.00    -0.268 OA
HETATM   10  N   UNL     1       5.255  26.644  51.688  1.00  0.00    -0.351 N 
HETATM   11  C   UNL     1       6.274  25.770  51.215  1.00  0.00     0.180 A 
HETATM   12  C   UNL     1       7.659  22.246  55.699  1.00  0.00     0.026 A 
HETATM   13  C   UNL     1       7.800  20.937  55.236  1.00  0.00     0.002 A 
HETATM   14  C   UNL     1       7.916  20.695  53.873  1.00  0.00     0.002 A 
HETATM   15  C   UNL     1       7.884  21.763  52.975  1.00  0.00     0.031 A 
HETATM   16  H   UNL     1       7.616  24.592  56.361  1.00  0.00     0.128 HD
HETATM   17  H   UNL     1       7.876  23.782  51.508  1.00  0.00     0.166 HD
HETATM   18  H   UNL     1       4.613  27.177  51.118  1.00  0.00     0.163 HD
ENDROOT
BRANCH   1  19
HETATM   19  C   UNL     1       6.535  26.760  55.787  1.00  0.00    -0.002 A 
HETATM   20  C   UNL     1       7.743  27.468  55.653  1.00  0.00     0.012 A 
HETATM   21  C   UNL     1       7.966  28.644  56.374  1.00  0.00     0.001 A 
HETATM   22  C   UNL     1       6.990  29.128  57.243  1.00  0.00     0.003 A 
HETATM   23  C   UNL     1       5.785  28.444  57.386  1.00  0.00     0.037 A 
HETATM   24  C   UNL     1       5.561  27.279  56.657  1.00  0.00     0.073 A 
BRANCH  24  25
HETATM   25  O   UNL     1       4.338  26.681  56.812  1.00  0.00    -0.360 OA
HETATM   26  H   UNL     1       4.206  26.081  56.044  1.00  0.00     0.217 HD
ENDBRANCH  24  25
ENDBRANCH   1  19
TORSDOF 2
ENDMDL
MODEL 2
REMARK VINA RESULT:      -8.6      2.613      6.275
REMARK  2 active torsions:
REMARK  status: ('A' for Active; 'I' for Inactive)
REMARK    1  A    between atoms: C_3  and  C_4 
REMARK    2  A    between atoms: C_19  and  O_20 
ROOT
HETATM    1  C   UNL     1       7.640  27.594  55.796  1.00  0.00     0.137 C 
HETATM    2  N   UNL     1       8.739  27.657  56.791  1.00  0.00    -0.278 NA
HETATM    3  C   UNL     1       9.142  28.927  57.251  1.00  0.00     0.036 A 
HETATM    4  C   UNL     1       8.299  29.760  58.021  1.00  0.00     0.053 A 
HETATM    5  N   UNL     1       6.951  29.437  58.318  1.00  0.00    -0.356 N 
HETATM    6  C   UNL     1       6.085  28.919  57.379  1.00  0.00     0.041 A 
HETATM    7  C   UNL     1       6.370  28.189  56.289  1.00  0.00     0.056 A 
HETATM    8  C   UNL     1       5.121  28.100  55.513  1.00  0.00     0.251 A 
HETATM    9  O   UNL     1       4.996  27.669  54.383  1.00  0.00    -0.268 OA
HETATM   10  N   UNL     1       4.123  28.661  56.265  1.00  0.00    -0.351 N 
HETATM   11  C   UNL     1       4.615  29.224  57.476  1.00  0.00     0.180 A 
HETATM   12  C   UNL     1      10.463  29.340  57.002  1.00  0.00     0.026 A 
HETATM   13  C   UNL     1      10.945  30.557  57.484  1.00  0.00     0.002 A 
HETATM   14  C   UNL     1      10.119  31.374  58.245  1.00  0.00     0.002 A 
HETATM   15  C   UNL     1       8.809  30.976  58.516  1.00  0.00     0.031 A 
HETATM   16  H   UNL     1       9.542  27.164  56.399  1.00  0.00     0.128 HD
HETATM   17  H   UNL     1       6.521  30.089  58.967  1.00  0.00     0.166 HD
HETATM   18  H   UNL     1       3.182  28.745  55.906  1.00  0.00     0.163 HD
ENDROOT
BRANCH   1  19
HETATM   19  C   UNL     1       7.485  26.107  55.477  1.00  0.00    -0.002 A 
HETATM   20  C   UNL     1       7.560  25.665  54.144  1.00  0.00     0.012 A 
HETATM   21  C   UNL     1       7.376  24.317  53.826  1.00  0.00     0.001 A 
HETATM   22  C   UNL     1       7.110  23.390  54.833  1.00  0.00     0.003 A 
HETATM   23  C   UNL     1       7.037  23.807  56.159  1.00  0.00     0.037 A 
HETATM   24  C   UNL     1       7.233  25.148  56.475  1.00  0.00     0.073 A 
BRANCH  24  25
HETATM   25  O   UNL     1       7.191  25.482  57.803  1.00  0.00    -0.360 OA
HETATM   26  H   UNL     1       6.904  24.682  58.297  1.00  0.00     0.217 HD
ENDBRANCH  24  25
ENDBRANCH   1  19
TORSDOF 2
ENDMDL
MODEL 3
REMARK VINA RESULT:      -8.4      2.129      5.952
REMARK  2 active torsions:
REMARK  status: ('A' for Active; 'I' for Inactive)
REMARK    1  A    between atoms: C_3  and  C_4 
REMARK    2  A    between atoms: C_19  and  O_20 
ROOT
HETATM    1  C   UNL     1       7.439  27.015  55.067  1.00  0.00     0.137 C 
HETATM    2  N   UNL     1       8.192  27.062  56.346  1.00  0.00    -0.278 NA
HETATM    3  C   UNL     1       8.382  28.319  56.953  1.00  0.00     0.036 A 
HETATM    4  C   UNL     1       7.312  29.084  57.471  1.00  0.00     0.053 A 
HETATM    5  N   UNL     1       5.953  28.704  57.341  1.00  0.00    -0.356 N 
HETATM    6  C   UNL     1       5.428  28.207  56.168  1.00  0.00     0.041 A 
HETATM    7  C   UNL     1       6.055  27.544  55.184  1.00  0.00     0.056 A 
HETATM    8  C   UNL     1       5.096  27.455  54.069  1.00  0.00     0.251 A 
HETATM    9  O   UNL     1       5.330  27.078  52.936  1.00  0.00    -0.268 OA
HETATM   10  N   UNL     1       3.895  27.944  54.511  1.00  0.00    -0.351 N 
HETATM   11  C   UNL     1       3.982  28.459  55.835  1.00  0.00     0.180 A 
HETATM   12  C   UNL     1       9.698  28.786  57.125  1.00  0.00     0.026 A 
HETATM   13  C   UNL     1       9.960  29.992  57.777  1.00  0.00     0.002 A 
HETATM   14  C   UNL     1       8.909  30.742  58.289  1.00  0.00     0.002 A 
HETATM   15  C   UNL     1       7.598  30.288  58.143  1.00  0.00     0.031 A 
HETATM   16  H   UNL     1       9.096  26.616  56.190  1.00  0.00     0.128 HD
HETATM   17  H   UNL     1       5.321  29.307  57.858  1.00  0.00     0.166 HD
HETATM   18  H   UNL     1       3.100  28.016  53.893  1.00  0.00     0.163 HD
ENDROOT
BRANCH   1  19
HETATM   19  C   UNL     1       7.454  25.542  54.658  1.00  0.00    -0.002 A 
HETATM   20  C   UNL     1       7.113  24.551  55.596  1.00  0.00     0.012 A 
HETATM   21  C   UNL     1       7.164  23.197  55.255  1.00  0.00     0.001 A 
HETATM   22  C   UNL     1       7.560  22.811  53.976  1.00  0.00     0.003 A 
HETATM   23  C   UNL     1       7.896  23.777  53.031  1.00  0.00     0.037 A 
HETATM   24  C   UNL     1       7.833  25.126  53.369  1.00  0.00     0.073 A 
BRANCH  24  25
HETATM   25  O   UNL     1       8.135  26.024  52.379  1.00  0.00    -0.360 OA
HETATM   26  H   UNL     1       9.005  25.764  52.003  1.00  0.00     0.217 HD
ENDBRANCH  24  25
ENDBRANCH   1  19
TORSDOF 2
ENDMDL
MODEL 4
REMARK VINA RESULT:      -8.4      4.821      7.122
REMARK  2 active torsions:
REMARK  status: ('A' for Active; 'I' for Inactive)
REMARK    1  A    between atoms: C_3  and  C_4 
REMARK    2  A    between atoms: C_19  and  O_20 
ROOT
HETATM    1  C   UNL     1       7.730  30.757  58.541  1.00  0.00     0.137 C 
HETATM    2  N   UNL     1       6.688  29.700  58.544  1.00  0.00    -0.278 NA
HETATM    3  C   UNL     1       6.273  29.179  57.302  1.00  0.00     0.036 A 
HETATM    4  C   UNL     1       7.132  28.432  56.465  1.00  0.00     0.053 A 
HETATM    5  N   UNL     1       8.505  28.221  56.752  1.00  0.00    -0.356 N 
HETATM    6  C   UNL     1       9.331  29.223  57.213  1.00  0.00     0.041 A 
HETATM    7  C   UNL     1       9.007  30.318  57.920  1.00  0.00     0.056 A 
HETATM    8  C   UNL     1      10.212  31.165  57.945  1.00  0.00     0.251 A 
HETATM    9  O   UNL     1      10.285  32.313  58.338  1.00  0.00    -0.268 OA
HETATM   10  N   UNL     1      11.234  30.454  57.374  1.00  0.00    -0.351 N 
HETATM   11  C   UNL     1      10.795  29.200  56.864  1.00  0.00     0.180 A 
HETATM   12  C   UNL     1       4.928  29.341  56.925  1.00  0.00     0.026 A 
HETATM   13  C   UNL     1       4.436  28.794  55.739  1.00  0.00     0.002 A 
HETATM   14  C   UNL     1       5.279  28.056  54.918  1.00  0.00     0.002 A 
HETATM   15  C   UNL     1       6.614  27.871  55.282  1.00  0.00     0.031 A 
HETATM   16  H   UNL     1       5.880  30.062  59.051  1.00  0.00     0.128 HD
HETATM   17  H   UNL     1       8.951  27.578  56.106  1.00  0.00     0.166 HD
HETATM   18  H   UNL     1      12.150  30.862  57.249  1.00  0.00     0.163 HD
ENDROOT
BRANCH   1  19
HETATM   19  C   UNL     1       7.913  31.131  60.013  1.00  0.00    -0.002 A 
HETATM   20  C   UNL     1       8.891  30.479  60.785  1.00  0.00     0.012 A 
HETATM   21  C   UNL     1       9.044  30.774  62.142  1.00  0.00     0.001 A 
HETATM   22  C   UNL     1       8.220  31.719  62.751  1.00  0.00     0.003 A 
HETATM   23  C   UNL     1       7.248  32.378  62.002  1.00  0.00     0.037 A 
HETATM   24  C   UNL     1       7.106  32.092  60.648  1.00  0.00     0.073 A 
BRANCH  24  25
HETATM   25  O   UNL     1       6.160  32.808  59.962  1.00  0.00    -0.360 OA
HETATM   26  H   UNL     1       6.191  33.732  60.299  1.00  0.00     0.217 HD
ENDBRANCH  24  25
ENDBRANCH   1  19
TORSDOF 2
ENDMDL
MODEL 5
REMARK VINA RESULT:      -8.2      6.815     10.313
REMARK  2 active torsions:
REMARK  status: ('A' for Active; 'I' for Inactive)
REMARK    1  A    between atoms: C_3  and  C_4 
REMARK    2  A    between atoms: C_19  and  O_20 
ROOT
HETATM    1  C   UNL     1       7.129  32.181  60.145  1.00  0.00     0.137 C 
HETATM    2  N   UNL     1       7.473  31.618  61.474  1.00  0.00    -0.278 NA
HETATM    3  C   UNL     1       7.025  32.306  62.619  1.00  0.00     0.036 A 
HETATM    4  C   UNL     1       5.655  32.429  62.945  1.00  0.00     0.053 A 
HETATM    5  N   UNL     1       4.613  31.958  62.108  1.00  0.00    -0.356 N 
HETATM    6  C   UNL     1       4.615  32.142  60.742  1.00  0.00     0.041 A 
HETATM    7  C   UNL     1       5.664  32.290  59.918  1.00  0.00     0.056 A 
HETATM    8  C   UNL     1       5.110  32.689  58.612  1.00  0.00     0.251 A 
HETATM    9  O   UNL     1       5.736  33.081  57.646  1.00  0.00    -0.268 OA
HETATM   10  N   UNL     1       3.745  32.612  58.697  1.00  0.00    -0.351 N 
HETATM   11  C   UNL     1       3.307  32.278  60.009  1.00  0.00     0.180 A 
HETATM   12  C   UNL     1       7.986  32.815  63.512  1.00  0.00     0.026 A 
HETATM   13  C   UNL     1       7.610  33.450  64.696  1.00  0.00     0.002 A 
HETATM   14  C   UNL     1       6.264  33.567  65.019  1.00  0.00     0.002 A 
HETATM   15  C   UNL     1       5.296  33.056  64.154  1.00  0.00     0.031 A 
HETATM   16  H   UNL     1       8.487  31.511  61.512  1.00  0.00     0.128 HD
HETATM   17  H   UNL     1       3.696  32.030  62.537  1.00  0.00     0.166 HD
HETATM   18  H   UNL     1       3.156  32.883  57.922  1.00  0.00     0.163 HD
ENDROOT
BRANCH   1  19
HETATM   19  C   UNL     1       7.793  31.243  59.137  1.00  0.00    -0.002 A 
HETATM   20  C   UNL     1       7.039  30.224  58.527  1.00  0.00     0.012 A 
HETATM   21  C   UNL     1       7.638  29.327  57.637  1.00  0.00     0.001 A 
HETATM   22  C   UNL     1       8.997  29.430  57.347  1.00  0.00     0.003 A 
HETATM   23  C   UNL     1       9.759  30.435  57.938  1.00  0.00     0.037 A 
HETATM   24  C   UNL     1       9.158  31.335  58.814  1.00  0.00     0.073 A 
BRANCH  24  25
HETATM   25  O   UNL     1       9.956  32.325  59.324  1.00  0.00    -0.360 OA
HETATM   26  H   UNL     1      10.075  32.999  58.618  1.00  0.00     0.217 HD
ENDBRANCH  24  25
ENDBRANCH   1  19
TORSDOF 2
ENDMDL
MODEL 6
REMARK VINA RESULT:      -8.1      3.175      6.207
REMARK  2 active torsions:
REMARK  status: ('A' for Active; 'I' for Inactive)
REMARK    1  A    between atoms: C_3  and  C_4 
REMARK    2  A    between atoms: C_19  and  O_20 
ROOT
HETATM    1  C   UNL     1       4.838  26.323  51.380  1.00  0.00     0.137 C 
HETATM    2  N   UNL     1       5.015  25.868  49.978  1.00  0.00    -0.278 NA
HETATM    3  C   UNL     1       4.155  26.402  48.997  1.00  0.00     0.036 A 
HETATM    4  C   UNL     1       4.170  27.767  48.633  1.00  0.00     0.053 A 
HETATM    5  N   UNL     1       4.978  28.734  49.283  1.00  0.00    -0.356 N 
HETATM    6  C   UNL     1       5.121  28.786  50.652  1.00  0.00     0.041 A 
HETATM    7  C   UNL     1       5.011  27.790  51.545  1.00  0.00     0.056 A 
HETATM    8  C   UNL     1       5.018  28.423  52.875  1.00  0.00     0.251 A 
HETATM    9  O   UNL     1       4.773  27.886  53.938  1.00  0.00    -0.268 OA
HETATM   10  N   UNL     1       5.282  29.756  52.701  1.00  0.00    -0.351 N 
HETATM   11  C   UNL     1       5.363  30.111  51.325  1.00  0.00     0.180 A 
HETATM   12  C   UNL     1       3.310  25.521  48.298  1.00  0.00     0.026 A 
HETATM   13  C   UNL     1       2.481  25.973  47.271  1.00  0.00     0.002 A 
HETATM   14  C   UNL     1       2.498  27.314  46.910  1.00  0.00     0.002 A 
HETATM   15  C   UNL     1       3.340  28.202  47.582  1.00  0.00     0.031 A 
HETATM   16  H   UNL     1       4.953  24.850  49.971  1.00  0.00     0.128 HD
HETATM   17  H   UNL     1       4.949  29.643  48.832  1.00  0.00     0.166 HD
HETATM   18  H   UNL     1       5.293  30.394  53.484  1.00  0.00     0.163 HD
ENDROOT
BRANCH   1  19
HETATM   19  C   UNL     1       5.874  25.533  52.181  1.00  0.00    -0.002 A 
HETATM   20  C   UNL     1       7.198  25.441  51.715  1.00  0.00     0.012 A 
HETATM   21  C   UNL     1       8.148  24.687  52.409  1.00  0.00     0.001 A 
HETATM   22  C   UNL     1       7.791  24.010  53.574  1.00  0.00     0.003 A 
HETATM   23  C   UNL     1       6.486  24.093  54.054  1.00  0.00     0.037 A 
HETATM   24  C   UNL     1       5.544  24.854  53.368  1.00  0.00     0.073 A 
BRANCH  24  25
HETATM   25  O   UNL     1       4.292  24.928  53.919  1.00  0.00    -0.360 OA
HETATM   26  H   UNL     1       4.386  25.344  54.805  1.00  0.00     0.217 HD
ENDBRANCH  24  25
ENDBRANCH   1  19
TORSDOF 2
ENDMDL
MODEL 7
REMARK VINA RESULT:      -8.1      1.941      3.977
REMARK  2 active torsions:
REMARK  status: ('A' for Active; 'I' for Inactive)
REMARK    1  A    between atoms: C_3  and  C_4 
REMARK    2  A    between atoms: C_19  and  O_20 
ROOT
HETATM    1  C   UNL     1       6.991  25.574  53.885  1.00  0.00     0.137 C 
HETATM    2  N   UNL     1       6.439  24.213  53.672  1.00  0.00    -0.278 NA
HETATM    3  C   UNL     1       7.236  23.112  54.045  1.00  0.00     0.036 A 
HETATM    4  C   UNL     1       7.580  22.842  55.390  1.00  0.00     0.053 A 
HETATM    5  N   UNL     1       7.237  23.700  56.465  1.00  0.00    -0.356 N 
HETATM    6  C   UNL     1       7.360  25.070  56.392  1.00  0.00     0.041 A 
HETATM    7  C   UNL     1       7.311  25.860  55.308  1.00  0.00     0.056 A 
HETATM    8  C   UNL     1       7.733  27.200  55.752  1.00  0.00     0.251 A 
HETATM    9  O   UNL     1       7.983  28.156  55.044  1.00  0.00    -0.268 OA
HETATM   10  N   UNL     1       7.868  27.164  57.115  1.00  0.00    -0.351 N 
HETATM   11  C   UNL     1       7.660  25.857  57.640  1.00  0.00     0.180 A 
HETATM   12  C   UNL     1       7.631  22.204  53.047  1.00  0.00     0.026 A 
HETATM   13  C   UNL     1       8.366  21.059  53.358  1.00  0.00     0.002 A 
HETATM   14  C   UNL     1       8.701  20.791  54.679  1.00  0.00     0.002 A 
HETATM   15  C   UNL     1       8.305  21.672  55.686  1.00  0.00     0.031 A 
HETATM   16  H   UNL     1       6.182  24.132  52.688  1.00  0.00     0.128 HD
HETATM   17  H   UNL     1       7.466  23.309  57.373  1.00  0.00     0.166 HD
HETATM   18  H   UNL     1       8.191  27.970  57.630  1.00  0.00     0.163 HD
ENDROOT
BRANCH   1  19
HETATM   19  C   UNL     1       5.920  26.520  53.341  1.00  0.00    -0.002 A 
HETATM   20  C   UNL     1       5.093  27.229  54.232  1.00  0.00     0.012 A 
HETATM   21  C   UNL     1       4.079  28.064  53.755  1.00  0.00     0.001 A 
HETATM   22  C   UNL     1       3.870  28.200  52.384  1.00  0.00     0.003 A 
HETATM   23  C   UNL     1       4.681  27.510  51.486  1.00  0.00     0.037 A 
HETATM   24  C   UNL     1       5.699  26.689  51.962  1.00  0.00     0.073 A 
BRANCH  24  25
HETATM   25  O   UNL     1       6.486  26.075  51.024  1.00  0.00    -0.360 OA
HETATM   26  H   UNL     1       7.188  26.714  50.767  1.00  0.00     0.217 HD
ENDBRANCH  24  25
ENDBRANCH   1  19
TORSDOF 2
ENDMDL
MODEL 8
REMARK VINA RESULT:      -8.0      1.979      5.378
REMARK  2 active torsions:
REMARK  status: ('A' for Active; 'I' for Inactive)
REMARK    1  A    between atoms: C_3  and  C_4 
REMARK    2  A    between atoms: C_19  and  O_20 
ROOT
HETATM    1  C   UNL     1       7.147  25.622  54.716  1.00  0.00     0.137 C 
HETATM    2  N   UNL     1       6.202  25.841  55.839  1.00  0.00    -0.278 NA
HETATM    3  C   UNL     1       5.620  27.117  55.972  1.00  0.00     0.036 A 
HETATM    4  C   UNL     1       4.722  27.647  55.018  1.00  0.00     0.053 A 
HETATM    5  N   UNL     1       4.402  26.989  53.804  1.00  0.00    -0.356 N 
HETATM    6  C   UNL     1       5.354  26.379  53.015  1.00  0.00     0.041 A 
HETATM    7  C   UNL     1       6.532  25.850  53.382  1.00  0.00     0.056 A 
HETATM    8  C   UNL     1       7.256  25.549  52.134  1.00  0.00     0.251 A 
HETATM    9  O   UNL     1       8.421  25.217  52.031  1.00  0.00    -0.268 OA
HETATM   10  N   UNL     1       6.401  25.781  51.090  1.00  0.00    -0.351 N 
HETATM   11  C   UNL     1       5.156  26.318  51.525  1.00  0.00     0.180 A 
HETATM   12  C   UNL     1       5.879  27.852  57.143  1.00  0.00     0.026 A 
HETATM   13  C   UNL     1       5.283  29.093  57.368  1.00  0.00     0.002 A 
HETATM   14  C   UNL     1       4.397  29.613  56.432  1.00  0.00     0.002 A 
HETATM   15  C   UNL     1       4.114  28.892  55.271  1.00  0.00     0.031 A 
HETATM   16  H   UNL     1       6.685  25.592  56.703  1.00  0.00     0.128 HD
HETATM   17  H   UNL     1       3.664  27.452  53.283  1.00  0.00     0.166 HD
HETATM   18  H   UNL     1       6.704  25.677  50.132  1.00  0.00     0.163 HD
ENDROOT
BRANCH   1  19
HETATM   19  C   UNL     1       7.627  24.180  54.882  1.00  0.00    -0.002 A 
HETATM   20  C   UNL     1       7.241  23.201  53.949  1.00  0.00     0.012 A 
HETATM   21  C   UNL     1       7.632  21.869  54.108  1.00  0.00     0.001 A 
HETATM   22  C   UNL     1       8.408  21.492  55.203  1.00  0.00     0.003 A 
HETATM   23  C   UNL     1       8.805  22.448  56.135  1.00  0.00     0.037 A 
HETATM   24  C   UNL     1       8.425  23.777  55.968  1.00  0.00     0.073 A 
BRANCH  24  25
HETATM   25  O   UNL     1       8.886  24.671  56.897  1.00  0.00    -0.360 OA
HETATM   26  H   UNL     1       9.566  24.209  57.437  1.00  0.00     0.217 HD
ENDBRANCH  24  25
ENDBRANCH   1  19
TORSDOF 2
ENDMDL
MODEL 9
REMARK VINA RESULT:      -7.6      8.089     11.306
REMARK  2 active torsions:
REMARK  status: ('A' for Active; 'I' for Inactive)
REMARK    1  A    between atoms: C_3  and  C_4 
REMARK    2  A    between atoms: C_19  and  O_20 
ROOT
HETATM    1  C   UNL     1       4.885  33.193  60.367  1.00  0.00     0.137 C 
HETATM    2  N   UNL     1       5.551  32.213  61.262  1.00  0.00    -0.278 NA
HETATM    3  C   UNL     1       6.003  32.667  62.517  1.00  0.00     0.036 A 
HETATM    4  C   UNL     1       5.122  33.104  63.532  1.00  0.00     0.053 A 
HETATM    5  N   UNL     1       3.720  33.214  63.347  1.00  0.00    -0.356 N 
HETATM    6  C   UNL     1       3.160  33.752  62.209  1.00  0.00     0.041 A 
HETATM    7  C   UNL     1       3.664  33.795  60.965  1.00  0.00     0.056 A 
HETATM    8  C   UNL     1       2.779  34.681  60.190  1.00  0.00     0.251 A 
HETATM    9  O   UNL     1       2.980  35.112  59.071  1.00  0.00    -0.268 OA
HETATM   10  N   UNL     1       1.708  34.999  60.983  1.00  0.00    -0.351 N 
HETATM   11  C   UNL     1       1.839  34.469  62.298  1.00  0.00     0.180 A 
HETATM   12  C   UNL     1       7.381  32.601  62.795  1.00  0.00     0.026 A 
HETATM   13  C   UNL     1       7.888  32.973  64.040  1.00  0.00     0.002 A 
HETATM   14  C   UNL     1       7.021  33.399  65.039  1.00  0.00     0.002 A 
HETATM   15  C   UNL     1       5.650  33.457  64.788  1.00  0.00     0.031 A 
HETATM   16  H   UNL     1       6.328  31.800  60.746  1.00  0.00     0.128 HD
HETATM   17  H   UNL     1       3.224  33.440  64.203  1.00  0.00     0.166 HD
HETATM   18  H   UNL     1       0.990  35.634  60.664  1.00  0.00     0.163 HD
ENDROOT
BRANCH   1  19
HETATM   19  C   UNL     1       4.567  32.408  59.094  1.00  0.00    -0.002 A 
HETATM   20  C   UNL     1       5.174  32.770  57.878  1.00  0.00     0.012 A 
HETATM   21  C   UNL     1       4.864  32.094  56.695  1.00  0.00     0.001 A 
HETATM   22  C   UNL     1       3.939  31.052  56.706  1.00  0.00     0.003 A 
HETATM   23  C   UNL     1       3.330  30.675  57.901  1.00  0.00     0.037 A 
HETATM   24  C   UNL     1       3.651  31.341  59.080  1.00  0.00     0.073 A 
BRANCH  24  25
HETATM   25  O   UNL     1       3.049  30.891  60.226  1.00  0.00    -0.360 OA
HETATM   26  H   UNL     1       3.696  30.998  60.958  1.00  0.00     0.217 HD
ENDBRANCH  24  25
ENDBRANCH   1  19
TORSDOF 2
ENDMDL
MODEL 10
REMARK VINA RESULT:      -7.6      2.925      5.792
REMARK  2 active torsions:
REMARK  status: ('A' for Active; 'I' for Inactive)
REMARK    1  A    between atoms: C_3  and  C_4 
REMARK    2  A    between atoms: C_19  and  O_20 
ROOT
HETATM    1  C   UNL     1       5.613  26.823  51.080  1.00  0.00     0.137 C 
HETATM    2  N   UNL     1       5.684  25.376  51.402  1.00  0.00    -0.278 NA
HETATM    3  C   UNL     1       6.346  24.996  52.586  1.00  0.00     0.036 A 
HETATM    4  C   UNL     1       5.862  25.333  53.871  1.00  0.00     0.053 A 
HETATM    5  N   UNL     1       4.728  26.157  54.081  1.00  0.00    -0.356 N 
HETATM    6  C   UNL     1       4.504  27.312  53.363  1.00  0.00     0.041 A 
HETATM    7  C   UNL     1       4.917  27.621  52.123  1.00  0.00     0.056 A 
HETATM    8  C   UNL     1       4.613  29.050  51.931  1.00  0.00     0.251 A 
HETATM    9  O   UNL     1       4.979  29.754  51.009  1.00  0.00    -0.268 OA
HETATM   10  N   UNL     1       3.899  29.475  53.020  1.00  0.00    -0.351 N 
HETATM   11  C   UNL     1       3.769  28.457  54.006  1.00  0.00     0.180 A 
HETATM   12  C   UNL     1       7.486  24.178  52.482  1.00  0.00     0.026 A 
HETATM   13  C   UNL     1       8.150  23.713  53.618  1.00  0.00     0.002 A 
HETATM   14  C   UNL     1       7.673  24.040  54.880  1.00  0.00     0.002 A 
HETATM   15  C   UNL     1       6.534  24.838  55.005  1.00  0.00     0.031 A 
HETATM   16  H   UNL     1       6.107  24.901  50.605  1.00  0.00     0.128 HD
HETATM   17  H   UNL     1       4.453  26.214  55.056  1.00  0.00     0.166 HD
HETATM   18  H   UNL     1       3.619  30.441  53.118  1.00  0.00     0.163 HD
ENDROOT
BRANCH   1  19
HETATM   19  C   UNL     1       4.888  26.890  49.735  1.00  0.00    -0.002 A 
HETATM   20  C   UNL     1       3.810  26.024  49.477  1.00  0.00     0.012 A 
HETATM   21  C   UNL     1       3.164  26.038  48.238  1.00  0.00     0.001 A 
HETATM   22  C   UNL     1       3.586  26.910  47.236  1.00  0.00     0.003 A 
HETATM   23  C   UNL     1       4.649  27.778  47.474  1.00  0.00     0.037 A 
HETATM   24  C   UNL     1       5.283  27.772  48.713  1.00  0.00     0.073 A 
BRANCH  24  25
HETATM   25  O   UNL     1       6.292  28.681  48.895  1.00  0.00    -0.360 OA
HETATM   26  H   UNL     1       5.890  29.578  48.850  1.00  0.00     0.217 HD
ENDBRANCH  24  25
ENDBRANCH   1  19
TORSDOF 2
ENDMDL
