MODEL 1
REMARK VINA RESULT:     -10.5      0.000      0.000
REMARK  7 active torsions:
REMARK  status: ('A' for Active; 'I' for Inactive)
REMARK    1  A    between atoms: C_2  and  O_3 
REMARK    2  A    between atoms: O_3  and  C_4 
REMARK    3  A    between atoms: C_4  and  C_5 
REMARK    4  A    between atoms: C_8  and  N_9 
REMARK       I    between atoms: N_9  and  C_10 
REMARK    5  A    between atoms: C_10  and  C_11 
REMARK    6  A    between atoms: C_11  and  N_12 
REMARK    7  A    between atoms: C_18  and  C_19 
ROOT
HETATM    1  N   UNL     1       7.016  27.974  55.542  1.00  0.00    -0.063 N 
HETATM    2  H   UNL     1       6.482  27.091  55.428  1.00  0.00     0.280 HD
HETATM    3  C   UNL     1       8.119  27.630  56.525  1.00  0.00     0.240 C 
HETATM    4  C   UNL     1       7.896  28.304  57.865  1.00  0.00     0.083 C 
HETATM    5  C   UNL     1       7.726  29.821  57.713  1.00  0.00     0.131 A 
HETATM    6  N   UNL     1       7.131  30.317  58.980  1.00  0.00    -0.251 NA
HETATM    7  C   UNL     1       7.987  31.159  59.499  1.00  0.00     0.132 A 
HETATM    8  C   UNL     1       9.199  31.342  58.616  1.00  0.00     0.272 A 
HETATM    9  O   UNL     1      10.122  32.106  58.756  1.00  0.00    -0.266 OA
HETATM   10  N   UNL     1       8.992  30.476  57.589  1.00  0.00    -0.327 N 
HETATM   11  C   UNL     1       6.793  30.215  56.557  1.00  0.00     0.083 C 
HETATM   12  C   UNL     1       6.039  29.015  56.016  1.00  0.00     0.240 C 
HETATM   13  H   UNL     1       9.633  30.473  56.805  1.00  0.00     0.165 HD
ENDROOT
BRANCH   1  14
HETATM   14  C   UNL     1       7.560  28.222  54.114  1.00  0.00     0.337 C 
BRANCH  14  15
HETATM   15  C   UNL     1       6.492  27.898  53.074  1.00  0.00     0.248 C 
HETATM   16  N   UNL     1       6.145  26.626  52.745  1.00  0.00    -0.326 N 
HETATM   17  H   UNL     1       5.333  26.612  52.130  1.00  0.00     0.169 HD
HETATM   18  O   UNL     1       5.882  28.844  52.560  1.00  0.00    -0.271 OA
BRANCH  16  19
HETATM   19  C   UNL     1       6.659  25.363  53.089  1.00  0.00     0.034 A 
HETATM   20  C   UNL     1       6.391  24.674  54.272  1.00  0.00     0.030 A 
HETATM   21  C   UNL     1       6.955  23.410  54.500  1.00  0.00     0.020 A 
HETATM   22  C   UNL     1       7.808  22.820  53.559  1.00  0.00     0.039 A 
HETATM   23  C   UNL     1       8.102  23.520  52.387  1.00  0.00     0.020 A 
HETATM   24  C   UNL     1       7.537  24.781  52.162  1.00  0.00     0.030 A 
BRANCH  22  25
HETATM   25  C   UNL     1       8.370  21.476  53.860  1.00  0.00     0.293 C 
HETATM   26  O   UNL     1       7.994  20.461  53.298  1.00  0.00    -0.259 OA
BRANCH  25  27
HETATM   27  O   UNL     1       9.332  21.564  54.810  1.00  0.00    -0.318 OA
BRANCH  27  28
HETATM   28  C   UNL     1       9.304  20.549  55.828  1.00  0.00     0.174 C 
HETATM   29  C   UNL     1       8.395  20.978  56.963  1.00  0.00     0.034 C 
ENDBRANCH  27  28
ENDBRANCH  25  27
ENDBRANCH  22  25
ENDBRANCH  16  19
ENDBRANCH  14  15
ENDBRANCH   1  14
BRANCH   7  30
HETATM   30  C   UNL     1       7.785  31.842  60.793  1.00  0.00    -0.002 A 
HETATM   31  C   UNL     1       8.558  31.546  61.923  1.00  0.00     0.016 A 
HETATM   32  C   UNL     1       8.319  32.204  63.135  1.00  0.00     0.024 A 
HETATM   33  C   UNL     1       7.309  33.158  63.223  1.00  0.00     0.034 A 
HETATM   34 CL   UNL     1       7.016  33.959  64.714  1.00  0.00    -0.084 Cl
HETATM   35  C   UNL     1       6.531  33.460  62.108  1.00  0.00     0.024 A 
HETATM   36  C   UNL     1       6.766  32.802  60.896  1.00  0.00     0.016 A 
ENDBRANCH   7  30
TORSDOF 7
ENDMDL
MODEL 2
REMARK VINA RESULT:      -9.6      4.020     11.145
REMARK  7 active torsions:
REMARK  status: ('A' for Active; 'I' for Inactive)
REMARK    1  A    between atoms: C_2  and  O_3 
REMARK    2  A    between atoms: O_3  and  C_4 
REMARK    3  A    between atoms: C_4  and  C_5 
REMARK    4  A    between atoms: C_8  and  N_9 
REMARK       I    between atoms: N_9  and  C_10 
REMARK    5  A    between atoms: C_10  and  C_11 
REMARK    6  A    between atoms: C_11  and  N_12 
REMARK    7  A    between atoms: C_18  and  C_19 
ROOT
HETATM    1  N   UNL     1       7.243  29.786  58.501  1.00  0.00    -0.063 N 
HETATM    2  H   UNL     1       6.953  29.860  59.495  1.00  0.00     0.280 HD
HETATM    3  C   UNL     1       5.983  29.374  57.764  1.00  0.00     0.240 C 
HETATM    4  C   UNL     1       6.075  27.945  57.266  1.00  0.00     0.083 C 
HETATM    5  C   UNL     1       7.328  27.725  56.410  1.00  0.00     0.131 A 
HETATM    6  N   UNL     1       7.532  26.258  56.313  1.00  0.00    -0.251 NA
HETATM    7  C   UNL     1       7.452  25.943  55.045  1.00  0.00     0.132 A 
HETATM    8  C   UNL     1       7.238  27.162  54.179  1.00  0.00     0.272 A 
HETATM    9  O   UNL     1       7.210  27.233  52.975  1.00  0.00    -0.266 OA
HETATM   10  N   UNL     1       7.129  28.185  55.069  1.00  0.00    -0.327 N 
HETATM   11  C   UNL     1       8.596  28.348  57.017  1.00  0.00     0.083 C 
HETATM   12  C   UNL     1       8.368  28.788  58.450  1.00  0.00     0.240 C 
HETATM   13  H   UNL     1       7.068  29.136  54.728  1.00  0.00     0.165 HD
ENDROOT
BRANCH   1  14
HETATM   14  C   UNL     1       7.669  31.236  58.167  1.00  0.00     0.337 C 
BRANCH  14  15
HETATM   15  C   UNL     1       9.020  31.553  58.801  1.00  0.00     0.248 C 
HETATM   16  N   UNL     1       9.152  31.966  60.089  1.00  0.00    -0.326 N 
HETATM   17  H   UNL     1      10.132  32.005  60.365  1.00  0.00     0.169 HD
HETATM   18  O   UNL     1      10.035  31.361  58.120  1.00  0.00    -0.271 OA
BRANCH  16  19
HETATM   19  C   UNL     1       8.231  32.325  61.089  1.00  0.00     0.034 A 
HETATM   20  C   UNL     1       6.916  32.735  60.869  1.00  0.00     0.030 A 
HETATM   21  C   UNL     1       6.084  33.059  61.952  1.00  0.00     0.020 A 
HETATM   22  C   UNL     1       6.554  32.993  63.268  1.00  0.00     0.039 A 
HETATM   23  C   UNL     1       7.879  32.611  63.490  1.00  0.00     0.020 A 
HETATM   24  C   UNL     1       8.707  32.288  62.409  1.00  0.00     0.030 A 
BRANCH  22  25
HETATM   25  C   UNL     1       5.619  33.346  64.371  1.00  0.00     0.293 C 
HETATM   26  O   UNL     1       4.602  32.714  64.602  1.00  0.00    -0.259 OA
BRANCH  25  27
HETATM   27  O   UNL     1       6.071  34.427  65.050  1.00  0.00    -0.318 OA
BRANCH  27  28
HETATM   28  C   UNL     1       5.493  34.638  66.349  1.00  0.00     0.174 C 
HETATM   29  C   UNL     1       6.466  34.202  67.428  1.00  0.00     0.034 C 
ENDBRANCH  27  28
ENDBRANCH  25  27
ENDBRANCH  22  25
ENDBRANCH  16  19
ENDBRANCH  14  15
ENDBRANCH   1  14
BRANCH   7  30
HETATM   30  C   UNL     1       7.556  24.562  54.533  1.00  0.00    -0.002 A 
HETATM   31  C   UNL     1       7.369  23.443  55.354  1.00  0.00     0.016 A 
HETATM   32  C   UNL     1       7.497  22.152  54.830  1.00  0.00     0.024 A 
HETATM   33  C   UNL     1       7.814  21.974  53.486  1.00  0.00     0.034 A 
HETATM   34 CL   UNL     1       7.976  20.387  52.848  1.00  0.00    -0.084 Cl
HETATM   35  C   UNL     1       8.007  23.078  52.659  1.00  0.00     0.024 A 
HETATM   36  C   UNL     1       7.881  24.369  53.181  1.00  0.00     0.016 A 
ENDBRANCH   7  30
TORSDOF 7
ENDMDL
MODEL 3
REMARK VINA RESULT:      -9.3      4.316     10.958
REMARK  7 active torsions:
REMARK  status: ('A' for Active; 'I' for Inactive)
REMARK    1  A    between atoms: C_2  and  O_3 
REMARK    2  A    between atoms: O_3  and  C_4 
REMARK    3  A    between atoms: C_4  and  C_5 
REMARK    4  A    between atoms: C_8  and  N_9 
REMARK       I    between atoms: N_9  and  C_10 
REMARK    5  A    between atoms: C_10  and  C_11 
REMARK    6  A    between atoms: C_11  and  N_12 
REMARK    7  A    between atoms: C_18  and  C_19 
ROOT
HETATM    1  N   UNL     1       6.039  30.261  56.406  1.00  0.00    -0.063 N 
HETATM    2  H   UNL     1       5.873  31.054  55.757  1.00  0.00     0.280 HD
HETATM    3  C   UNL     1       7.513  29.941  56.254  1.00  0.00     0.240 C 
HETATM    4  C   UNL     1       7.723  28.616  55.549  1.00  0.00     0.083 C 
HETATM    5  C   UNL     1       6.967  27.479  56.248  1.00  0.00     0.131 A 
HETATM    6  N   UNL     1       6.907  26.347  55.289  1.00  0.00    -0.251 NA
HETATM    7  C   UNL     1       7.537  25.342  55.843  1.00  0.00     0.132 A 
HETATM    8  C   UNL     1       8.029  25.687  57.229  1.00  0.00     0.272 A 
HETATM    9  O   UNL     1       8.563  24.968  58.037  1.00  0.00    -0.266 OA
HETATM   10  N   UNL     1       7.692  26.995  57.384  1.00  0.00    -0.327 N 
HETATM   11  C   UNL     1       5.529  27.855  56.639  1.00  0.00     0.083 C 
HETATM   12  C   UNL     1       5.101  29.159  55.995  1.00  0.00     0.240 C 
HETATM   13  H   UNL     1       7.839  27.443  58.280  1.00  0.00     0.165 HD
ENDROOT
BRANCH   1  14
HETATM   14  C   UNL     1       5.714  30.884  57.785  1.00  0.00     0.337 C 
BRANCH  14  15
HETATM   15  C   UNL     1       5.140  32.287  57.613  1.00  0.00     0.248 C 
HETATM   16  N   UNL     1       5.089  33.193  58.624  1.00  0.00    -0.326 N 
HETATM   17  H   UNL     1       4.791  34.107  58.287  1.00  0.00     0.169 HD
HETATM   18  O   UNL     1       4.764  32.621  56.482  1.00  0.00    -0.271 OA
BRANCH  16  19
HETATM   19  C   UNL     1       5.372  33.124  60.000  1.00  0.00     0.034 A 
HETATM   20  C   UNL     1       6.570  32.678  60.558  1.00  0.00     0.030 A 
HETATM   21  C   UNL     1       6.742  32.664  61.951  1.00  0.00     0.020 A 
HETATM   22  C   UNL     1       5.716  33.081  62.809  1.00  0.00     0.039 A 
HETATM   23  C   UNL     1       4.505  33.499  62.254  1.00  0.00     0.020 A 
HETATM   24  C   UNL     1       4.337  33.513  60.864  1.00  0.00     0.030 A 
BRANCH  22  25
HETATM   25  C   UNL     1       5.964  33.045  64.275  1.00  0.00     0.293 C 
HETATM   26  O   UNL     1       7.084  33.078  64.757  1.00  0.00    -0.259 OA
BRANCH  25  27
HETATM   27  O   UNL     1       4.794  32.984  64.955  1.00  0.00    -0.318 OA
BRANCH  27  28
HETATM   28  C   UNL     1       4.678  33.865  66.085  1.00  0.00     0.174 C 
HETATM   29  C   UNL     1       3.905  35.110  65.695  1.00  0.00     0.034 C 
ENDBRANCH  27  28
ENDBRANCH  25  27
ENDBRANCH  22  25
ENDBRANCH  16  19
ENDBRANCH  14  15
ENDBRANCH   1  14
BRANCH   7  30
HETATM   30  C   UNL     1       7.738  24.035  55.185  1.00  0.00    -0.002 A 
HETATM   31  C   UNL     1       7.696  22.828  55.894  1.00  0.00     0.016 A 
HETATM   32  C   UNL     1       7.912  21.613  55.233  1.00  0.00     0.024 A 
HETATM   33  C   UNL     1       8.174  21.600  53.866  1.00  0.00     0.034 A 
HETATM   34 CL   UNL     1       8.445  20.107  53.060  1.00  0.00    -0.084 Cl
HETATM   35  C   UNL     1       8.222  22.794  53.150  1.00  0.00     0.024 A 
HETATM   36  C   UNL     1       8.008  24.009  53.808  1.00  0.00     0.016 A 
ENDBRANCH   7  30
TORSDOF 7
ENDMDL
MODEL 4
REMARK VINA RESULT:      -9.2      4.406     10.448
REMARK  7 active torsions:
REMARK  status: ('A' for Active; 'I' for Inactive)
REMARK    1  A    between atoms: C_2  and  O_3 
REMARK    2  A    between atoms: O_3  and  C_4 
REMARK    3  A    between atoms: C_4  and  C_5 
REMARK    4  A    between atoms: C_8  and  N_9 
REMARK       I    between atoms: N_9  and  C_10 
REMARK    5  A    between atoms: C_10  and  C_11 
REMARK    6  A    between atoms: C_11  and  N_12 
REMARK    7  A    between atoms: C_18  and  C_19 
ROOT
HETATM    1  N   UNL     1       4.775  30.901  55.696  1.00  0.00    -0.063 N 
HETATM    2  H   UNL     1       5.224  31.777  55.364  1.00  0.00     0.280 HD
HETATM    3  C   UNL     1       5.766  30.311  56.681  1.00  0.00     0.240 C 
HETATM    4  C   UNL     1       6.412  29.055  56.131  1.00  0.00     0.083 C 
HETATM    5  C   UNL     1       5.363  28.023  55.698  1.00  0.00     0.131 A 
HETATM    6  N   UNL     1       6.059  27.037  54.833  1.00  0.00    -0.251 NA
HETATM    7  C   UNL     1       5.956  25.873  55.421  1.00  0.00     0.132 A 
HETATM    8  C   UNL     1       5.149  25.959  56.696  1.00  0.00     0.272 A 
HETATM    9  O   UNL     1       4.795  25.065  57.423  1.00  0.00    -0.266 OA
HETATM   10  N   UNL     1       4.867  27.284  56.819  1.00  0.00    -0.327 N 
HETATM   11  C   UNL     1       4.204  28.635  54.893  1.00  0.00     0.083 C 
HETATM   12  C   UNL     1       4.510  30.061  54.476  1.00  0.00     0.240 C 
HETATM   13  H   UNL     1       4.251  27.594  57.560  1.00  0.00     0.165 HD
ENDROOT
BRANCH   1  14
HETATM   14  C   UNL     1       3.496  31.424  56.393  1.00  0.00     0.337 C 
BRANCH  14  15
HETATM   15  C   UNL     1       3.483  32.950  56.406  1.00  0.00     0.248 C 
HETATM   16  N   UNL     1       3.866  33.681  57.485  1.00  0.00    -0.326 N 
HETATM   17  H   UNL     1       3.908  34.674  57.263  1.00  0.00     0.169 HD
HETATM   18  O   UNL     1       3.167  33.533  55.362  1.00  0.00    -0.271 OA
BRANCH  16  19
HETATM   19  C   UNL     1       4.219  33.346  58.805  1.00  0.00     0.034 A 
HETATM   20  C   UNL     1       5.461  32.860  59.212  1.00  0.00     0.030 A 
HETATM   21  C   UNL     1       5.702  32.570  60.564  1.00  0.00     0.020 A 
HETATM   22  C   UNL     1       4.702  32.746  61.528  1.00  0.00     0.039 A 
HETATM   23  C   UNL     1       3.448  33.205  61.120  1.00  0.00     0.020 A 
HETATM   24  C   UNL     1       3.211  33.494  59.771  1.00  0.00     0.030 A 
BRANCH  22  25
HETATM   25  C   UNL     1       5.022  32.424  62.945  1.00  0.00     0.293 C 
HETATM   26  O   UNL     1       4.846  31.317  63.427  1.00  0.00    -0.259 OA
BRANCH  25  27
HETATM   27  O   UNL     1       5.528  33.509  63.578  1.00  0.00    -0.318 OA
BRANCH  27  28
HETATM   28  C   UNL     1       6.620  33.258  64.479  1.00  0.00     0.174 C 
HETATM   29  C   UNL     1       7.848  32.829  63.699  1.00  0.00     0.034 C 
ENDBRANCH  27  28
ENDBRANCH  25  27
ENDBRANCH  22  25
ENDBRANCH  16  19
ENDBRANCH  14  15
ENDBRANCH   1  14
BRANCH   7  30
HETATM   30  C   UNL     1       6.560  24.631  54.898  1.00  0.00    -0.002 A 
HETATM   31  C   UNL     1       7.087  23.643  55.740  1.00  0.00     0.016 A 
HETATM   32  C   UNL     1       7.668  22.491  55.199  1.00  0.00     0.024 A 
HETATM   33  C   UNL     1       7.727  22.322  53.818  1.00  0.00     0.034 A 
HETATM   34 CL   UNL     1       8.446  20.908  53.159  1.00  0.00    -0.084 Cl
HETATM   35  C   UNL     1       7.210  23.298  52.970  1.00  0.00     0.024 A 
HETATM   36  C   UNL     1       6.630  24.451  53.508  1.00  0.00     0.016 A 
ENDBRANCH   7  30
TORSDOF 7
ENDMDL
MODEL 5
REMARK VINA RESULT:      -9.1      4.114     10.554
REMARK  7 active torsions:
REMARK  status: ('A' for Active; 'I' for Inactive)
REMARK    1  A    between atoms: C_2  and  O_3 
REMARK    2  A    between atoms: O_3  and  C_4 
REMARK    3  A    between atoms: C_4  and  C_5 
REMARK    4  A    between atoms: C_8  and  N_9 
REMARK       I    between atoms: N_9  and  C_10 
REMARK    5  A    between atoms: C_10  and  C_11 
REMARK    6  A    between atoms: C_11  and  N_12 
REMARK    7  A    between atoms: C_18  and  C_19 
ROOT
HETATM    1  N   UNL     1       6.063  30.212  57.407  1.00  0.00    -0.063 N 
HETATM    2  H   UNL     1       6.201  30.482  58.400  1.00  0.00     0.280 HD
HETATM    3  C   UNL     1       4.953  29.179  57.442  1.00  0.00     0.240 C 
HETATM    4  C   UNL     1       5.475  27.793  57.114  1.00  0.00     0.083 C 
HETATM    5  C   UNL     1       6.224  27.775  55.775  1.00  0.00     0.131 A 
HETATM    6  N   UNL     1       7.014  26.518  55.741  1.00  0.00    -0.251 NA
HETATM    7  C   UNL     1       6.581  25.821  54.722  1.00  0.00     0.132 A 
HETATM    8  C   UNL     1       5.506  26.558  53.957  1.00  0.00     0.272 A 
HETATM    9  O   UNL     1       4.965  26.239  52.927  1.00  0.00    -0.266 OA
HETATM   10  N   UNL     1       5.314  27.698  54.673  1.00  0.00    -0.327 N 
HETATM   11  C   UNL     1       7.191  28.957  55.603  1.00  0.00     0.083 C 
HETATM   12  C   UNL     1       7.388  29.708  56.905  1.00  0.00     0.240 C 
HETATM   13  H   UNL     1       4.694  28.412  54.312  1.00  0.00     0.165 HD
ENDROOT
BRANCH   1  14
HETATM   14  C   UNL     1       5.606  31.541  56.758  1.00  0.00     0.337 C 
BRANCH  14  15
HETATM   15  C   UNL     1       4.097  31.715  56.908  1.00  0.00     0.248 C 
HETATM   16  N   UNL     1       3.516  32.152  58.056  1.00  0.00    -0.326 N 
HETATM   17  H   UNL     1       2.520  32.323  57.924  1.00  0.00     0.169 HD
HETATM   18  O   UNL     1       3.391  31.503  55.914  1.00  0.00    -0.271 OA
BRANCH  16  19
HETATM   19  C   UNL     1       4.005  32.423  59.346  1.00  0.00     0.034 A 
HETATM   20  C   UNL     1       5.000  33.350  59.657  1.00  0.00     0.030 A 
HETATM   21  C   UNL     1       5.400  33.542  60.989  1.00  0.00     0.020 A 
HETATM   22  C   UNL     1       4.825  32.801  62.028  1.00  0.00     0.039 A 
HETATM   23  C   UNL     1       3.851  31.851  61.717  1.00  0.00     0.020 A 
HETATM   24  C   UNL     1       3.453  31.662  60.388  1.00  0.00     0.030 A 
BRANCH  22  25
HETATM   25  C   UNL     1       5.291  33.055  63.418  1.00  0.00     0.293 C 
HETATM   26  O   UNL     1       4.679  32.672  64.401  1.00  0.00    -0.259 OA
BRANCH  25  27
HETATM   27  O   UNL     1       6.459  33.740  63.411  1.00  0.00    -0.318 OA
BRANCH  27  28
HETATM   28  C   UNL     1       7.576  33.085  64.036  1.00  0.00     0.174 C 
HETATM   29  C   UNL     1       8.274  32.183  63.036  1.00  0.00     0.034 C 
ENDBRANCH  27  28
ENDBRANCH  25  27
ENDBRANCH  22  25
ENDBRANCH  16  19
ENDBRANCH  14  15
ENDBRANCH   1  14
BRANCH   7  30
HETATM   30  C   UNL     1       7.086  24.478  54.370  1.00  0.00    -0.002 A 
HETATM   31  C   UNL     1       7.167  23.441  55.308  1.00  0.00     0.016 A 
HETATM   32  C   UNL     1       7.670  22.190  54.935  1.00  0.00     0.024 A 
HETATM   33  C   UNL     1       8.094  21.970  53.628  1.00  0.00     0.034 A 
HETATM   34 CL   UNL     1       8.716  20.434  53.176  1.00  0.00    -0.084 Cl
HETATM   35  C   UNL     1       8.022  22.994  52.686  1.00  0.00     0.024 A 
HETATM   36  C   UNL     1       7.521  24.246  53.057  1.00  0.00     0.016 A 
ENDBRANCH   7  30
TORSDOF 7
ENDMDL
MODEL 6
REMARK VINA RESULT:      -8.7      1.459      2.011
REMARK  7 active torsions:
REMARK  status: ('A' for Active; 'I' for Inactive)
REMARK    1  A    between atoms: C_2  and  O_3 
REMARK    2  A    between atoms: O_3  and  C_4 
REMARK    3  A    between atoms: C_4  and  C_5 
REMARK    4  A    between atoms: C_8  and  N_9 
REMARK       I    between atoms: N_9  and  C_10 
REMARK    5  A    between atoms: C_10  and  C_11 
REMARK    6  A    between atoms: C_11  and  N_12 
REMARK    7  A    between atoms: C_18  and  C_19 
ROOT
HETATM    1  N   UNL     1       8.737  28.331  56.088  1.00  0.00    -0.063 N 
HETATM    2  H   UNL     1       9.544  27.700  55.919  1.00  0.00     0.280 HD
HETATM    3  C   UNL     1       9.351  29.712  56.221  1.00  0.00     0.240 C 
HETATM    4  C   UNL     1       9.269  30.219  57.648  1.00  0.00     0.083 C 
HETATM    5  C   UNL     1       7.829  30.187  58.176  1.00  0.00     0.131 A 
HETATM    6  N   UNL     1       7.910  30.313  59.654  1.00  0.00    -0.251 NA
HETATM    7  C   UNL     1       7.273  31.408  59.980  1.00  0.00     0.132 A 
HETATM    8  C   UNL     1       6.671  32.086  58.771  1.00  0.00     0.272 A 
HETATM    9  O   UNL     1       5.954  33.056  58.732  1.00  0.00    -0.266 OA
HETATM   10  N   UNL     1       7.084  31.323  57.724  1.00  0.00    -0.327 N 
HETATM   11  C   UNL     1       7.088  28.882  57.844  1.00  0.00     0.083 C 
HETATM   12  C   UNL     1       8.038  27.822  57.320  1.00  0.00     0.240 C 
HETATM   13  H   UNL     1       6.734  31.522  56.796  1.00  0.00     0.165 HD
ENDROOT
BRANCH   1  14
HETATM   14  C   UNL     1       7.914  28.179  54.786  1.00  0.00     0.337 C 
BRANCH  14  15
HETATM   15  C   UNL     1       6.453  27.882  55.112  1.00  0.00     0.248 C 
HETATM   16  N   UNL     1       5.930  26.628  55.077  1.00  0.00    -0.326 N 
HETATM   17  H   UNL     1       4.980  26.614  55.445  1.00  0.00     0.169 HD
HETATM   18  O   UNL     1       5.742  28.824  55.482  1.00  0.00    -0.271 OA
BRANCH  16  19
HETATM   19  C   UNL     1       6.431  25.382  54.661  1.00  0.00     0.034 A 
HETATM   20  C   UNL     1       6.624  24.989  53.337  1.00  0.00     0.030 A 
HETATM   21  C   UNL     1       7.144  23.718  53.043  1.00  0.00     0.020 A 
HETATM   22  C   UNL     1       7.463  22.816  54.064  1.00  0.00     0.039 A 
HETATM   23  C   UNL     1       7.243  23.195  55.390  1.00  0.00     0.020 A 
HETATM   24  C   UNL     1       6.726  24.463  55.680  1.00  0.00     0.030 A 
BRANCH  22  25
HETATM   25  C   UNL     1       8.013  21.486  53.685  1.00  0.00     0.293 C 
HETATM   26  O   UNL     1       7.500  20.777  52.835  1.00  0.00    -0.259 OA
BRANCH  25  27
HETATM   27  O   UNL     1       9.131  21.212  54.398  1.00  0.00    -0.318 OA
BRANCH  27  28
HETATM   28  C   UNL     1       9.084  20.025  55.208  1.00  0.00     0.174 C 
HETATM   29  C   UNL     1       8.897  20.399  56.666  1.00  0.00     0.034 C 
ENDBRANCH  27  28
ENDBRANCH  25  27
ENDBRANCH  22  25
ENDBRANCH  16  19
ENDBRANCH  14  15
ENDBRANCH   1  14
BRANCH   7  30
HETATM   30  C   UNL     1       7.163  31.915  61.363  1.00  0.00    -0.002 A 
HETATM   31  C   UNL     1       5.926  32.190  61.962  1.00  0.00     0.016 A 
HETATM   32  C   UNL     1       5.870  32.687  63.268  1.00  0.00     0.024 A 
HETATM   33  C   UNL     1       7.045  32.914  63.979  1.00  0.00     0.034 A 
HETATM   34 CL   UNL     1       6.971  33.530  65.581  1.00  0.00    -0.084 Cl
HETATM   35  C   UNL     1       8.281  32.648  63.394  1.00  0.00     0.024 A 
HETATM   36  C   UNL     1       8.340  32.152  62.088  1.00  0.00     0.016 A 
ENDBRANCH   7  30
TORSDOF 7
ENDMDL
MODEL 7
REMARK VINA RESULT:      -8.5      4.540     10.941
REMARK  7 active torsions:
REMARK  status: ('A' for Active; 'I' for Inactive)
REMARK    1  A    between atoms: C_2  and  O_3 
REMARK    2  A    between atoms: O_3  and  C_4 
REMARK    3  A    between atoms: C_4  and  C_5 
REMARK    4  A    between atoms: C_8  and  N_9 
REMARK       I    between atoms: N_9  and  C_10 
REMARK    5  A    between atoms: C_10  and  C_11 
REMARK    6  A    between atoms: C_11  and  N_12 
REMARK    7  A    between atoms: C_18  and  C_19 
ROOT
HETATM    1  N   UNL     1       3.713  31.477  56.567  1.00  0.00    -0.063 N 
HETATM    2  H   UNL     1       2.716  31.751  56.473  1.00  0.00     0.280 HD
HETATM    3  C   UNL     1       4.246  31.477  55.148  1.00  0.00     0.240 C 
HETATM    4  C   UNL     1       4.534  30.069  54.664  1.00  0.00     0.083 C 
HETATM    5  C   UNL     1       5.475  29.325  55.622  1.00  0.00     0.131 A 
HETATM    6  N   UNL     1       5.374  27.882  55.290  1.00  0.00    -0.251 NA
HETATM    7  C   UNL     1       6.566  27.491  54.917  1.00  0.00     0.132 A 
HETATM    8  C   UNL     1       7.576  28.612  55.010  1.00  0.00     0.272 A 
HETATM    9  O   UNL     1       8.768  28.566  54.828  1.00  0.00    -0.266 OA
HETATM   10  N   UNL     1       6.840  29.688  55.395  1.00  0.00    -0.327 N 
HETATM   11  C   UNL     1       5.101  29.505  57.102  1.00  0.00     0.083 C 
HETATM   12  C   UNL     1       3.733  30.140  57.257  1.00  0.00     0.240 C 
HETATM   13  H   UNL     1       7.310  30.557  55.616  1.00  0.00     0.165 HD
ENDROOT
BRANCH   1  14
HETATM   14  C   UNL     1       4.300  32.633  57.413  1.00  0.00     0.337 C 
BRANCH  14  15
HETATM   15  C   UNL     1       3.207  33.635  57.775  1.00  0.00     0.248 C 
HETATM   16  N   UNL     1       3.035  34.116  59.034  1.00  0.00    -0.326 N 
HETATM   17  H   UNL     1       2.342  34.862  59.053  1.00  0.00     0.169 HD
HETATM   18  O   UNL     1       2.494  34.066  56.860  1.00  0.00    -0.271 OA
BRANCH  16  19
HETATM   19  C   UNL     1       3.618  33.806  60.277  1.00  0.00     0.034 A 
HETATM   20  C   UNL     1       3.459  32.605  60.968  1.00  0.00     0.030 A 
HETATM   21  C   UNL     1       4.101  32.405  62.200  1.00  0.00     0.020 A 
HETATM   22  C   UNL     1       4.899  33.406  62.767  1.00  0.00     0.039 A 
HETATM   23  C   UNL     1       5.036  34.620  62.092  1.00  0.00     0.020 A 
HETATM   24  C   UNL     1       4.395  34.816  60.863  1.00  0.00     0.030 A 
BRANCH  22  25
HETATM   25  C   UNL     1       5.555  33.129  64.074  1.00  0.00     0.293 C 
HETATM   26  O   UNL     1       6.766  33.046  64.201  1.00  0.00    -0.259 OA
BRANCH  25  27
HETATM   27  O   UNL     1       4.630  33.002  65.054  1.00  0.00    -0.318 OA
BRANCH  27  28
HETATM   28  C   UNL     1       4.678  33.992  66.095  1.00  0.00     0.174 C 
HETATM   29  C   UNL     1       3.590  35.026  65.879  1.00  0.00     0.034 C 
ENDBRANCH  27  28
ENDBRANCH  25  27
ENDBRANCH  22  25
ENDBRANCH  16  19
ENDBRANCH  14  15
ENDBRANCH   1  14
BRANCH   7  30
HETATM   30  C   UNL     1       6.878  26.122  54.460  1.00  0.00    -0.002 A 
HETATM   31  C   UNL     1       6.699  25.001  55.281  1.00  0.00     0.016 A 
HETATM   32  C   UNL     1       7.026  23.724  54.813  1.00  0.00     0.024 A 
HETATM   33  C   UNL     1       7.534  23.561  53.527  1.00  0.00     0.034 A 
HETATM   34 CL   UNL     1       7.939  21.991  52.959  1.00  0.00    -0.084 Cl
HETATM   35  C   UNL     1       7.720  24.667  52.701  1.00  0.00     0.024 A 
HETATM   36  C   UNL     1       7.395  25.945  53.167  1.00  0.00     0.016 A 
ENDBRANCH   7  30
TORSDOF 7
ENDMDL
MODEL 8
REMARK VINA RESULT:      -8.4      5.575     10.904
REMARK  7 active torsions:
REMARK  status: ('A' for Active; 'I' for Inactive)
REMARK    1  A    between atoms: C_2  and  O_3 
REMARK    2  A    between atoms: O_3  and  C_4 
REMARK    3  A    between atoms: C_4  and  C_5 
REMARK    4  A    between atoms: C_8  and  N_9 
REMARK       I    between atoms: N_9  and  C_10 
REMARK    5  A    between atoms: C_10  and  C_11 
REMARK    6  A    between atoms: C_11  and  N_12 
REMARK    7  A    between atoms: C_18  and  C_19 
ROOT
HETATM    1  N   UNL     1       6.017  27.093  53.410  1.00  0.00    -0.063 N 
HETATM    2  H   UNL     1       5.787  27.273  54.406  1.00  0.00     0.280 HD
HETATM    3  C   UNL     1       6.094  28.470  52.779  1.00  0.00     0.240 C 
HETATM    4  C   UNL     1       4.932  28.714  51.836  1.00  0.00     0.083 C 
HETATM    5  C   UNL     1       4.825  27.611  50.775  1.00  0.00     0.131 A 
HETATM    6  N   UNL     1       3.470  27.718  50.178  1.00  0.00    -0.251 NA
HETATM    7  C   UNL     1       3.633  27.972  48.904  1.00  0.00     0.132 A 
HETATM    8  C   UNL     1       5.094  28.010  48.524  1.00  0.00     0.272 A 
HETATM    9  O   UNL     1       5.582  28.129  47.427  1.00  0.00    -0.266 OA
HETATM   10  N   UNL     1       5.747  27.831  49.703  1.00  0.00    -0.327 N 
HETATM   11  C   UNL     1       4.986  26.195  51.352  1.00  0.00     0.083 C 
HETATM   12  C   UNL     1       4.932  26.203  52.867  1.00  0.00     0.240 C 
HETATM   13  H   UNL     1       6.754  27.728  49.702  1.00  0.00     0.165 HD
ENDROOT
BRANCH   1  14
HETATM   14  C   UNL     1       7.404  26.413  53.504  1.00  0.00     0.337 C 
BRANCH  14  15
HETATM   15  C   UNL     1       7.432  25.419  54.661  1.00  0.00     0.248 C 
HETATM   16  N   UNL     1       7.317  25.798  55.961  1.00  0.00    -0.326 N 
HETATM   17  H   UNL     1       7.231  24.989  56.575  1.00  0.00     0.169 HD
HETATM   18  O   UNL     1       7.501  24.215  54.385  1.00  0.00    -0.271 OA
BRANCH  16  19
HETATM   19  C   UNL     1       7.278  27.048  56.605  1.00  0.00     0.034 A 
HETATM   20  C   UNL     1       6.129  27.800  56.843  1.00  0.00     0.030 A 
HETATM   21  C   UNL     1       6.213  29.033  57.508  1.00  0.00     0.020 A 
HETATM   22  C   UNL     1       7.447  29.541  57.932  1.00  0.00     0.039 A 
HETATM   23  C   UNL     1       8.603  28.804  57.669  1.00  0.00     0.020 A 
HETATM   24  C   UNL     1       8.516  27.574  57.006  1.00  0.00     0.030 A 
BRANCH  22  25
HETATM   25  C   UNL     1       7.467  30.853  58.634  1.00  0.00     0.293 C 
HETATM   26  O   UNL     1       6.822  31.816  58.254  1.00  0.00    -0.259 OA
BRANCH  25  27
HETATM   27  O   UNL     1       8.275  30.799  59.720  1.00  0.00    -0.318 OA
BRANCH  27  28
HETATM   28  C   UNL     1       7.800  31.487  60.890  1.00  0.00     0.174 C 
HETATM   29  C   UNL     1       8.957  31.775  61.827  1.00  0.00     0.034 C 
ENDBRANCH  27  28
ENDBRANCH  25  27
ENDBRANCH  22  25
ENDBRANCH  16  19
ENDBRANCH  14  15
ENDBRANCH   1  14
BRANCH   7  30
HETATM   30  C   UNL     1       2.518  28.195  47.961  1.00  0.00    -0.002 A 
HETATM   31  C   UNL     1       2.292  29.435  47.351  1.00  0.00     0.016 A 
HETATM   32  C   UNL     1       1.211  29.607  46.479  1.00  0.00     0.024 A 
HETATM   33  C   UNL     1       0.353  28.543  46.215  1.00  0.00     0.034 A 
HETATM   34 CL   UNL     1      -0.976  28.760  45.148  1.00  0.00    -0.084 Cl
HETATM   35  C   UNL     1       0.564  27.306  46.818  1.00  0.00     0.024 A 
HETATM   36  C   UNL     1       1.642  27.132  47.691  1.00  0.00     0.016 A 
ENDBRANCH   7  30
TORSDOF 7
ENDMDL
MODEL 9
REMARK VINA RESULT:      -8.4      4.196     10.348
REMARK  7 active torsions:
REMARK  status: ('A' for Active; 'I' for Inactive)
REMARK    1  A    between atoms: C_2  and  O_3 
REMARK    2  A    between atoms: O_3  and  C_4 
REMARK    3  A    between atoms: C_4  and  C_5 
REMARK    4  A    between atoms: C_8  and  N_9 
REMARK       I    between atoms: N_9  and  C_10 
REMARK    5  A    between atoms: C_10  and  C_11 
REMARK    6  A    between atoms: C_11  and  N_12 
REMARK    7  A    between atoms: C_18  and  C_19 
ROOT
HETATM    1  N   UNL     1       4.942  30.005  56.223  1.00  0.00    -0.063 N 
HETATM    2  H   UNL     1       5.147  30.531  57.093  1.00  0.00     0.280 HD
HETATM    3  C   UNL     1       4.127  28.810  56.680  1.00  0.00     0.240 C 
HETATM    4  C   UNL     1       4.915  27.521  56.554  1.00  0.00     0.083 C 
HETATM    5  C   UNL     1       5.455  27.326  55.131  1.00  0.00     0.131 A 
HETATM    6  N   UNL     1       6.511  26.285  55.210  1.00  0.00    -0.251 NA
HETATM    7  C   UNL     1       6.122  25.288  54.457  1.00  0.00     0.132 A 
HETATM    8  C   UNL     1       4.807  25.584  53.773  1.00  0.00     0.272 A 
HETATM    9  O   UNL     1       4.221  24.921  52.953  1.00  0.00    -0.266 OA
HETATM   10  N   UNL     1       4.448  26.801  54.260  1.00  0.00    -0.327 N 
HETATM   11  C   UNL     1       6.079  28.600  54.538  1.00  0.00     0.083 C 
HETATM   12  C   UNL     1       6.268  29.670  55.595  1.00  0.00     0.240 C 
HETATM   13  H   UNL     1       3.632  27.266  53.882  1.00  0.00     0.165 HD
ENDROOT
BRANCH   1  14
HETATM   14  C   UNL     1       4.096  31.015  55.411  1.00  0.00     0.337 C 
BRANCH  14  15
HETATM   15  C   UNL     1       4.806  32.363  55.335  1.00  0.00     0.248 C 
HETATM   16  N   UNL     1       5.259  33.021  56.434  1.00  0.00    -0.326 N 
HETATM   17  H   UNL     1       5.812  33.836  56.176  1.00  0.00     0.169 HD
HETATM   18  O   UNL     1       5.026  32.837  54.213  1.00  0.00    -0.271 OA
BRANCH  16  19
HETATM   19  C   UNL     1       5.132  32.796  57.817  1.00  0.00     0.034 A 
HETATM   20  C   UNL     1       6.082  32.173  58.626  1.00  0.00     0.030 A 
HETATM   21  C   UNL     1       5.848  32.014  60.001  1.00  0.00     0.020 A 
HETATM   22  C   UNL     1       4.657  32.460  60.586  1.00  0.00     0.039 A 
HETATM   23  C   UNL     1       3.692  33.057  59.774  1.00  0.00     0.020 A 
HETATM   24  C   UNL     1       3.928  33.215  58.403  1.00  0.00     0.030 A 
BRANCH  22  25
HETATM   25  C   UNL     1       4.473  32.264  62.050  1.00  0.00     0.293 C 
HETATM   26  O   UNL     1       3.391  32.379  62.601  1.00  0.00    -0.259 OA
BRANCH  25  27
HETATM   27  O   UNL     1       5.649  31.941  62.639  1.00  0.00    -0.318 OA
BRANCH  27  28
HETATM   28  C   UNL     1       6.206  32.936  63.515  1.00  0.00     0.174 C 
HETATM   29  C   UNL     1       7.713  32.782  63.583  1.00  0.00     0.034 C 
ENDBRANCH  27  28
ENDBRANCH  25  27
ENDBRANCH  22  25
ENDBRANCH  16  19
ENDBRANCH  14  15
ENDBRANCH   1  14
BRANCH   7  30
HETATM   30  C   UNL     1       6.879  24.029  54.303  1.00  0.00    -0.002 A 
HETATM   31  C   UNL     1       7.233  23.231  55.398  1.00  0.00     0.016 A 
HETATM   32  C   UNL     1       7.969  22.056  55.207  1.00  0.00     0.024 A 
HETATM   33  C   UNL     1       8.354  21.676  53.924  1.00  0.00     0.034 A 
HETATM   34 CL   UNL     1       9.262  20.235  53.695  1.00  0.00    -0.084 Cl
HETATM   35  C   UNL     1       8.011  22.462  52.827  1.00  0.00     0.024 A 
HETATM   36  C   UNL     1       7.278  23.638  53.016  1.00  0.00     0.016 A 
ENDBRANCH   7  30
TORSDOF 7
ENDMDL
MODEL 10
REMARK VINA RESULT:      -8.3      6.383     13.593
REMARK  7 active torsions:
REMARK  status: ('A' for Active; 'I' for Inactive)
REMARK    1  A    between atoms: C_2  and  O_3 
REMARK    2  A    between atoms: O_3  and  C_4 
REMARK    3  A    between atoms: C_4  and  C_5 
REMARK    4  A    between atoms: C_8  and  N_9 
REMARK       I    between atoms: N_9  and  C_10 
REMARK    5  A    between atoms: C_10  and  C_11 
REMARK    6  A    between atoms: C_11  and  N_12 
REMARK    7  A    between atoms: C_18  and  C_19 
ROOT
HETATM    1  N   UNL     1       5.053  34.006  63.987  1.00  0.00    -0.063 N 
HETATM    2  H   UNL     1       4.498  34.883  63.947  1.00  0.00     0.280 HD
HETATM    3  C   UNL     1       6.464  34.429  63.627  1.00  0.00     0.240 C 
HETATM    4  C   UNL     1       6.868  33.907  62.262  1.00  0.00     0.083 C 
HETATM    5  C   UNL     1       6.691  32.386  62.165  1.00  0.00     0.131 A 
HETATM    6  N   UNL     1       6.724  32.040  60.721  1.00  0.00    -0.251 NA
HETATM    7  C   UNL     1       7.743  31.240  60.542  1.00  0.00     0.132 A 
HETATM    8  C   UNL     1       8.453  30.939  61.842  1.00  0.00     0.272 A 
HETATM    9  O   UNL     1       9.366  30.176  62.041  1.00  0.00    -0.266 OA
HETATM   10  N   UNL     1       7.794  31.696  62.760  1.00  0.00    -0.327 N 
HETATM   11  C   UNL     1       5.358  31.891  62.748  1.00  0.00     0.083 C 
HETATM   12  C   UNL     1       4.412  33.042  63.027  1.00  0.00     0.240 C 
HETATM   13  H   UNL     1       8.028  31.602  63.741  1.00  0.00     0.165 HD
ENDROOT
BRANCH   1  14
HETATM   14  C   UNL     1       4.926  33.596  65.474  1.00  0.00     0.337 C 
BRANCH  14  15
HETATM   15  C   UNL     1       4.013  34.566  66.217  1.00  0.00     0.248 C 
HETATM   16  N   UNL     1       4.272  35.007  67.476  1.00  0.00    -0.326 N 
HETATM   17  H   UNL     1       3.620  35.739  67.753  1.00  0.00     0.169 HD
HETATM   18  O   UNL     1       3.029  35.010  65.611  1.00  0.00    -0.271 OA
BRANCH  16  19
HETATM   19  C   UNL     1       5.243  34.672  68.438  1.00  0.00     0.034 A 
HETATM   20  C   UNL     1       5.209  33.550  69.265  1.00  0.00     0.030 A 
HETATM   21  C   UNL     1       6.244  33.313  70.182  1.00  0.00     0.020 A 
HETATM   22  C   UNL     1       7.321  34.201  70.299  1.00  0.00     0.039 A 
HETATM   23  C   UNL     1       7.342  35.341  69.494  1.00  0.00     0.020 A 
HETATM   24  C   UNL     1       6.309  35.574  68.579  1.00  0.00     0.030 A 
BRANCH  22  25
HETATM   25  C   UNL     1       8.387  33.891  71.289  1.00  0.00     0.293 C 
HETATM   26  O   UNL     1       9.198  34.719  71.669  1.00  0.00    -0.259 OA
BRANCH  25  27
HETATM   27  O   UNL     1       8.306  32.599  71.688  1.00  0.00    -0.318 OA
BRANCH  27  28
HETATM   28  C   UNL     1       7.813  32.384  73.022  1.00  0.00     0.174 C 
HETATM   29  C   UNL     1       8.915  31.820  73.898  1.00  0.00     0.034 C 
ENDBRANCH  27  28
ENDBRANCH  25  27
ENDBRANCH  22  25
ENDBRANCH  16  19
ENDBRANCH  14  15
ENDBRANCH   1  14
BRANCH   7  30
HETATM   30  C   UNL     1       8.147  30.703  59.227  1.00  0.00    -0.002 A 
HETATM   31  C   UNL     1       9.484  30.664  58.813  1.00  0.00     0.016 A 
HETATM   32  C   UNL     1       9.819  30.165  57.550  1.00  0.00     0.024 A 
HETATM   33  C   UNL     1       8.820  29.704  56.696  1.00  0.00     0.034 A 
HETATM   34 CL   UNL     1       9.235  29.097  55.143  1.00  0.00    -0.084 Cl
HETATM   35  C   UNL     1       7.486  29.740  57.093  1.00  0.00     0.024 A 
HETATM   36  C   UNL     1       7.149  30.241  58.355  1.00  0.00     0.016 A 
ENDBRANCH   7  30
TORSDOF 7
ENDMDL
