MODEL 1
REMARK VINA RESULT:     -10.0      0.000      0.000
REMARK  6 active torsions:
REMARK  status: ('A' for Active; 'I' for Inactive)
REMARK    1  A    between atoms: C_4  and  N_5 
REMARK    2  A    between atoms: C_7  and  C_8 
REMARK       I    between atoms: C_8  and  N_9 
REMARK    3  A    between atoms: N_9  and  N_10 
REMARK       I    between atoms: N_10  and  C_11 
REMARK    4  A    between atoms: C_11  and  C_12 
REMARK    5  A    between atoms: C_12  and  C_13 
REMARK    6  A    between atoms: C_22  and  O_23 
ROOT
HETATM    1  C   UNL     1       8.156  29.012  57.911  1.00  0.00     0.293 C 
HETATM    2  N   UNL     1       7.422  29.522  58.960  1.00  0.00    -0.262 N 
HETATM    3  O   UNL     1       9.339  29.288  57.713  1.00  0.00    -0.264 OA
HETATM    4  H   UNL     1       6.461  29.214  59.120  1.00  0.00     0.190 HD
ENDROOT
BRANCH   1   5
HETATM    5  C   UNL     1       7.405  28.103  57.045  1.00  0.00     0.181 A 
HETATM    6  N   UNL     1       7.999  27.275  56.166  1.00  0.00    -0.159 NA
HETATM    7  N   UNL     1       6.972  26.607  55.558  1.00  0.00    -0.242 N 
HETATM    8  C   UNL     1       5.748  27.010  56.046  1.00  0.00     0.158 A 
HETATM    9  C   UNL     1       6.006  27.959  56.993  1.00  0.00     0.119 A 
BRANCH   7  10
HETATM   10  C   UNL     1       7.234  25.632  54.553  1.00  0.00     0.058 A 
HETATM   11  C   UNL     1       7.076  24.270  54.853  1.00  0.00     0.031 A 
HETATM   12  C   UNL     1       7.326  23.300  53.880  1.00  0.00     0.002 A 
HETATM   13  C   UNL     1       7.738  23.680  52.605  1.00  0.00     0.000 A 
HETATM   14  C   UNL     1       7.899  25.030  52.299  1.00  0.00     0.002 A 
HETATM   15  C   UNL     1       7.649  26.008  53.268  1.00  0.00     0.031 A 
ENDBRANCH   7  10
BRANCH   9  16
HETATM   16  O   UNL     1       5.052  28.588  57.698  1.00  0.00    -0.357 OA
HETATM   17  H   UNL     1       4.193  28.133  57.574  1.00  0.00     0.218 HD
ENDBRANCH   9  16
ENDBRANCH   1   5
BRANCH   2  18
HETATM   18  N   UNL     1       8.029  30.352  59.905  1.00  0.00    -0.267 N 
HETATM   19  C   UNL     1       7.852  31.716  59.778  1.00  0.00     0.240 C 
HETATM   20  O   UNL     1       7.247  32.222  58.835  1.00  0.00    -0.272 OA
HETATM   21  H   UNL     1       8.348  29.913  60.767  1.00  0.00     0.190 HD
BRANCH  19  22
HETATM   22  C   UNL     1       8.469  32.531  60.897  1.00  0.00     0.143 C 
BRANCH  22  23
HETATM   23  C   UNL     1       7.560  32.864  62.060  1.00  0.00    -0.049 A 
HETATM   24  C   UNL     1       6.260  33.366  61.908  1.00  0.00     0.009 A 
HETATM   25  C   UNL     1       5.478  33.676  63.026  1.00  0.00     0.019 A 
HETATM   26  C   UNL     1       5.993  33.492  64.306  1.00  0.00     0.011 A 
HETATM   27 BR   UNL     1       4.939  33.921  65.815  1.00  0.00    -0.051 Br
HETATM   28  C   UNL     1       7.284  33.002  64.481  1.00  0.00     0.019 A 
HETATM   29  C   UNL     1       8.062  32.691  63.363  1.00  0.00     0.009 A 
ENDBRANCH  22  23
ENDBRANCH  19  22
ENDBRANCH   2  18
TORSDOF 6
ENDMDL
MODEL 2
REMARK VINA RESULT:      -9.8      1.478      2.047
REMARK  6 active torsions:
REMARK  status: ('A' for Active; 'I' for Inactive)
REMARK    1  A    between atoms: C_4  and  N_5 
REMARK    2  A    between atoms: C_7  and  C_8 
REMARK       I    between atoms: C_8  and  N_9 
REMARK    3  A    between atoms: N_9  and  N_10 
REMARK       I    between atoms: N_10  and  C_11 
REMARK    4  A    between atoms: C_11  and  C_12 
REMARK    5  A    between atoms: C_12  and  C_13 
REMARK    6  A    between atoms: C_22  and  O_23 
ROOT
HETATM    1  C   UNL     1       6.841  28.587  56.503  1.00  0.00     0.293 C 
HETATM    2  N   UNL     1       6.432  28.974  57.762  1.00  0.00    -0.262 N 
HETATM    3  O   UNL     1       7.369  29.353  55.697  1.00  0.00    -0.264 OA
HETATM    4  H   UNL     1       6.057  28.288  58.420  1.00  0.00     0.190 HD
ENDROOT
BRANCH   1   5
HETATM    5  C   UNL     1       6.597  27.177  56.204  1.00  0.00     0.181 A 
HETATM    6  N   UNL     1       7.516  26.384  55.623  1.00  0.00    -0.159 NA
HETATM    7  N   UNL     1       6.911  25.162  55.513  1.00  0.00    -0.242 N 
HETATM    8  C   UNL     1       5.630  25.185  56.018  1.00  0.00     0.158 A 
HETATM    9  C   UNL     1       5.415  26.457  56.463  1.00  0.00     0.119 A 
BRANCH   7  10
HETATM   10  C   UNL     1       7.603  24.059  54.933  1.00  0.00     0.058 A 
HETATM   11  C   UNL     1       7.318  23.682  53.612  1.00  0.00     0.031 A 
HETATM   12  C   UNL     1       7.987  22.605  53.027  1.00  0.00     0.002 A 
HETATM   13  C   UNL     1       8.941  21.897  53.754  1.00  0.00     0.000 A 
HETATM   14  C   UNL     1       9.229  22.264  55.067  1.00  0.00     0.002 A 
HETATM   15  C   UNL     1       8.564  23.342  55.660  1.00  0.00     0.031 A 
ENDBRANCH   7  10
BRANCH   9  16
HETATM   16  O   UNL     1       4.268  26.866  57.028  1.00  0.00    -0.357 OA
HETATM   17  H   UNL     1       4.089  27.797  56.782  1.00  0.00     0.218 HD
ENDBRANCH   9  16
ENDBRANCH   1   5
BRANCH   2  18
HETATM   18  N   UNL     1       6.663  30.277  58.206  1.00  0.00    -0.267 N 
HETATM   19  C   UNL     1       7.775  30.508  58.992  1.00  0.00     0.240 C 
HETATM   20  O   UNL     1       8.521  29.605  59.367  1.00  0.00    -0.272 OA
HETATM   21  H   UNL     1       6.157  31.023  57.729  1.00  0.00     0.190 HD
BRANCH  19  22
HETATM   22  C   UNL     1       7.994  31.965  59.349  1.00  0.00     0.143 C 
BRANCH  22  23
HETATM   23  C   UNL     1       7.665  32.360  60.773  1.00  0.00    -0.049 A 
HETATM   24  C   UNL     1       6.493  33.036  61.137  1.00  0.00     0.009 A 
HETATM   25  C   UNL     1       6.259  33.393  62.470  1.00  0.00     0.019 A 
HETATM   26  C   UNL     1       7.199  33.081  63.448  1.00  0.00     0.011 A 
HETATM   27 BR   UNL     1       6.886  33.574  65.245  1.00  0.00    -0.051 Br
HETATM   28  C   UNL     1       8.373  32.417  63.108  1.00  0.00     0.019 A 
HETATM   29  C   UNL     1       8.603  32.059  61.776  1.00  0.00     0.009 A 
ENDBRANCH  22  23
ENDBRANCH  19  22
ENDBRANCH   2  18
TORSDOF 6
ENDMDL
MODEL 3
REMARK VINA RESULT:      -9.7      2.149      3.302
REMARK  6 active torsions:
REMARK  status: ('A' for Active; 'I' for Inactive)
REMARK    1  A    between atoms: C_4  and  N_5 
REMARK    2  A    between atoms: C_7  and  C_8 
REMARK       I    between atoms: C_8  and  N_9 
REMARK    3  A    between atoms: N_9  and  N_10 
REMARK       I    between atoms: N_10  and  C_11 
REMARK    4  A    between atoms: C_11  and  C_12 
REMARK    5  A    between atoms: C_12  and  C_13 
REMARK    6  A    between atoms: C_22  and  O_23 
ROOT
HETATM    1  C   UNL     1       6.855  27.899  55.232  1.00  0.00     0.293 C 
HETATM    2  N   UNL     1       8.060  27.970  55.897  1.00  0.00    -0.262 N 
HETATM    3  O   UNL     1       6.114  28.868  55.065  1.00  0.00    -0.264 OA
HETATM    4  H   UNL     1       8.671  27.153  55.955  1.00  0.00     0.190 HD
ENDROOT
BRANCH   1   5
HETATM    5  C   UNL     1       6.528  26.564  54.732  1.00  0.00     0.181 A 
HETATM    6  N   UNL     1       7.336  25.502  54.906  1.00  0.00    -0.159 NA
HETATM    7  N   UNL     1       6.688  24.461  54.301  1.00  0.00    -0.242 N 
HETATM    8  C   UNL     1       5.489  24.862  53.753  1.00  0.00     0.158 A 
HETATM    9  C   UNL     1       5.372  26.195  54.020  1.00  0.00     0.119 A 
BRANCH   7  10
HETATM   10  C   UNL     1       7.261  23.157  54.290  1.00  0.00     0.058 A 
HETATM   11  C   UNL     1       7.476  22.485  55.504  1.00  0.00     0.031 A 
HETATM   12  C   UNL     1       8.035  21.205  55.511  1.00  0.00     0.002 A 
HETATM   13  C   UNL     1       8.386  20.589  54.312  1.00  0.00     0.000 A 
HETATM   14  C   UNL     1       8.177  21.249  53.103  1.00  0.00     0.002 A 
HETATM   15  C   UNL     1       7.617  22.530  53.087  1.00  0.00     0.031 A 
ENDBRANCH   7  10
BRANCH   9  16
HETATM   16  O   UNL     1       4.322  26.942  53.643  1.00  0.00    -0.357 OA
HETATM   17  H   UNL     1       3.825  26.483  52.934  1.00  0.00     0.218 HD
ENDBRANCH   9  16
ENDBRANCH   1   5
BRANCH   2  18
HETATM   18  N   UNL     1       8.530  29.197  56.372  1.00  0.00    -0.267 N 
HETATM   19  C   UNL     1       8.506  29.417  57.735  1.00  0.00     0.240 C 
HETATM   20  O   UNL     1       8.026  28.611  58.529  1.00  0.00    -0.272 OA
HETATM   21  H   UNL     1       9.094  29.754  55.730  1.00  0.00     0.190 HD
BRANCH  19  22
HETATM   22  C   UNL     1       9.119  30.736  58.164  1.00  0.00     0.143 C 
BRANCH  22  23
HETATM   23  C   UNL     1       8.692  31.262  59.518  1.00  0.00    -0.049 A 
HETATM   24  C   UNL     1       7.495  31.955  59.736  1.00  0.00     0.009 A 
HETATM   25  C   UNL     1       7.170  32.436  61.009  1.00  0.00     0.019 A 
HETATM   26  C   UNL     1       8.045  32.232  62.073  1.00  0.00     0.011 A 
HETATM   27 BR   UNL     1       7.609  32.891  63.790  1.00  0.00    -0.051 Br
HETATM   28  C   UNL     1       9.243  31.553  61.877  1.00  0.00     0.019 A 
HETATM   29  C   UNL     1       9.564  31.071  60.605  1.00  0.00     0.009 A 
ENDBRANCH  22  23
ENDBRANCH  19  22
ENDBRANCH   2  18
TORSDOF 6
ENDMDL
MODEL 4
REMARK VINA RESULT:      -9.7      3.803      9.933
REMARK  6 active torsions:
REMARK  status: ('A' for Active; 'I' for Inactive)
REMARK    1  A    between atoms: C_4  and  N_5 
REMARK    2  A    between atoms: C_7  and  C_8 
REMARK       I    between atoms: C_8  and  N_9 
REMARK    3  A    between atoms: N_9  and  N_10 
REMARK       I    between atoms: N_10  and  C_11 
REMARK    4  A    between atoms: C_11  and  C_12 
REMARK    5  A    between atoms: C_12  and  C_13 
REMARK    6  A    between atoms: C_22  and  O_23 
ROOT
HETATM    1  C   UNL     1       8.683  28.892  57.054  1.00  0.00     0.293 C 
HETATM    2  N   UNL     1       8.485  29.299  55.752  1.00  0.00    -0.262 N 
HETATM    3  O   UNL     1       8.657  27.713  57.407  1.00  0.00    -0.264 OA
HETATM    4  H   UNL     1       8.579  30.284  55.495  1.00  0.00     0.190 HD
ENDROOT
BRANCH   1   5
HETATM    5  C   UNL     1       8.933  29.988  57.989  1.00  0.00     0.181 A 
HETATM    6  N   UNL     1       8.142  30.237  59.049  1.00  0.00    -0.159 NA
HETATM    7  N   UNL     1       8.701  31.326  59.660  1.00  0.00    -0.242 N 
HETATM    8  C   UNL     1       9.827  31.757  58.993  1.00  0.00     0.158 A 
HETATM    9  C   UNL     1       9.989  30.916  57.930  1.00  0.00     0.119 A 
BRANCH   7  10
HETATM   10  C   UNL     1       8.119  31.877  60.838  1.00  0.00     0.058 A 
HETATM   11  C   UNL     1       6.852  32.478  60.767  1.00  0.00     0.031 A 
HETATM   12  C   UNL     1       6.265  33.021  61.912  1.00  0.00     0.002 A 
HETATM   13  C   UNL     1       6.935  32.972  63.131  1.00  0.00     0.000 A 
HETATM   14  C   UNL     1       8.193  32.378  63.210  1.00  0.00     0.002 A 
HETATM   15  C   UNL     1       8.788  31.831  62.069  1.00  0.00     0.031 A 
ENDBRANCH   7  10
BRANCH   9  16
HETATM   16  O   UNL     1      10.991  31.021  57.043  1.00  0.00    -0.357 OA
HETATM   17  H   UNL     1      11.729  30.432  57.304  1.00  0.00     0.218 HD
ENDBRANCH   9  16
ENDBRANCH   1   5
BRANCH   2  18
HETATM   18  N   UNL     1       8.299  28.354  54.740  1.00  0.00    -0.267 N 
HETATM   19  C   UNL     1       7.008  28.090  54.328  1.00  0.00     0.240 C 
HETATM   20  O   UNL     1       6.024  28.598  54.862  1.00  0.00    -0.272 OA
HETATM   21  H   UNL     1       9.119  28.102  54.190  1.00  0.00     0.190 HD
BRANCH  19  22
HETATM   22  C   UNL     1       6.911  27.121  53.166  1.00  0.00     0.143 C 
BRANCH  22  23
HETATM   23  C   UNL     1       7.147  25.662  53.491  1.00  0.00    -0.049 A 
HETATM   24  C   UNL     1       6.892  25.098  54.748  1.00  0.00     0.009 A 
HETATM   25  C   UNL     1       7.154  23.745  54.991  1.00  0.00     0.019 A 
HETATM   26  C   UNL     1       7.679  22.947  53.978  1.00  0.00     0.011 A 
HETATM   27 BR   UNL     1       8.042  21.122  54.310  1.00  0.00    -0.051 Br
HETATM   28  C   UNL     1       7.948  23.488  52.724  1.00  0.00     0.019 A 
HETATM   29  C   UNL     1       7.682  24.839  52.484  1.00  0.00     0.009 A 
ENDBRANCH  22  23
ENDBRANCH  19  22
ENDBRANCH   2  18
TORSDOF 6
ENDMDL
MODEL 5
REMARK VINA RESULT:      -9.1      3.753      9.960
REMARK  6 active torsions:
REMARK  status: ('A' for Active; 'I' for Inactive)
REMARK    1  A    between atoms: C_4  and  N_5 
REMARK    2  A    between atoms: C_7  and  C_8 
REMARK       I    between atoms: C_8  and  N_9 
REMARK    3  A    between atoms: N_9  and  N_10 
REMARK       I    between atoms: N_10  and  C_11 
REMARK    4  A    between atoms: C_11  and  C_12 
REMARK    5  A    between atoms: C_12  and  C_13 
REMARK    6  A    between atoms: C_22  and  O_23 
ROOT
HETATM    1  C   UNL     1       7.829  29.216  57.196  1.00  0.00     0.293 C 
HETATM    2  N   UNL     1       7.430  29.261  55.877  1.00  0.00    -0.262 N 
HETATM    3  O   UNL     1       8.587  28.357  57.646  1.00  0.00    -0.264 OA
HETATM    4  H   UNL     1       6.850  30.030  55.535  1.00  0.00     0.190 HD
ENDROOT
BRANCH   1   5
HETATM    5  C   UNL     1       7.274  30.287  58.022  1.00  0.00     0.181 A 
HETATM    6  N   UNL     1       7.693  30.532  59.277  1.00  0.00    -0.159 NA
HETATM    7  N   UNL     1       6.939  31.590  59.703  1.00  0.00    -0.242 N 
HETATM    8  C   UNL     1       6.055  32.005  58.731  1.00  0.00     0.158 A 
HETATM    9  C   UNL     1       6.257  31.188  57.656  1.00  0.00     0.119 A 
BRANCH   7  10
HETATM   10  C   UNL     1       7.116  32.129  61.010  1.00  0.00     0.058 A 
HETATM   11  C   UNL     1       8.136  31.626  61.833  1.00  0.00     0.031 A 
HETATM   12  C   UNL     1       8.325  32.144  63.117  1.00  0.00     0.002 A 
HETATM   13  C   UNL     1       7.499  33.161  63.589  1.00  0.00     0.000 A 
HETATM   14  C   UNL     1       6.483  33.664  62.779  1.00  0.00     0.002 A 
HETATM   15  C   UNL     1       6.288  33.153  61.492  1.00  0.00     0.031 A 
ENDBRANCH   7  10
BRANCH   9  16
HETATM   16  O   UNL     1       5.575  31.290  56.504  1.00  0.00    -0.357 OA
HETATM   17  H   UNL     1       4.745  31.788  56.652  1.00  0.00     0.218 HD
ENDBRANCH   9  16
ENDBRANCH   1   5
BRANCH   2  18
HETATM   18  N   UNL     1       7.934  28.338  54.958  1.00  0.00    -0.267 N 
HETATM   19  C   UNL     1       7.037  27.508  54.314  1.00  0.00     0.240 C 
HETATM   20  O   UNL     1       5.835  27.504  54.570  1.00  0.00    -0.272 OA
HETATM   21  H   UNL     1       8.884  28.493  54.623  1.00  0.00     0.190 HD
BRANCH  19  22
HETATM   22  C   UNL     1       7.664  26.605  53.270  1.00  0.00     0.143 C 
BRANCH  22  23
HETATM   23  C   UNL     1       7.749  25.135  53.622  1.00  0.00    -0.049 A 
HETATM   24  C   UNL     1       7.873  24.116  52.668  1.00  0.00     0.009 A 
HETATM   25  C   UNL     1       7.923  22.774  53.059  1.00  0.00     0.019 A 
HETATM   26  C   UNL     1       7.844  22.440  54.408  1.00  0.00     0.011 A 
HETATM   27 BR   UNL     1       7.902  20.625  54.934  1.00  0.00    -0.051 Br
HETATM   28  C   UNL     1       7.713  23.435  55.372  1.00  0.00     0.019 A 
HETATM   29  C   UNL     1       7.665  24.775  54.979  1.00  0.00     0.009 A 
ENDBRANCH  22  23
ENDBRANCH  19  22
ENDBRANCH   2  18
TORSDOF 6
ENDMDL
MODEL 6
REMARK VINA RESULT:      -9.1      3.722     10.085
REMARK  6 active torsions:
REMARK  status: ('A' for Active; 'I' for Inactive)
REMARK    1  A    between atoms: C_4  and  N_5 
REMARK    2  A    between atoms: C_7  and  C_8 
REMARK       I    between atoms: C_8  and  N_9 
REMARK    3  A    between atoms: N_9  and  N_10 
REMARK       I    between atoms: N_10  and  C_11 
REMARK    4  A    between atoms: C_11  and  C_12 
REMARK    5  A    between atoms: C_12  and  C_13 
REMARK    6  A    between atoms: C_22  and  O_23 
ROOT
HETATM    1  C   UNL     1       7.687  30.399  57.937  1.00  0.00     0.293 C 
HETATM    2  N   UNL     1       8.611  29.425  57.623  1.00  0.00    -0.262 N 
HETATM    3  O   UNL     1       6.653  30.584  57.295  1.00  0.00    -0.264 OA
HETATM    4  H   UNL     1       9.423  29.267  58.224  1.00  0.00     0.190 HD
ENDROOT
BRANCH   1   5
HETATM    5  C   UNL     1       8.038  31.198  59.110  1.00  0.00     0.181 A 
HETATM    6  N   UNL     1       7.192  31.397  60.137  1.00  0.00    -0.159 NA
HETATM    7  N   UNL     1       7.882  32.186  61.017  1.00  0.00    -0.242 N 
HETATM    8  C   UNL     1       9.144  32.480  60.549  1.00  0.00     0.158 A 
HETATM    9  C   UNL     1       9.260  31.858  59.340  1.00  0.00     0.119 A 
BRANCH   7  10
HETATM   10  C   UNL     1       7.284  32.602  62.241  1.00  0.00     0.058 A 
HETATM   11  C   UNL     1       8.079  32.726  63.392  1.00  0.00     0.031 A 
HETATM   12  C   UNL     1       7.509  33.135  64.600  1.00  0.00     0.002 A 
HETATM   13  C   UNL     1       6.148  33.420  64.670  1.00  0.00     0.000 A 
HETATM   14  C   UNL     1       5.352  33.299  63.533  1.00  0.00     0.002 A 
HETATM   15  C   UNL     1       5.914  32.891  62.319  1.00  0.00     0.031 A 
ENDBRANCH   7  10
BRANCH   9  16
HETATM   16  O   UNL     1      10.362  31.913  58.576  1.00  0.00    -0.357 OA
HETATM   17  H   UNL     1      11.161  31.864  59.141  1.00  0.00     0.218 HD
ENDBRANCH   9  16
ENDBRANCH   1   5
BRANCH   2  18
HETATM   18  N   UNL     1       8.374  28.545  56.566  1.00  0.00    -0.267 N 
HETATM   19  C   UNL     1       7.817  27.315  56.858  1.00  0.00     0.240 C 
HETATM   20  O   UNL     1       7.591  26.945  58.008  1.00  0.00    -0.272 OA
HETATM   21  H   UNL     1       8.382  28.940  55.626  1.00  0.00     0.190 HD
BRANCH  19  22
HETATM   22  C   UNL     1       7.510  26.465  55.641  1.00  0.00     0.143 C 
BRANCH  22  23
HETATM   23  C   UNL     1       7.703  24.972  55.803  1.00  0.00    -0.049 A 
HETATM   24  C   UNL     1       8.312  24.387  56.921  1.00  0.00     0.009 A 
HETATM   25  C   UNL     1       8.481  23.001  56.999  1.00  0.00     0.019 A 
HETATM   26  C   UNL     1       8.047  22.189  55.954  1.00  0.00     0.011 A 
HETATM   27 BR   UNL     1       8.285  20.316  56.056  1.00  0.00    -0.051 Br
HETATM   28  C   UNL     1       7.447  22.749  54.831  1.00  0.00     0.019 A 
HETATM   29  C   UNL     1       7.277  24.134  54.757  1.00  0.00     0.009 A 
ENDBRANCH  22  23
ENDBRANCH  19  22
ENDBRANCH   2  18
TORSDOF 6
ENDMDL
MODEL 7
REMARK VINA RESULT:      -9.0      3.806      9.750
REMARK  6 active torsions:
REMARK  status: ('A' for Active; 'I' for Inactive)
REMARK    1  A    between atoms: C_4  and  N_5 
REMARK    2  A    between atoms: C_7  and  C_8 
REMARK       I    between atoms: C_8  and  N_9 
REMARK    3  A    between atoms: N_9  and  N_10 
REMARK       I    between atoms: N_10  and  C_11 
REMARK    4  A    between atoms: C_11  and  C_12 
REMARK    5  A    between atoms: C_12  and  C_13 
REMARK    6  A    between atoms: C_22  and  O_23 
ROOT
HETATM    1  C   UNL     1       8.663  28.925  56.843  1.00  0.00     0.293 C 
HETATM    2  N   UNL     1       8.163  27.756  57.378  1.00  0.00    -0.262 N 
HETATM    3  O   UNL     1       8.864  29.089  55.640  1.00  0.00    -0.264 OA
HETATM    4  H   UNL     1       7.953  27.690  58.376  1.00  0.00     0.190 HD
ENDROOT
BRANCH   1   5
HETATM    5  C   UNL     1       8.934  29.965  57.835  1.00  0.00     0.181 A 
HETATM    6  N   UNL     1       8.129  30.197  58.888  1.00  0.00    -0.159 NA
HETATM    7  N   UNL     1       8.717  31.232  59.562  1.00  0.00    -0.242 N 
HETATM    8  C   UNL     1       9.875  31.647  58.942  1.00  0.00     0.158 A 
HETATM    9  C   UNL     1      10.029  30.850  57.844  1.00  0.00     0.119 A 
BRANCH   7  10
HETATM   10  C   UNL     1       8.128  31.751  60.751  1.00  0.00     0.058 A 
HETATM   11  C   UNL     1       6.832  32.288  60.704  1.00  0.00     0.031 A 
HETATM   12  C   UNL     1       6.239  32.799  61.861  1.00  0.00     0.002 A 
HETATM   13  C   UNL     1       6.932  32.782  63.068  1.00  0.00     0.000 A 
HETATM   14  C   UNL     1       8.220  32.252  63.123  1.00  0.00     0.002 A 
HETATM   15  C   UNL     1       8.821  31.737  61.970  1.00  0.00     0.031 A 
ENDBRANCH   7  10
BRANCH   9  16
HETATM   16  O   UNL     1      11.055  30.954  56.985  1.00  0.00    -0.357 OA
HETATM   17  H   UNL     1      11.251  30.078  56.593  1.00  0.00     0.218 HD
ENDBRANCH   9  16
ENDBRANCH   1   5
BRANCH   2  18
HETATM   18  N   UNL     1       7.798  26.700  56.540  1.00  0.00    -0.267 N 
HETATM   19  C   UNL     1       8.081  25.414  56.957  1.00  0.00     0.240 C 
HETATM   20  O   UNL     1       8.699  25.173  57.992  1.00  0.00    -0.272 OA
HETATM   21  H   UNL     1       7.125  26.908  55.803  1.00  0.00     0.190 HD
BRANCH  19  22
HETATM   22  C   UNL     1       7.567  24.331  56.029  1.00  0.00     0.143 C 
BRANCH  22  23
HETATM   23  C   UNL     1       6.944  24.803  54.733  1.00  0.00    -0.049 A 
HETATM   24  C   UNL     1       5.591  25.145  54.604  1.00  0.00     0.009 A 
HETATM   25  C   UNL     1       5.072  25.553  53.370  1.00  0.00     0.019 A 
HETATM   26  C   UNL     1       5.902  25.615  52.254  1.00  0.00     0.011 A 
HETATM   27 BR   UNL     1       5.197  26.155  50.585  1.00  0.00    -0.051 Br
HETATM   28  C   UNL     1       7.246  25.272  52.357  1.00  0.00     0.019 A 
HETATM   29  C   UNL     1       7.763  24.868  53.591  1.00  0.00     0.009 A 
ENDBRANCH  22  23
ENDBRANCH  19  22
ENDBRANCH   2  18
TORSDOF 6
ENDMDL
MODEL 8
REMARK VINA RESULT:      -9.0      3.870     10.242
REMARK  6 active torsions:
REMARK  status: ('A' for Active; 'I' for Inactive)
REMARK    1  A    between atoms: C_4  and  N_5 
REMARK    2  A    between atoms: C_7  and  C_8 
REMARK       I    between atoms: C_8  and  N_9 
REMARK    3  A    between atoms: N_9  and  N_10 
REMARK       I    between atoms: N_10  and  C_11 
REMARK    4  A    between atoms: C_11  and  C_12 
REMARK    5  A    between atoms: C_12  and  C_13 
REMARK    6  A    between atoms: C_22  and  O_23 
ROOT
HETATM    1  C   UNL     1       7.197  30.003  57.199  1.00  0.00     0.293 C 
HETATM    2  N   UNL     1       7.952  28.985  56.655  1.00  0.00    -0.262 N 
HETATM    3  O   UNL     1       6.088  30.326  56.774  1.00  0.00    -0.264 OA
HETATM    4  H   UNL     1       8.839  28.711  57.082  1.00  0.00     0.190 HD
ENDROOT
BRANCH   1   5
HETATM    5  C   UNL     1       7.828  30.670  58.337  1.00  0.00     0.181 A 
HETATM    6  N   UNL     1       7.125  31.188  59.361  1.00  0.00    -0.159 NA
HETATM    7  N   UNL     1       8.063  31.717  60.204  1.00  0.00    -0.242 N 
HETATM    8  C   UNL     1       9.339  31.535  59.717  1.00  0.00     0.158 A 
HETATM    9  C   UNL     1       9.207  30.869  58.533  1.00  0.00     0.119 A 
BRANCH   7  10
HETATM   10  C   UNL     1       7.673  32.359  61.414  1.00  0.00     0.058 A 
HETATM   11  C   UNL     1       8.371  32.082  62.600  1.00  0.00     0.031 A 
HETATM   12  C   UNL     1       8.003  32.704  63.796  1.00  0.00     0.002 A 
HETATM   13  C   UNL     1       6.938  33.601  63.818  1.00  0.00     0.000 A 
HETATM   14  C   UNL     1       6.239  33.880  62.645  1.00  0.00     0.002 A 
HETATM   15  C   UNL     1       6.601  33.263  61.444  1.00  0.00     0.031 A 
ENDBRANCH   7  10
BRANCH   9  16
HETATM   16  O   UNL     1      10.244  30.509  57.760  1.00  0.00    -0.357 OA
HETATM   17  H   UNL     1      10.270  29.534  57.672  1.00  0.00     0.218 HD
ENDBRANCH   9  16
ENDBRANCH   1   5
BRANCH   2  18
HETATM   18  N   UNL     1       7.445  28.219  55.604  1.00  0.00    -0.267 N 
HETATM   19  C   UNL     1       6.861  27.005  55.909  1.00  0.00     0.240 C 
HETATM   20  O   UNL     1       6.835  26.550  57.050  1.00  0.00    -0.272 OA
HETATM   21  H   UNL     1       7.301  28.695  54.714  1.00  0.00     0.190 HD
BRANCH  19  22
HETATM   22  C   UNL     1       6.258  26.287  54.718  1.00  0.00     0.143 C 
BRANCH  22  23
HETATM   23  C   UNL     1       6.882  24.957  54.354  1.00  0.00    -0.049 A 
HETATM   24  C   UNL     1       7.405  24.668  53.086  1.00  0.00     0.009 A 
HETATM   25  C   UNL     1       7.948  23.409  52.807  1.00  0.00     0.019 A 
HETATM   26  C   UNL     1       7.966  22.427  53.794  1.00  0.00     0.011 A 
HETATM   27 BR   UNL     1       8.691  20.723  53.412  1.00  0.00    -0.051 Br
HETATM   28  C   UNL     1       7.445  22.689  55.057  1.00  0.00     0.019 A 
HETATM   29  C   UNL     1       6.906  23.948  55.334  1.00  0.00     0.009 A 
ENDBRANCH  22  23
ENDBRANCH  19  22
ENDBRANCH   2  18
TORSDOF 6
ENDMDL
MODEL 9
REMARK VINA RESULT:      -8.9      2.118      3.084
REMARK  6 active torsions:
REMARK  status: ('A' for Active; 'I' for Inactive)
REMARK    1  A    between atoms: C_4  and  N_5 
REMARK    2  A    between atoms: C_7  and  C_8 
REMARK       I    between atoms: C_8  and  N_9 
REMARK    3  A    between atoms: N_9  and  N_10 
REMARK       I    between atoms: N_10  and  C_11 
REMARK    4  A    between atoms: C_11  and  C_12 
REMARK    5  A    between atoms: C_12  and  C_13 
REMARK    6  A    between atoms: C_22  and  O_23 
ROOT
HETATM    1  C   UNL     1       7.201  27.252  56.277  1.00  0.00     0.293 C 
HETATM    2  N   UNL     1       6.962  27.830  57.506  1.00  0.00    -0.262 N 
HETATM    3  O   UNL     1       7.148  27.871  55.215  1.00  0.00    -0.264 OA
HETATM    4  H   UNL     1       7.081  27.290  58.366  1.00  0.00     0.190 HD
ENDROOT
BRANCH   1   5
HETATM    5  C   UNL     1       7.531  25.829  56.342  1.00  0.00     0.181 A 
HETATM    6  N   UNL     1       7.517  25.026  55.262  1.00  0.00    -0.159 NA
HETATM    7  N   UNL     1       7.873  23.792  55.732  1.00  0.00    -0.242 N 
HETATM    8  C   UNL     1       8.107  23.817  57.090  1.00  0.00     0.158 A 
HETATM    9  C   UNL     1       7.896  25.104  57.492  1.00  0.00     0.119 A 
BRANCH   7  10
HETATM   10  C   UNL     1       7.964  22.677  54.850  1.00  0.00     0.058 A 
HETATM   11  C   UNL     1       7.976  22.892  53.462  1.00  0.00     0.031 A 
HETATM   12  C   UNL     1       8.067  21.811  52.583  1.00  0.00     0.002 A 
HETATM   13  C   UNL     1       8.142  20.512  53.078  1.00  0.00     0.000 A 
HETATM   14  C   UNL     1       8.129  20.290  54.454  1.00  0.00     0.002 A 
HETATM   15  C   UNL     1       8.041  21.367  55.341  1.00  0.00     0.031 A 
ENDBRANCH   7  10
BRANCH   9  16
HETATM   16  O   UNL     1       8.032  25.520  58.761  1.00  0.00    -0.357 OA
HETATM   17  H   UNL     1       7.271  26.084  59.010  1.00  0.00     0.218 HD
ENDBRANCH   9  16
ENDBRANCH   1   5
BRANCH   2  18
HETATM   18  N   UNL     1       6.699  29.198  57.600  1.00  0.00    -0.267 N 
HETATM   19  C   UNL     1       7.515  29.960  58.414  1.00  0.00     0.240 C 
HETATM   20  O   UNL     1       8.407  29.472  59.103  1.00  0.00    -0.272 OA
HETATM   21  H   UNL     1       6.098  29.602  56.883  1.00  0.00     0.190 HD
BRANCH  19  22
HETATM   22  C   UNL     1       7.212  31.445  58.382  1.00  0.00     0.143 C 
BRANCH  22  23
HETATM   23  C   UNL     1       6.812  32.074  59.700  1.00  0.00    -0.049 A 
HETATM   24  C   UNL     1       5.484  32.337  60.060  1.00  0.00     0.009 A 
HETATM   25  C   UNL     1       5.182  32.941  61.285  1.00  0.00     0.019 A 
HETATM   26  C   UNL     1       6.209  33.294  62.157  1.00  0.00     0.011 A 
HETATM   27 BR   UNL     1       5.800  34.120  63.807  1.00  0.00    -0.051 Br
HETATM   28  C   UNL     1       7.535  33.050  61.816  1.00  0.00     0.019 A 
HETATM   29  C   UNL     1       7.834  32.443  60.593  1.00  0.00     0.009 A 
ENDBRANCH  22  23
ENDBRANCH  19  22
ENDBRANCH   2  18
TORSDOF 6
ENDMDL
MODEL 10
REMARK VINA RESULT:      -8.7      8.660     11.756
REMARK  6 active torsions:
REMARK  status: ('A' for Active; 'I' for Inactive)
REMARK    1  A    between atoms: C_4  and  N_5 
REMARK    2  A    between atoms: C_7  and  C_8 
REMARK       I    between atoms: C_8  and  N_9 
REMARK    3  A    between atoms: N_9  and  N_10 
REMARK       I    between atoms: N_10  and  C_11 
REMARK    4  A    between atoms: C_11  and  C_12 
REMARK    5  A    between atoms: C_12  and  C_13 
REMARK    6  A    between atoms: C_22  and  O_23 
ROOT
HETATM    1  C   UNL     1       4.649  27.388  49.121  1.00  0.00     0.293 C 
HETATM    2  N   UNL     1       4.902  26.271  49.888  1.00  0.00    -0.262 N 
HETATM    3  O   UNL     1       5.390  28.371  49.090  1.00  0.00    -0.264 OA
HETATM    4  H   UNL     1       4.291  25.453  49.832  1.00  0.00     0.190 HD
ENDROOT
BRANCH   1   5
HETATM    5  C   UNL     1       3.418  27.307  48.337  1.00  0.00     0.181 A 
HETATM    6  N   UNL     1       2.811  28.389  47.816  1.00  0.00    -0.159 NA
HETATM    7  N   UNL     1       1.709  27.901  47.169  1.00  0.00    -0.242 N 
HETATM    8  C   UNL     1       1.622  26.531  47.282  1.00  0.00     0.158 A 
HETATM    9  C   UNL     1       2.701  26.137  48.020  1.00  0.00     0.119 A 
BRANCH   7  10
HETATM   10  C   UNL     1       0.818  28.780  46.489  1.00  0.00     0.058 A 
HETATM   11  C   UNL     1      -0.406  28.289  46.008  1.00  0.00     0.031 A 
HETATM   12  C   UNL     1      -1.293  29.137  45.342  1.00  0.00     0.002 A 
HETATM   13  C   UNL     1      -0.966  30.477  45.147  1.00  0.00     0.000 A 
HETATM   14  C   UNL     1       0.248  30.972  45.620  1.00  0.00     0.002 A 
HETATM   15  C   UNL     1       1.141  30.130  46.290  1.00  0.00     0.031 A 
ENDBRANCH   7  10
BRANCH   9  16
HETATM   16  O   UNL     1       2.960  24.859  48.339  1.00  0.00    -0.357 OA
HETATM   17  H   UNL     1       2.736  24.699  49.279  1.00  0.00     0.218 HD
ENDBRANCH   9  16
ENDBRANCH   1   5
BRANCH   2  18
HETATM   18  N   UNL     1       6.077  26.183  50.637  1.00  0.00    -0.267 N 
HETATM   19  C   UNL     1       6.042  25.464  51.816  1.00  0.00     0.240 C 
HETATM   20  O   UNL     1       5.009  24.965  52.258  1.00  0.00    -0.272 OA
HETATM   21  H   UNL     1       6.945  26.428  50.163  1.00  0.00     0.190 HD
BRANCH  19  22
HETATM   22  C   UNL     1       7.382  25.347  52.514  1.00  0.00     0.143 C 
BRANCH  22  23
HETATM   23  C   UNL     1       7.588  24.110  53.362  1.00  0.00    -0.049 A 
HETATM   24  C   UNL     1       7.879  22.847  52.830  1.00  0.00     0.009 A 
HETATM   25  C   UNL     1       8.035  21.737  53.668  1.00  0.00     0.019 A 
HETATM   26  C   UNL     1       7.895  21.882  55.045  1.00  0.00     0.011 A 
HETATM   27 BR   UNL     1       8.097  20.381  56.175  1.00  0.00    -0.051 Br
HETATM   28  C   UNL     1       7.599  23.126  55.595  1.00  0.00     0.019 A 
HETATM   29  C   UNL     1       7.447  24.233  54.756  1.00  0.00     0.009 A 
ENDBRANCH  22  23
ENDBRANCH  19  22
ENDBRANCH   2  18
TORSDOF 6
ENDMDL
