MODEL 1
REMARK VINA RESULT:      -9.5      0.000      0.000
REMARK  7 active torsions:
REMARK  status: ('A' for Active; 'I' for Inactive)
REMARK    1  A    between atoms: N_2  and  C_4 
REMARK    2  A    between atoms: C_4  and  C_5 
REMARK    3  A    between atoms: C_5  and  O_6 
REMARK    4  A    between atoms: O_6  and  C_7 
REMARK    5  A    between atoms: C_10  and  N_11 
REMARK       I    between atoms: N_11  and  C_12 
REMARK    6  A    between atoms: C_12  and  C_13 
REMARK    7  A    between atoms: C_14  and  C_15 
ROOT
HETATM    1  N   UNL     1       7.662  26.659  56.483  1.00  0.00    -0.323 N 
HETATM    2  C   UNL     1       6.860  25.546  56.657  1.00  0.00     0.258 C 
HETATM    3  O   UNL     1       5.746  25.505  57.163  1.00  0.00    -0.267 OA
HETATM    4  H   UNL     1       8.555  26.540  56.015  1.00  0.00     0.169 HD
ENDROOT
BRANCH   2   5
HETATM    5  C   UNL     1       7.401  24.284  56.104  1.00  0.00     0.065 A 
HETATM    6  C   UNL     1       7.279  23.863  54.769  1.00  0.00     0.077 A 
HETATM    7  C   UNL     1       7.764  22.566  54.418  1.00  0.00     0.009 A 
HETATM    8  C   UNL     1       8.426  21.823  55.429  1.00  0.00     0.067 A 
HETATM    9  C   UNL     1       7.630  21.956  53.143  1.00  0.00     0.014 A 
HETATM   10  N   UNL     1       8.592  22.274  56.678  1.00  0.00    -0.259 NA
HETATM   11  C   UNL     1       8.934  20.565  55.139  1.00  0.00     0.032 A 
HETATM   12  C   UNL     1       8.086  23.481  56.998  1.00  0.00     0.135 A 
HETATM   13  C   UNL     1       8.803  19.989  53.878  1.00  0.00     0.002 A 
HETATM   14  C   UNL     1       8.146  20.686  52.879  1.00  0.00     0.001 A 
BRANCH   6  15
HETATM   15  C   UNL     1       6.632  24.792  53.778  1.00  0.00     0.419 C 
HETATM   16  F   UNL     1       6.358  24.197  52.583  1.00  0.00    -0.166 F 
HETATM   17  F   UNL     1       5.452  25.340  54.165  1.00  0.00    -0.166 F 
HETATM   18  F   UNL     1       7.454  25.842  53.486  1.00  0.00    -0.166 F 
ENDBRANCH   6  15
ENDBRANCH   2   5
BRANCH   1  19
HETATM   19  C   UNL     1       7.368  27.982  56.883  1.00  0.00     0.035 A 
HETATM   20  C   UNL     1       6.470  28.816  56.216  1.00  0.00     0.032 A 
HETATM   21  C   UNL     1       6.231  30.121  56.666  1.00  0.00     0.039 A 
HETATM   22  C   UNL     1       6.883  30.608  57.796  1.00  0.00     0.069 A 
HETATM   23  C   UNL     1       7.784  29.779  58.465  1.00  0.00     0.039 A 
HETATM   24  C   UNL     1       8.026  28.477  58.013  1.00  0.00     0.032 A 
BRANCH  22  25
HETATM   25  O   UNL     1       6.730  31.855  58.338  1.00  0.00    -0.349 OA
BRANCH  25  26
HETATM   26  C   UNL     1       7.363  32.088  59.594  1.00  0.00     0.203 C 
BRANCH  26  27
HETATM   27  C   UNL     1       6.264  32.390  60.619  1.00  0.00     0.260 C 
BRANCH  27  28
HETATM   28  N   UNL     1       6.312  31.455  61.817  1.00  0.00    -0.077 N 
HETATM   29  C   UNL     1       5.401  31.872  62.939  1.00  0.00     0.269 C 
HETATM   30  H   UNL     1       6.004  30.526  61.498  1.00  0.00     0.279 HD
HETATM   31  C   UNL     1       7.727  31.278  62.307  1.00  0.00     0.269 C 
ENDBRANCH  27  28
ENDBRANCH  26  27
ENDBRANCH  25  26
ENDBRANCH  22  25
ENDBRANCH   1  19
TORSDOF 7
ENDMDL
MODEL 2
REMARK VINA RESULT:      -8.9      3.664     10.535
REMARK  7 active torsions:
REMARK  status: ('A' for Active; 'I' for Inactive)
REMARK    1  A    between atoms: N_2  and  C_4 
REMARK    2  A    between atoms: C_4  and  C_5 
REMARK    3  A    between atoms: C_5  and  O_6 
REMARK    4  A    between atoms: O_6  and  C_7 
REMARK    5  A    between atoms: C_10  and  N_11 
REMARK       I    between atoms: N_11  and  C_12 
REMARK    6  A    between atoms: C_12  and  C_13 
REMARK    7  A    between atoms: C_14  and  C_15 
ROOT
HETATM    1  N   UNL     1       6.848  30.242  58.724  1.00  0.00    -0.323 N 
HETATM    2  C   UNL     1       7.684  31.296  59.041  1.00  0.00     0.258 C 
HETATM    3  O   UNL     1       8.663  31.684  58.415  1.00  0.00    -0.267 OA
HETATM    4  H   UNL     1       6.053  30.060  59.328  1.00  0.00     0.169 HD
ENDROOT
BRANCH   2   5
HETATM    5  C   UNL     1       7.297  32.072  60.241  1.00  0.00     0.065 A 
HETATM    6  C   UNL     1       7.954  32.030  61.483  1.00  0.00     0.077 A 
HETATM    7  C   UNL     1       7.390  32.758  62.576  1.00  0.00     0.009 A 
HETATM    8  C   UNL     1       6.246  33.554  62.306  1.00  0.00     0.067 A 
HETATM    9  C   UNL     1       7.873  32.742  63.910  1.00  0.00     0.014 A 
HETATM   10  N   UNL     1       5.677  33.632  61.098  1.00  0.00    -0.259 NA
HETATM   11  C   UNL     1       5.668  34.296  63.325  1.00  0.00     0.032 A 
HETATM   12  C   UNL     1       6.200  32.901  60.093  1.00  0.00     0.135 A 
HETATM   13  C   UNL     1       6.166  34.277  64.626  1.00  0.00     0.002 A 
HETATM   14  C   UNL     1       7.269  33.494  64.920  1.00  0.00     0.001 A 
BRANCH   6  15
HETATM   15  C   UNL     1       9.211  31.213  61.606  1.00  0.00     0.419 C 
HETATM   16  F   UNL     1       9.256  30.463  62.742  1.00  0.00    -0.166 F 
HETATM   17  F   UNL     1       9.440  30.327  60.602  1.00  0.00    -0.166 F 
HETATM   18  F   UNL     1      10.313  32.018  61.652  1.00  0.00    -0.166 F 
ENDBRANCH   6  15
ENDBRANCH   2   5
BRANCH   1  19
HETATM   19  C   UNL     1       6.971  29.371  57.619  1.00  0.00     0.035 A 
HETATM   20  C   UNL     1       6.534  29.680  56.330  1.00  0.00     0.032 A 
HETATM   21  C   UNL     1       6.683  28.764  55.280  1.00  0.00     0.039 A 
HETATM   22  C   UNL     1       7.280  27.526  55.505  1.00  0.00     0.069 A 
HETATM   23  C   UNL     1       7.716  27.210  56.792  1.00  0.00     0.039 A 
HETATM   24  C   UNL     1       7.563  28.123  57.841  1.00  0.00     0.032 A 
BRANCH  22  25
HETATM   25  O   UNL     1       7.489  26.553  54.566  1.00  0.00    -0.349 OA
BRANCH  25  26
HETATM   26  C   UNL     1       7.589  25.214  55.046  1.00  0.00     0.203 C 
BRANCH  26  27
HETATM   27  C   UNL     1       7.936  24.317  53.854  1.00  0.00     0.260 C 
BRANCH  27  28
HETATM   28  N   UNL     1       8.242  22.887  54.269  1.00  0.00    -0.077 N 
HETATM   29  C   UNL     1       7.911  21.871  53.210  1.00  0.00     0.269 C 
HETATM   30  H   UNL     1       9.254  22.827  54.450  1.00  0.00     0.279 HD
HETATM   31  C   UNL     1       7.566  22.547  55.573  1.00  0.00     0.269 C 
ENDBRANCH  27  28
ENDBRANCH  26  27
ENDBRANCH  25  26
ENDBRANCH  22  25
ENDBRANCH   1  19
TORSDOF 7
ENDMDL
MODEL 3
REMARK VINA RESULT:      -8.8      0.853      1.507
REMARK  7 active torsions:
REMARK  status: ('A' for Active; 'I' for Inactive)
REMARK    1  A    between atoms: N_2  and  C_4 
REMARK    2  A    between atoms: C_4  and  C_5 
REMARK    3  A    between atoms: C_5  and  O_6 
REMARK    4  A    between atoms: O_6  and  C_7 
REMARK    5  A    between atoms: C_10  and  N_11 
REMARK       I    between atoms: N_11  and  C_12 
REMARK    6  A    between atoms: C_12  and  C_13 
REMARK    7  A    between atoms: C_14  and  C_15 
ROOT
HETATM    1  N   UNL     1       7.762  26.689  56.678  1.00  0.00    -0.323 N 
HETATM    2  C   UNL     1       6.872  25.631  56.684  1.00  0.00     0.258 C 
HETATM    3  O   UNL     1       5.701  25.647  57.041  1.00  0.00    -0.267 OA
HETATM    4  H   UNL     1       8.698  26.528  56.321  1.00  0.00     0.169 HD
ENDROOT
BRANCH   2   5
HETATM    5  C   UNL     1       7.396  24.361  56.132  1.00  0.00     0.065 A 
HETATM    6  C   UNL     1       7.279  23.948  54.794  1.00  0.00     0.077 A 
HETATM    7  C   UNL     1       7.745  22.643  54.442  1.00  0.00     0.009 A 
HETATM    8  C   UNL     1       8.382  21.884  55.458  1.00  0.00     0.067 A 
HETATM    9  C   UNL     1       7.613  22.040  53.164  1.00  0.00     0.014 A 
HETATM   10  N   UNL     1       8.543  22.327  56.710  1.00  0.00    -0.259 NA
HETATM   11  C   UNL     1       8.870  20.618  55.168  1.00  0.00     0.032 A 
HETATM   12  C   UNL     1       8.055  23.542  57.029  1.00  0.00     0.135 A 
HETATM   13  C   UNL     1       8.741  20.050  53.903  1.00  0.00     0.002 A 
HETATM   14  C   UNL     1       8.107  20.762  52.900  1.00  0.00     0.001 A 
BRANCH   6  15
HETATM   15  C   UNL     1       6.660  24.892  53.799  1.00  0.00     0.419 C 
HETATM   16  F   UNL     1       5.330  25.095  54.007  1.00  0.00    -0.166 F 
HETATM   17  F   UNL     1       7.195  26.140  53.759  1.00  0.00    -0.166 F 
HETATM   18  F   UNL     1       6.764  24.399  52.530  1.00  0.00    -0.166 F 
ENDBRANCH   6  15
ENDBRANCH   2   5
BRANCH   1  19
HETATM   19  C   UNL     1       7.507  28.008  57.113  1.00  0.00     0.035 A 
HETATM   20  C   UNL     1       8.186  28.628  58.163  1.00  0.00     0.032 A 
HETATM   21  C   UNL     1       7.876  29.939  58.546  1.00  0.00     0.039 A 
HETATM   22  C   UNL     1       6.885  30.654  57.878  1.00  0.00     0.069 A 
HETATM   23  C   UNL     1       6.200  30.038  56.830  1.00  0.00     0.039 A 
HETATM   24  C   UNL     1       6.507  28.727  56.450  1.00  0.00     0.032 A 
BRANCH  22  25
HETATM   25  O   UNL     1       6.496  31.937  58.151  1.00  0.00    -0.349 OA
BRANCH  25  26
HETATM   26  C   UNL     1       6.508  32.330  59.521  1.00  0.00     0.203 C 
BRANCH  26  27
HETATM   27  C   UNL     1       5.055  32.369  60.006  1.00  0.00     0.260 C 
BRANCH  27  28
HETATM   28  N   UNL     1       4.859  33.307  61.186  1.00  0.00    -0.077 N 
HETATM   29  C   UNL     1       6.114  33.539  61.982  1.00  0.00     0.269 C 
HETATM   30  H   UNL     1       4.559  34.218  60.811  1.00  0.00     0.279 HD
HETATM   31  C   UNL     1       3.736  32.832  62.073  1.00  0.00     0.269 C 
ENDBRANCH  27  28
ENDBRANCH  26  27
ENDBRANCH  25  26
ENDBRANCH  22  25
ENDBRANCH   1  19
TORSDOF 7
ENDMDL
MODEL 4
REMARK VINA RESULT:      -8.7      1.771      2.194
REMARK  7 active torsions:
REMARK  status: ('A' for Active; 'I' for Inactive)
REMARK    1  A    between atoms: N_2  and  C_4 
REMARK    2  A    between atoms: C_4  and  C_5 
REMARK    3  A    between atoms: C_5  and  O_6 
REMARK    4  A    between atoms: O_6  and  C_7 
REMARK    5  A    between atoms: C_10  and  N_11 
REMARK       I    between atoms: N_11  and  C_12 
REMARK    6  A    between atoms: C_12  and  C_13 
REMARK    7  A    between atoms: C_14  and  C_15 
ROOT
HETATM    1  N   UNL     1       5.855  26.565  55.708  1.00  0.00    -0.323 N 
HETATM    2  C   UNL     1       7.210  26.294  55.756  1.00  0.00     0.258 C 
HETATM    3  O   UNL     1       8.114  27.070  56.036  1.00  0.00    -0.267 OA
HETATM    4  H   UNL     1       5.220  25.805  55.489  1.00  0.00     0.169 HD
ENDROOT
BRANCH   2   5
HETATM    5  C   UNL     1       7.581  24.883  55.502  1.00  0.00     0.065 A 
HETATM    6  C   UNL     1       7.698  24.290  54.234  1.00  0.00     0.077 A 
HETATM    7  C   UNL     1       7.960  22.887  54.161  1.00  0.00     0.009 A 
HETATM    8  C   UNL     1       8.178  22.201  55.384  1.00  0.00     0.067 A 
HETATM    9  C   UNL     1       8.010  22.121  52.967  1.00  0.00     0.014 A 
HETATM   10  N   UNL     1       8.129  22.802  56.579  1.00  0.00    -0.259 NA
HETATM   11  C   UNL     1       8.455  20.842  55.372  1.00  0.00     0.032 A 
HETATM   12  C   UNL     1       7.836  24.117  56.624  1.00  0.00     0.135 A 
HETATM   13  C   UNL     1       8.512  20.111  54.188  1.00  0.00     0.002 A 
HETATM   14  C   UNL     1       8.285  20.752  52.983  1.00  0.00     0.001 A 
BRANCH   6  15
HETATM   15  C   UNL     1       7.529  25.155  53.015  1.00  0.00     0.419 C 
HETATM   16  F   UNL     1       8.088  26.390  53.151  1.00  0.00    -0.166 F 
HETATM   17  F   UNL     1       8.060  24.665  51.865  1.00  0.00    -0.166 F 
HETATM   18  F   UNL     1       6.208  25.376  52.753  1.00  0.00    -0.166 F 
ENDBRANCH   6  15
ENDBRANCH   2   5
BRANCH   1  19
HETATM   19  C   UNL     1       5.236  27.813  55.944  1.00  0.00     0.035 A 
HETATM   20  C   UNL     1       4.469  28.495  54.999  1.00  0.00     0.032 A 
HETATM   21  C   UNL     1       3.889  29.733  55.300  1.00  0.00     0.039 A 
HETATM   22  C   UNL     1       4.061  30.305  56.558  1.00  0.00     0.069 A 
HETATM   23  C   UNL     1       4.830  29.630  57.507  1.00  0.00     0.039 A 
HETATM   24  C   UNL     1       5.413  28.394  57.204  1.00  0.00     0.032 A 
BRANCH  22  25
HETATM   25  O   UNL     1       3.543  31.500  56.976  1.00  0.00    -0.349 OA
BRANCH  25  26
HETATM   26  C   UNL     1       4.344  32.265  57.874  1.00  0.00     0.203 C 
BRANCH  26  27
HETATM   27  C   UNL     1       3.630  32.287  59.230  1.00  0.00     0.260 C 
BRANCH  27  28
HETATM   28  N   UNL     1       4.563  31.962  60.385  1.00  0.00    -0.077 N 
HETATM   29  C   UNL     1       4.140  32.580  61.690  1.00  0.00     0.269 C 
HETATM   30  H   UNL     1       4.557  30.941  60.511  1.00  0.00     0.279 HD
HETATM   31  C   UNL     1       5.987  32.331  60.049  1.00  0.00     0.269 C 
ENDBRANCH  27  28
ENDBRANCH  26  27
ENDBRANCH  25  26
ENDBRANCH  22  25
ENDBRANCH   1  19
TORSDOF 7
ENDMDL
MODEL 5
REMARK VINA RESULT:      -8.7      3.602      4.385
REMARK  7 active torsions:
REMARK  status: ('A' for Active; 'I' for Inactive)
REMARK    1  A    between atoms: N_2  and  C_4 
REMARK    2  A    between atoms: C_4  and  C_5 
REMARK    3  A    between atoms: C_5  and  O_6 
REMARK    4  A    between atoms: O_6  and  C_7 
REMARK    5  A    between atoms: C_10  and  N_11 
REMARK       I    between atoms: N_11  and  C_12 
REMARK    6  A    between atoms: C_12  and  C_13 
REMARK    7  A    between atoms: C_14  and  C_15 
ROOT
HETATM    1  N   UNL     1       5.371  26.684  54.792  1.00  0.00    -0.323 N 
HETATM    2  C   UNL     1       6.726  26.464  54.957  1.00  0.00     0.258 C 
HETATM    3  O   UNL     1       7.599  27.302  55.138  1.00  0.00    -0.267 OA
HETATM    4  H   UNL     1       4.763  25.879  54.681  1.00  0.00     0.169 HD
ENDROOT
BRANCH   2   5
HETATM    5  C   UNL     1       7.137  25.042  54.978  1.00  0.00     0.065 A 
HETATM    6  C   UNL     1       7.435  24.265  53.845  1.00  0.00     0.077 A 
HETATM    7  C   UNL     1       7.712  22.875  54.027  1.00  0.00     0.009 A 
HETATM    8  C   UNL     1       7.758  22.390  55.360  1.00  0.00     0.067 A 
HETATM    9  C   UNL     1       7.936  21.938  52.984  1.00  0.00     0.014 A 
HETATM   10  N   UNL     1       7.537  23.164  56.428  1.00  0.00    -0.259 NA
HETATM   11  C   UNL     1       8.040  21.053  55.597  1.00  0.00     0.032 A 
HETATM   12  C   UNL     1       7.233  24.462  56.229  1.00  0.00     0.135 A 
HETATM   13  C   UNL     1       8.269  20.152  54.559  1.00  0.00     0.002 A 
HETATM   14  C   UNL     1       8.212  20.596  53.249  1.00  0.00     0.001 A 
BRANCH   6  15
HETATM   15  C   UNL     1       7.438  24.931  52.495  1.00  0.00     0.419 C 
HETATM   16  F   UNL     1       7.883  24.119  51.497  1.00  0.00    -0.166 F 
HETATM   17  F   UNL     1       6.234  25.383  52.058  1.00  0.00    -0.166 F 
HETATM   18  F   UNL     1       8.269  26.013  52.488  1.00  0.00    -0.166 F 
ENDBRANCH   6  15
ENDBRANCH   2   5
BRANCH   1  19
HETATM   19  C   UNL     1       4.717  27.936  54.770  1.00  0.00     0.035 A 
HETATM   20  C   UNL     1       4.333  28.595  53.602  1.00  0.00     0.032 A 
HETATM   21  C   UNL     1       3.692  29.840  53.655  1.00  0.00     0.039 A 
HETATM   22  C   UNL     1       3.419  30.441  54.881  1.00  0.00     0.069 A 
HETATM   23  C   UNL     1       3.804  29.788  56.053  1.00  0.00     0.039 A 
HETATM   24  C   UNL     1       4.447  28.546  56.000  1.00  0.00     0.032 A 
BRANCH  22  25
HETATM   25  O   UNL     1       2.795  31.644  55.065  1.00  0.00    -0.349 OA
BRANCH  25  26
HETATM   26  C   UNL     1       3.048  32.651  54.087  1.00  0.00     0.203 C 
BRANCH  26  27
HETATM   27  C   UNL     1       4.328  33.386  54.496  1.00  0.00     0.260 C 
BRANCH  27  28
HETATM   28  N   UNL     1       5.333  33.482  53.360  1.00  0.00    -0.077 N 
HETATM   29  C   UNL     1       6.067  34.795  53.318  1.00  0.00     0.269 C 
HETATM   30  H   UNL     1       6.034  32.741  53.503  1.00  0.00     0.279 HD
HETATM   31  C   UNL     1       4.679  33.185  52.034  1.00  0.00     0.269 C 
ENDBRANCH  27  28
ENDBRANCH  26  27
ENDBRANCH  25  26
ENDBRANCH  22  25
ENDBRANCH   1  19
TORSDOF 7
ENDMDL
MODEL 6
REMARK VINA RESULT:      -8.6      2.309      2.978
REMARK  7 active torsions:
REMARK  status: ('A' for Active; 'I' for Inactive)
REMARK    1  A    between atoms: N_2  and  C_4 
REMARK    2  A    between atoms: C_4  and  C_5 
REMARK    3  A    between atoms: C_5  and  O_6 
REMARK    4  A    between atoms: O_6  and  C_7 
REMARK    5  A    between atoms: C_10  and  N_11 
REMARK       I    between atoms: N_11  and  C_12 
REMARK    6  A    between atoms: C_12  and  C_13 
REMARK    7  A    between atoms: C_14  and  C_15 
ROOT
HETATM    1  N   UNL     1       5.614  26.520  55.236  1.00  0.00    -0.323 N 
HETATM    2  C   UNL     1       6.889  26.286  54.757  1.00  0.00     0.258 C 
HETATM    3  O   UNL     1       7.792  27.101  54.618  1.00  0.00    -0.267 OA
HETATM    4  H   UNL     1       4.981  25.732  55.324  1.00  0.00     0.169 HD
ENDROOT
BRANCH   2   5
HETATM    5  C   UNL     1       7.197  24.872  54.443  1.00  0.00     0.065 A 
HETATM    6  C   UNL     1       7.690  23.926  55.358  1.00  0.00     0.077 A 
HETATM    7  C   UNL     1       8.039  22.628  54.872  1.00  0.00     0.009 A 
HETATM    8  C   UNL     1       7.774  22.352  53.505  1.00  0.00     0.067 A 
HETATM    9  C   UNL     1       8.638  21.596  55.641  1.00  0.00     0.014 A 
HETATM   10  N   UNL     1       7.240  23.249  52.668  1.00  0.00    -0.259 NA
HETATM   11  C   UNL     1       8.075  21.103  52.984  1.00  0.00     0.032 A 
HETATM   12  C   UNL     1       6.961  24.480  53.139  1.00  0.00     0.135 A 
HETATM   13  C   UNL     1       8.651  20.099  53.759  1.00  0.00     0.002 A 
HETATM   14  C   UNL     1       8.936  20.348  55.090  1.00  0.00     0.001 A 
BRANCH   6  15
HETATM   15  C   UNL     1       7.839  24.327  56.800  1.00  0.00     0.419 C 
HETATM   16  F   UNL     1       8.684  25.379  56.981  1.00  0.00    -0.166 F 
HETATM   17  F   UNL     1       6.694  24.696  57.431  1.00  0.00    -0.166 F 
HETATM   18  F   UNL     1       8.360  23.304  57.539  1.00  0.00    -0.166 F 
ENDBRANCH   6  15
ENDBRANCH   2   5
BRANCH   1  19
HETATM   19  C   UNL     1       5.079  27.764  55.640  1.00  0.00     0.035 A 
HETATM   20  C   UNL     1       4.376  28.622  54.793  1.00  0.00     0.032 A 
HETATM   21  C   UNL     1       3.879  29.845  55.260  1.00  0.00     0.039 A 
HETATM   22  C   UNL     1       4.072  30.226  56.586  1.00  0.00     0.069 A 
HETATM   23  C   UNL     1       4.778  29.373  57.436  1.00  0.00     0.039 A 
HETATM   24  C   UNL     1       5.278  28.153  56.968  1.00  0.00     0.032 A 
BRANCH  22  25
HETATM   25  O   UNL     1       3.632  31.386  57.162  1.00  0.00    -0.349 OA
BRANCH  25  26
HETATM   26  C   UNL     1       3.773  31.490  58.577  1.00  0.00     0.203 C 
BRANCH  26  27
HETATM   27  C   UNL     1       4.952  32.427  58.858  1.00  0.00     0.260 C 
BRANCH  27  28
HETATM   28  N   UNL     1       5.935  31.844  59.859  1.00  0.00    -0.077 N 
HETATM   29  C   UNL     1       6.012  32.619  61.146  1.00  0.00     0.269 C 
HETATM   30  H   UNL     1       5.615  30.893  60.091  1.00  0.00     0.279 HD
HETATM   31  C   UNL     1       7.302  31.683  59.243  1.00  0.00     0.269 C 
ENDBRANCH  27  28
ENDBRANCH  26  27
ENDBRANCH  25  26
ENDBRANCH  22  25
ENDBRANCH   1  19
TORSDOF 7
ENDMDL
MODEL 7
REMARK VINA RESULT:      -8.5      2.862      3.588
REMARK  7 active torsions:
REMARK  status: ('A' for Active; 'I' for Inactive)
REMARK    1  A    between atoms: N_2  and  C_4 
REMARK    2  A    between atoms: C_4  and  C_5 
REMARK    3  A    between atoms: C_5  and  O_6 
REMARK    4  A    between atoms: O_6  and  C_7 
REMARK    5  A    between atoms: C_10  and  N_11 
REMARK       I    between atoms: N_11  and  C_12 
REMARK    6  A    between atoms: C_12  and  C_13 
REMARK    7  A    between atoms: C_14  and  C_15 
ROOT
HETATM    1  N   UNL     1       5.595  26.519  55.065  1.00  0.00    -0.323 N 
HETATM    2  C   UNL     1       6.963  26.336  55.154  1.00  0.00     0.258 C 
HETATM    3  O   UNL     1       7.823  27.201  55.256  1.00  0.00    -0.267 OA
HETATM    4  H   UNL     1       5.002  25.697  55.015  1.00  0.00     0.169 HD
ENDROOT
BRANCH   2   5
HETATM    5  C   UNL     1       7.411  24.926  55.192  1.00  0.00     0.065 A 
HETATM    6  C   UNL     1       7.631  24.112  54.068  1.00  0.00     0.077 A 
HETATM    7  C   UNL     1       7.959  22.737  54.277  1.00  0.00     0.009 A 
HETATM    8  C   UNL     1       8.132  22.306  55.618  1.00  0.00     0.067 A 
HETATM    9  C   UNL     1       8.116  21.765  53.255  1.00  0.00     0.014 A 
HETATM   10  N   UNL     1       7.983  23.117  56.672  1.00  0.00    -0.259 NA
HETATM   11  C   UNL     1       8.468  20.986  55.880  1.00  0.00     0.032 A 
HETATM   12  C   UNL     1       7.630  24.399  56.452  1.00  0.00     0.135 A 
HETATM   13  C   UNL     1       8.630  20.050  54.861  1.00  0.00     0.002 A 
HETATM   14  C   UNL     1       8.449  20.440  53.545  1.00  0.00     0.001 A 
BRANCH   6  15
HETATM   15  C   UNL     1       7.500  24.723  52.699  1.00  0.00     0.419 C 
HETATM   16  F   UNL     1       6.215  25.032  52.369  1.00  0.00    -0.166 F 
HETATM   17  F   UNL     1       8.190  25.875  52.499  1.00  0.00    -0.166 F 
HETATM   18  F   UNL     1       7.930  23.857  51.736  1.00  0.00    -0.166 F 
ENDBRANCH   6  15
ENDBRANCH   2   5
BRANCH   1  19
HETATM   19  C   UNL     1       4.909  27.754  55.046  1.00  0.00     0.035 A 
HETATM   20  C   UNL     1       4.524  28.450  56.192  1.00  0.00     0.032 A 
HETATM   21  C   UNL     1       3.840  29.669  56.099  1.00  0.00     0.039 A 
HETATM   22  C   UNL     1       3.536  30.212  54.853  1.00  0.00     0.069 A 
HETATM   23  C   UNL     1       3.914  29.519  53.703  1.00  0.00     0.039 A 
HETATM   24  C   UNL     1       4.595  28.300  53.797  1.00  0.00     0.032 A 
BRANCH  22  25
HETATM   25  O   UNL     1       2.881  31.393  54.630  1.00  0.00    -0.349 OA
BRANCH  25  26
HETATM   26  C   UNL     1       2.750  32.272  55.745  1.00  0.00     0.203 C 
BRANCH  26  27
HETATM   27  C   UNL     1       3.658  33.480  55.493  1.00  0.00     0.260 C 
BRANCH  27  28
HETATM   28  N   UNL     1       4.325  33.982  56.764  1.00  0.00    -0.077 N 
HETATM   29  C   UNL     1       5.033  32.903  57.536  1.00  0.00     0.269 C 
HETATM   30  H   UNL     1       5.031  34.679  56.488  1.00  0.00     0.279 HD
HETATM   31  C   UNL     1       3.338  34.714  57.638  1.00  0.00     0.269 C 
ENDBRANCH  27  28
ENDBRANCH  26  27
ENDBRANCH  25  26
ENDBRANCH  22  25
ENDBRANCH   1  19
TORSDOF 7
ENDMDL
MODEL 8
REMARK VINA RESULT:      -8.4      6.844     10.331
REMARK  7 active torsions:
REMARK  status: ('A' for Active; 'I' for Inactive)
REMARK    1  A    between atoms: N_2  and  C_4 
REMARK    2  A    between atoms: C_4  and  C_5 
REMARK    3  A    between atoms: C_5  and  O_6 
REMARK    4  A    between atoms: O_6  and  C_7 
REMARK    5  A    between atoms: C_10  and  N_11 
REMARK       I    between atoms: N_11  and  C_12 
REMARK    6  A    between atoms: C_12  and  C_13 
REMARK    7  A    between atoms: C_14  and  C_15 
ROOT
HETATM    1  N   UNL     1       5.982  32.813  63.572  1.00  0.00    -0.323 N 
HETATM    2  C   UNL     1       6.346  33.489  62.422  1.00  0.00     0.258 C 
HETATM    3  O   UNL     1       6.567  34.687  62.302  1.00  0.00    -0.267 OA
HETATM    4  H   UNL     1       5.862  31.807  63.520  1.00  0.00     0.169 HD
ENDROOT
BRANCH   2   5
HETATM    5  C   UNL     1       6.548  32.640  61.227  1.00  0.00     0.065 A 
HETATM    6  C   UNL     1       7.663  31.817  60.993  1.00  0.00     0.077 A 
HETATM    7  C   UNL     1       7.758  31.141  59.738  1.00  0.00     0.009 A 
HETATM    8  C   UNL     1       6.665  31.273  58.842  1.00  0.00     0.067 A 
HETATM    9  C   UNL     1       8.860  30.355  59.309  1.00  0.00     0.014 A 
HETATM   10  N   UNL     1       5.581  32.009  59.115  1.00  0.00    -0.259 NA
HETATM   11  C   UNL     1       6.696  30.624  57.617  1.00  0.00     0.032 A 
HETATM   12  C   UNL     1       5.534  32.674  60.287  1.00  0.00     0.135 A 
HETATM   13  C   UNL     1       7.782  29.847  57.221  1.00  0.00     0.002 A 
HETATM   14  C   UNL     1       8.868  29.716  58.068  1.00  0.00     0.001 A 
BRANCH   6  15
HETATM   15  C   UNL     1       8.708  31.698  62.069  1.00  0.00     0.419 C 
HETATM   16  F   UNL     1       9.967  31.527  61.578  1.00  0.00    -0.166 F 
HETATM   17  F   UNL     1       8.810  32.757  62.912  1.00  0.00    -0.166 F 
HETATM   18  F   UNL     1       8.470  30.611  62.860  1.00  0.00    -0.166 F 
ENDBRANCH   6  15
ENDBRANCH   2   5
BRANCH   1  19
HETATM   19  C   UNL     1       5.762  33.378  64.848  1.00  0.00     0.035 A 
HETATM   20  C   UNL     1       4.499  33.671  65.364  1.00  0.00     0.032 A 
HETATM   21  C   UNL     1       4.355  34.237  66.637  1.00  0.00     0.039 A 
HETATM   22  C   UNL     1       5.475  34.511  67.417  1.00  0.00     0.069 A 
HETATM   23  C   UNL     1       6.741  34.223  66.906  1.00  0.00     0.039 A 
HETATM   24  C   UNL     1       6.885  33.662  65.632  1.00  0.00     0.032 A 
BRANCH  22  25
HETATM   25  O   UNL     1       5.467  35.053  68.674  1.00  0.00    -0.349 OA
BRANCH  25  26
HETATM   26  C   UNL     1       5.732  34.163  69.755  1.00  0.00     0.203 C 
BRANCH  26  27
HETATM   27  C   UNL     1       6.366  34.980  70.885  1.00  0.00     0.260 C 
BRANCH  27  28
HETATM   28  N   UNL     1       7.782  34.530  71.207  1.00  0.00    -0.077 N 
HETATM   29  C   UNL     1       8.750  34.742  70.075  1.00  0.00     0.269 C 
HETATM   30  H   UNL     1       8.112  35.090  72.005  1.00  0.00     0.279 HD
HETATM   31  C   UNL     1       7.800  33.095  71.671  1.00  0.00     0.269 C 
ENDBRANCH  27  28
ENDBRANCH  26  27
ENDBRANCH  25  26
ENDBRANCH  22  25
ENDBRANCH   1  19
TORSDOF 7
ENDMDL
MODEL 9
REMARK VINA RESULT:      -8.4      2.140      2.739
REMARK  7 active torsions:
REMARK  status: ('A' for Active; 'I' for Inactive)
REMARK    1  A    between atoms: N_2  and  C_4 
REMARK    2  A    between atoms: C_4  and  C_5 
REMARK    3  A    between atoms: C_5  and  O_6 
REMARK    4  A    between atoms: O_6  and  C_7 
REMARK    5  A    between atoms: C_10  and  N_11 
REMARK       I    between atoms: N_11  and  C_12 
REMARK    6  A    between atoms: C_12  and  C_13 
REMARK    7  A    between atoms: C_14  and  C_15 
ROOT
HETATM    1  N   UNL     1       7.158  27.933  56.607  1.00  0.00    -0.323 N 
HETATM    2  C   UNL     1       6.212  26.927  56.549  1.00  0.00     0.258 C 
HETATM    3  O   UNL     1       5.104  26.917  57.070  1.00  0.00    -0.267 OA
HETATM    4  H   UNL     1       8.025  27.808  56.094  1.00  0.00     0.169 HD
ENDROOT
BRANCH   2   5
HETATM    5  C   UNL     1       6.573  25.767  55.703  1.00  0.00     0.065 A 
HETATM    6  C   UNL     1       7.557  24.812  56.010  1.00  0.00     0.077 A 
HETATM    7  C   UNL     1       7.862  23.812  55.036  1.00  0.00     0.009 A 
HETATM    8  C   UNL     1       7.078  23.795  53.854  1.00  0.00     0.067 A 
HETATM    9  C   UNL     1       8.890  22.840  55.151  1.00  0.00     0.014 A 
HETATM   10  N   UNL     1       6.099  24.674  53.612  1.00  0.00    -0.259 NA
HETATM   11  C   UNL     1       7.318  22.834  52.882  1.00  0.00     0.032 A 
HETATM   12  C   UNL     1       5.860  25.636  54.526  1.00  0.00     0.135 A 
HETATM   13  C   UNL     1       8.324  21.881  53.019  1.00  0.00     0.002 A 
HETATM   14  C   UNL     1       9.115  21.887  54.155  1.00  0.00     0.001 A 
BRANCH   6  15
HETATM   15  C   UNL     1       8.251  24.895  57.343  1.00  0.00     0.419 C 
HETATM   16  F   UNL     1       7.455  25.388  58.333  1.00  0.00    -0.166 F 
HETATM   17  F   UNL     1       8.725  23.722  57.836  1.00  0.00    -0.166 F 
HETATM   18  F   UNL     1       9.325  25.736  57.281  1.00  0.00    -0.166 F 
ENDBRANCH   6  15
ENDBRANCH   2   5
BRANCH   1  19
HETATM   19  C   UNL     1       7.049  29.154  57.309  1.00  0.00     0.035 A 
HETATM   20  C   UNL     1       6.134  30.158  56.991  1.00  0.00     0.032 A 
HETATM   21  C   UNL     1       6.085  31.348  57.728  1.00  0.00     0.039 A 
HETATM   22  C   UNL     1       6.949  31.547  58.802  1.00  0.00     0.069 A 
HETATM   23  C   UNL     1       7.869  30.548  59.123  1.00  0.00     0.039 A 
HETATM   24  C   UNL     1       7.920  29.361  58.384  1.00  0.00     0.032 A 
BRANCH  22  25
HETATM   25  O   UNL     1       6.995  32.657  59.602  1.00  0.00    -0.349 OA
BRANCH  25  26
HETATM   26  C   UNL     1       7.301  32.440  60.977  1.00  0.00     0.203 C 
BRANCH  26  27
HETATM   27  C   UNL     1       6.603  33.538  61.787  1.00  0.00     0.260 C 
BRANCH  27  28
HETATM   28  N   UNL     1       5.226  33.118  62.275  1.00  0.00    -0.077 N 
HETATM   29  C   UNL     1       4.551  34.154  63.131  1.00  0.00     0.269 C 
HETATM   30  H   UNL     1       4.635  32.970  61.445  1.00  0.00     0.279 HD
HETATM   31  C   UNL     1       5.288  31.788  62.983  1.00  0.00     0.269 C 
ENDBRANCH  27  28
ENDBRANCH  26  27
ENDBRANCH  25  26
ENDBRANCH  22  25
ENDBRANCH   1  19
TORSDOF 7
ENDMDL
MODEL 10
REMARK VINA RESULT:      -8.2      5.202      7.848
REMARK  7 active torsions:
REMARK  status: ('A' for Active; 'I' for Inactive)
REMARK    1  A    between atoms: N_2  and  C_4 
REMARK    2  A    between atoms: C_4  and  C_5 
REMARK    3  A    between atoms: C_5  and  O_6 
REMARK    4  A    between atoms: O_6  and  C_7 
REMARK    5  A    between atoms: C_10  and  N_11 
REMARK       I    between atoms: N_11  and  C_12 
REMARK    6  A    between atoms: C_12  and  C_13 
REMARK    7  A    between atoms: C_14  and  C_15 
ROOT
HETATM    1  N   UNL     1       5.677  25.327  52.194  1.00  0.00    -0.323 N 
HETATM    2  C   UNL     1       6.928  25.328  52.783  1.00  0.00     0.258 C 
HETATM    3  O   UNL     1       7.713  26.265  52.859  1.00  0.00    -0.267 OA
HETATM    4  H   UNL     1       5.126  24.476  52.238  1.00  0.00     0.169 HD
ENDROOT
BRANCH   2   5
HETATM    5  C   UNL     1       7.316  24.063  53.446  1.00  0.00     0.065 A 
HETATM    6  C   UNL     1       7.330  23.844  54.834  1.00  0.00     0.077 A 
HETATM    7  C   UNL     1       7.833  22.599  55.322  1.00  0.00     0.009 A 
HETATM    8  C   UNL     1       8.202  21.625  54.358  1.00  0.00     0.067 A 
HETATM    9  C   UNL     1       8.005  22.261  56.690  1.00  0.00     0.014 A 
HETATM   10  N   UNL     1       8.116  21.831  53.039  1.00  0.00    -0.259 NA
HETATM   11  C   UNL     1       8.680  20.391  54.775  1.00  0.00     0.032 A 
HETATM   12  C   UNL     1       7.680  23.029  52.603  1.00  0.00     0.135 A 
HETATM   13  C   UNL     1       8.829  20.074  56.123  1.00  0.00     0.002 A 
HETATM   14  C   UNL     1       8.494  21.013  57.082  1.00  0.00     0.001 A 
BRANCH   6  15
HETATM   15  C   UNL     1       6.825  24.935  55.741  1.00  0.00     0.419 C 
HETATM   16  F   UNL     1       5.692  25.534  55.280  1.00  0.00    -0.166 F 
HETATM   17  F   UNL     1       6.521  24.555  57.008  1.00  0.00    -0.166 F 
HETATM   18  F   UNL     1       7.748  25.933  55.861  1.00  0.00    -0.166 F 
ENDBRANCH   6  15
ENDBRANCH   2   5
BRANCH   1  19
HETATM   19  C   UNL     1       5.056  26.408  51.530  1.00  0.00     0.035 A 
HETATM   20  C   UNL     1       4.586  27.553  52.174  1.00  0.00     0.032 A 
HETATM   21  C   UNL     1       3.974  28.586  51.452  1.00  0.00     0.039 A 
HETATM   22  C   UNL     1       3.830  28.491  50.071  1.00  0.00     0.069 A 
HETATM   23  C   UNL     1       4.295  27.346  49.421  1.00  0.00     0.039 A 
HETATM   24  C   UNL     1       4.903  26.313  50.143  1.00  0.00     0.032 A 
BRANCH  22  25
HETATM   25  O   UNL     1       3.260  29.429  49.255  1.00  0.00    -0.349 OA
BRANCH  25  26
HETATM   26  C   UNL     1       3.948  29.724  48.041  1.00  0.00     0.203 C 
BRANCH  26  27
HETATM   27  C   UNL     1       2.944  29.589  46.893  1.00  0.00     0.260 C 
BRANCH  27  28
HETATM   28  N   UNL     1       1.562  29.175  47.372  1.00  0.00    -0.077 N 
HETATM   29  C   UNL     1       1.155  27.801  46.914  1.00  0.00     0.269 C 
HETATM   30  H   UNL     1       1.581  29.164  48.402  1.00  0.00     0.279 HD
HETATM   31  C   UNL     1       0.527  30.201  46.987  1.00  0.00     0.269 C 
ENDBRANCH  27  28
ENDBRANCH  26  27
ENDBRANCH  25  26
ENDBRANCH  22  25
ENDBRANCH   1  19
TORSDOF 7
ENDMDL
