MODEL 1
REMARK VINA RESULT:      -9.4      0.000      0.000
REMARK  5 active torsions:
REMARK  status: ('A' for Active; 'I' for Inactive)
REMARK    1  A    between atoms: C_5  and  C_6 
REMARK       I    between atoms: C_6  and  N_7 
REMARK    2  A    between atoms: N_7  and  C_8 
REMARK    3  A    between atoms: C_13  and  O_14 
REMARK    4  A    between atoms: O_14  and  C_15 
REMARK    5  A    between atoms: C_15  and  C_16 
ROOT
HETATM    1  C   UNL     1       5.819  26.306  54.453  1.00  0.00     0.163 A 
HETATM    2  N   UNL     1       4.914  26.494  53.462  1.00  0.00    -0.241 NA
HETATM    3  C   UNL     1       4.327  27.705  53.388  1.00  0.00     0.119 A 
HETATM    4  C   UNL     1       4.626  28.756  54.237  1.00  0.00     0.022 A 
HETATM    5  C   UNL     1       5.617  28.571  55.199  1.00  0.00     0.042 A 
HETATM    6  C   UNL     1       6.256  27.335  55.304  1.00  0.00     0.115 A 
ENDROOT
BRANCH   1   7
HETATM    7  N   UNL     1       6.302  24.993  54.512  1.00  0.00    -0.305 N 
HETATM    8  C   UNL     1       7.395  24.522  53.817  1.00  0.00     0.258 C 
HETATM    9  O   UNL     1       8.110  25.172  53.062  1.00  0.00    -0.267 OA
HETATM   10  H   UNL     1       5.991  24.498  55.331  1.00  0.00     0.170 HD
BRANCH   8  11
HETATM   11  C   UNL     1       7.729  23.093  54.032  1.00  0.00     0.044 A 
HETATM   12  C   UNL     1       8.006  22.536  55.305  1.00  0.00     0.008 A 
HETATM   13  C   UNL     1       8.269  21.161  55.377  1.00  0.00     0.043 A 
HETATM   14  C   UNL     1       8.139  23.034  56.640  1.00  0.00     0.032 A 
HETATM   15  C   UNL     1       8.300  20.330  54.250  1.00  0.00     0.030 A 
HETATM   16  N   UNL     1       8.478  20.846  56.701  1.00  0.00    -0.365 N 
HETATM   17  C   UNL     1       8.067  20.910  53.003  1.00  0.00     0.003 A 
HETATM   18  C   UNL     1       7.785  22.268  52.891  1.00  0.00     0.018 A 
HETATM   19  H   UNL     1       8.679  19.916  57.043  1.00  0.00     0.165 HD
HETATM   20  C   UNL     1       8.404  21.972  57.473  1.00  0.00     0.089 A 
ENDBRANCH   8  11
ENDBRANCH   1   7
BRANCH   6  21
HETATM   21  O   UNL     1       7.363  27.103  56.073  1.00  0.00    -0.343 OA
BRANCH  21  22
HETATM   22  C   UNL     1       7.337  27.501  57.438  1.00  0.00     0.216 C 
BRANCH  22  23
HETATM   23  C   UNL     1       8.316  28.627  57.625  1.00  0.00    -0.017 A 
HETATM   24  C   UNL     1       8.074  29.638  58.551  1.00  0.00     0.125 A 
HETATM   25  N   UNL     1       8.906  30.685  58.769  1.00  0.00    -0.272 NA
HETATM   26  C   UNL     1      10.035  30.727  58.031  1.00  0.00     0.116 A 
HETATM   27  C   UNL     1      10.370  29.774  57.084  1.00  0.00     0.020 A 
HETATM   28  C   UNL     1       9.496  28.710  56.879  1.00  0.00     0.012 A 
ENDBRANCH  22  23
ENDBRANCH  21  22
ENDBRANCH   6  21
TORSDOF 5
ENDMDL
MODEL 2
REMARK VINA RESULT:      -9.3      1.614      2.168
REMARK  5 active torsions:
REMARK  status: ('A' for Active; 'I' for Inactive)
REMARK    1  A    between atoms: C_5  and  C_6 
REMARK       I    between atoms: C_6  and  N_7 
REMARK    2  A    between atoms: N_7  and  C_8 
REMARK    3  A    between atoms: C_13  and  O_14 
REMARK    4  A    between atoms: O_14  and  C_15 
REMARK    5  A    between atoms: C_15  and  C_16 
ROOT
HETATM    1  C   UNL     1       5.685  25.997  52.212  1.00  0.00     0.163 A 
HETATM    2  N   UNL     1       5.339  25.772  50.921  1.00  0.00    -0.241 NA
HETATM    3  C   UNL     1       4.786  26.800  50.246  1.00  0.00     0.119 A 
HETATM    4  C   UNL     1       4.590  28.058  50.788  1.00  0.00     0.022 A 
HETATM    5  C   UNL     1       5.024  28.293  52.091  1.00  0.00     0.042 A 
HETATM    6  C   UNL     1       5.611  27.260  52.823  1.00  0.00     0.115 A 
ENDROOT
BRANCH   1   7
HETATM    7  N   UNL     1       6.159  24.849  52.860  1.00  0.00    -0.305 N 
HETATM    8  C   UNL     1       7.448  24.368  52.769  1.00  0.00     0.258 C 
HETATM    9  O   UNL     1       8.366  24.870  52.128  1.00  0.00    -0.267 OA
HETATM   10  H   UNL     1       5.588  24.575  53.641  1.00  0.00     0.170 HD
BRANCH   8  11
HETATM   11  C   UNL     1       7.732  23.134  53.542  1.00  0.00     0.044 A 
HETATM   12  C   UNL     1       7.993  23.125  54.935  1.00  0.00     0.008 A 
HETATM   13  C   UNL     1       8.206  21.886  55.554  1.00  0.00     0.043 A 
HETATM   14  C   UNL     1       8.146  24.111  55.959  1.00  0.00     0.032 A 
HETATM   15  C   UNL     1       8.205  20.673  54.854  1.00  0.00     0.030 A 
HETATM   16  N   UNL     1       8.408  22.121  56.896  1.00  0.00    -0.365 N 
HETATM   17  C   UNL     1       7.989  20.712  53.477  1.00  0.00     0.003 A 
HETATM   18  C   UNL     1       7.755  21.921  52.827  1.00  0.00     0.018 A 
HETATM   19  H   UNL     1       8.577  21.400  57.584  1.00  0.00     0.165 HD
HETATM   20  C   UNL     1       8.376  23.464  57.152  1.00  0.00     0.089 A 
ENDBRANCH   8  11
ENDBRANCH   1   7
BRANCH   6  21
HETATM   21  O   UNL     1       6.240  27.428  54.025  1.00  0.00    -0.343 OA
BRANCH  21  22
HETATM   22  C   UNL     1       7.573  27.924  54.031  1.00  0.00     0.216 C 
BRANCH  22  23
HETATM   23  C   UNL     1       7.909  28.369  55.428  1.00  0.00    -0.017 A 
HETATM   24  C   UNL     1       8.954  29.259  55.662  1.00  0.00     0.125 A 
HETATM   25  N   UNL     1       9.318  29.699  56.891  1.00  0.00    -0.272 NA
HETATM   26  C   UNL     1       8.606  29.232  57.938  1.00  0.00     0.116 A 
HETATM   27  C   UNL     1       7.551  28.343  57.815  1.00  0.00     0.020 A 
HETATM   28  C   UNL     1       7.200  27.906  56.540  1.00  0.00     0.012 A 
ENDBRANCH  22  23
ENDBRANCH  21  22
ENDBRANCH   6  21
TORSDOF 5
ENDMDL
MODEL 3
REMARK VINA RESULT:      -9.2      1.819      4.647
REMARK  5 active torsions:
REMARK  status: ('A' for Active; 'I' for Inactive)
REMARK    1  A    between atoms: C_5  and  C_6 
REMARK       I    between atoms: C_6  and  N_7 
REMARK    2  A    between atoms: N_7  and  C_8 
REMARK    3  A    between atoms: C_13  and  O_14 
REMARK    4  A    between atoms: O_14  and  C_15 
REMARK    5  A    between atoms: C_15  and  C_16 
ROOT
HETATM    1  C   UNL     1       7.290  27.200  56.265  1.00  0.00     0.163 A 
HETATM    2  N   UNL     1       8.281  27.538  57.125  1.00  0.00    -0.241 NA
HETATM    3  C   UNL     1       8.145  28.702  57.791  1.00  0.00     0.119 A 
HETATM    4  C   UNL     1       7.047  29.534  57.668  1.00  0.00     0.022 A 
HETATM    5  C   UNL     1       6.001  29.132  56.840  1.00  0.00     0.042 A 
HETATM    6  C   UNL     1       6.096  27.930  56.138  1.00  0.00     0.115 A 
ENDROOT
BRANCH   1   7
HETATM    7  N   UNL     1       7.562  26.029  55.548  1.00  0.00    -0.305 N 
HETATM    8  C   UNL     1       7.277  24.752  55.983  1.00  0.00     0.258 C 
HETATM    9  O   UNL     1       6.738  24.451  57.043  1.00  0.00    -0.267 OA
HETATM   10  H   UNL     1       7.692  26.193  54.563  1.00  0.00     0.170 HD
BRANCH   8  11
HETATM   11  C   UNL     1       7.652  23.656  55.058  1.00  0.00     0.044 A 
HETATM   12  C   UNL     1       8.093  22.381  55.492  1.00  0.00     0.008 A 
HETATM   13  C   UNL     1       8.378  21.418  54.515  1.00  0.00     0.043 A 
HETATM   14  C   UNL     1       8.385  21.766  56.750  1.00  0.00     0.032 A 
HETATM   15  C   UNL     1       8.278  21.670  53.141  1.00  0.00     0.030 A 
HETATM   16  N   UNL     1       8.754  20.264  55.166  1.00  0.00    -0.365 N 
HETATM   17  C   UNL     1       7.884  22.946  52.738  1.00  0.00     0.003 A 
HETATM   18  C   UNL     1       7.574  23.926  53.678  1.00  0.00     0.018 A 
HETATM   19  H   UNL     1       9.008  19.402  54.702  1.00  0.00     0.165 HD
HETATM   20  C   UNL     1       8.765  20.464  56.518  1.00  0.00     0.089 A 
ENDBRANCH   8  11
ENDBRANCH   1   7
BRANCH   6  21
HETATM   21  O   UNL     1       5.061  27.352  55.456  1.00  0.00    -0.343 OA
BRANCH  21  22
HETATM   22  C   UNL     1       4.456  28.079  54.394  1.00  0.00     0.216 C 
BRANCH  22  23
HETATM   23  C   UNL     1       4.714  27.346  53.107  1.00  0.00    -0.017 A 
HETATM   24  C   UNL     1       4.926  28.040  51.919  1.00  0.00     0.125 A 
HETATM   25  N   UNL     1       5.158  27.449  50.723  1.00  0.00    -0.272 NA
HETATM   26  C   UNL     1       5.183  26.100  50.708  1.00  0.00     0.116 A 
HETATM   27  C   UNL     1       4.983  25.314  51.831  1.00  0.00     0.020 A 
HETATM   28  C   UNL     1       4.743  25.949  53.047  1.00  0.00     0.012 A 
ENDBRANCH  22  23
ENDBRANCH  21  22
ENDBRANCH   6  21
TORSDOF 5
ENDMDL
MODEL 4
REMARK VINA RESULT:      -9.2      0.924      1.951
REMARK  5 active torsions:
REMARK  status: ('A' for Active; 'I' for Inactive)
REMARK    1  A    between atoms: C_5  and  C_6 
REMARK       I    between atoms: C_6  and  N_7 
REMARK    2  A    between atoms: N_7  and  C_8 
REMARK    3  A    between atoms: C_13  and  O_14 
REMARK    4  A    between atoms: O_14  and  C_15 
REMARK    5  A    between atoms: C_15  and  C_16 
ROOT
HETATM    1  C   UNL     1       5.575  26.389  54.594  1.00  0.00     0.163 A 
HETATM    2  N   UNL     1       4.869  26.265  53.443  1.00  0.00    -0.241 NA
HETATM    3  C   UNL     1       4.203  27.355  53.012  1.00  0.00     0.119 A 
HETATM    4  C   UNL     1       4.233  28.579  53.655  1.00  0.00     0.022 A 
HETATM    5  C   UNL     1       5.027  28.710  54.793  1.00  0.00     0.042 A 
HETATM    6  C   UNL     1       5.742  27.610  55.269  1.00  0.00     0.115 A 
ENDROOT
BRANCH   1   7
HETATM    7  N   UNL     1       6.152  25.185  55.015  1.00  0.00    -0.305 N 
HETATM    8  C   UNL     1       7.323  24.654  54.517  1.00  0.00     0.258 C 
HETATM    9  O   UNL     1       8.035  25.153  53.652  1.00  0.00    -0.267 OA
HETATM   10  H   UNL     1       5.826  24.889  55.920  1.00  0.00     0.170 HD
BRANCH   8  11
HETATM   11  C   UNL     1       7.751  23.365  55.112  1.00  0.00     0.044 A 
HETATM   12  C   UNL     1       7.986  22.192  54.352  1.00  0.00     0.008 A 
HETATM   13  C   UNL     1       8.427  21.048  55.031  1.00  0.00     0.043 A 
HETATM   14  C   UNL     1       7.853  21.811  52.979  1.00  0.00     0.032 A 
HETATM   15  C   UNL     1       8.612  21.007  56.419  1.00  0.00     0.030 A 
HETATM   16  N   UNL     1       8.614  20.055  54.095  1.00  0.00    -0.365 N 
HETATM   17  C   UNL     1       8.332  22.162  57.150  1.00  0.00     0.003 A 
HETATM   18  C   UNL     1       7.910  23.324  56.511  1.00  0.00     0.018 A 
HETATM   19  H   UNL     1       8.940  19.122  54.308  1.00  0.00     0.165 HD
HETATM   20  C   UNL     1       8.267  20.505  52.851  1.00  0.00     0.089 A 
ENDBRANCH   8  11
ENDBRANCH   1   7
BRANCH   6  21
HETATM   21  O   UNL     1       6.691  27.674  56.251  1.00  0.00    -0.343 OA
BRANCH  21  22
HETATM   22  C   UNL     1       8.022  28.018  55.888  1.00  0.00     0.216 C 
BRANCH  22  23
HETATM   23  C   UNL     1       8.585  28.927  56.945  1.00  0.00    -0.017 A 
HETATM   24  C   UNL     1       7.954  29.065  58.179  1.00  0.00     0.125 A 
HETATM   25  N   UNL     1       8.398  29.868  59.175  1.00  0.00    -0.272 NA
HETATM   26  C   UNL     1       9.527  30.566  58.934  1.00  0.00     0.116 A 
HETATM   27  C   UNL     1      10.231  30.503  57.743  1.00  0.00     0.020 A 
HETATM   28  C   UNL     1       9.750  29.672  56.735  1.00  0.00     0.012 A 
ENDBRANCH  22  23
ENDBRANCH  21  22
ENDBRANCH   6  21
TORSDOF 5
ENDMDL
MODEL 5
REMARK VINA RESULT:      -9.0      2.810      5.471
REMARK  5 active torsions:
REMARK  status: ('A' for Active; 'I' for Inactive)
REMARK    1  A    between atoms: C_5  and  C_6 
REMARK       I    between atoms: C_6  and  N_7 
REMARK    2  A    between atoms: N_7  and  C_8 
REMARK    3  A    between atoms: C_13  and  O_14 
REMARK    4  A    between atoms: O_14  and  C_15 
REMARK    5  A    between atoms: C_15  and  C_16 
ROOT
HETATM    1  C   UNL     1       5.407  25.984  54.387  1.00  0.00     0.163 A 
HETATM    2  N   UNL     1       5.368  26.558  55.614  1.00  0.00    -0.241 NA
HETATM    3  C   UNL     1       4.909  27.823  55.685  1.00  0.00     0.119 A 
HETATM    4  C   UNL     1       4.451  28.537  54.592  1.00  0.00     0.022 A 
HETATM    5  C   UNL     1       4.424  27.904  53.351  1.00  0.00     0.042 A 
HETATM    6  C   UNL     1       4.882  26.591  53.234  1.00  0.00     0.115 A 
ENDROOT
BRANCH   1   7
HETATM    7  N   UNL     1       5.987  24.709  54.396  1.00  0.00    -0.305 N 
HETATM    8  C   UNL     1       7.273  24.424  53.988  1.00  0.00     0.258 C 
HETATM    9  O   UNL     1       8.098  25.232  53.574  1.00  0.00    -0.267 OA
HETATM   10  H   UNL     1       5.515  24.068  55.011  1.00  0.00     0.170 HD
BRANCH   8  11
HETATM   11  C   UNL     1       7.680  23.002  54.085  1.00  0.00     0.044 A 
HETATM   12  C   UNL     1       7.985  22.356  55.309  1.00  0.00     0.008 A 
HETATM   13  C   UNL     1       8.318  20.995  55.268  1.00  0.00     0.043 A 
HETATM   14  C   UNL     1       8.091  22.747  56.681  1.00  0.00     0.032 A 
HETATM   15  C   UNL     1       8.393  20.263  54.076  1.00  0.00     0.030 A 
HETATM   16  N   UNL     1       8.542  20.582  56.562  1.00  0.00    -0.365 N 
HETATM   17  C   UNL     1       8.131  20.932  52.880  1.00  0.00     0.003 A 
HETATM   18  C   UNL     1       7.778  22.279  52.880  1.00  0.00     0.018 A 
HETATM   19  H   UNL     1       8.791  19.638  56.826  1.00  0.00     0.165 HD
HETATM   20  C   UNL     1       8.410  21.634  57.425  1.00  0.00     0.089 A 
ENDBRANCH   8  11
ENDBRANCH   1   7
BRANCH   6  21
HETATM   21  O   UNL     1       4.723  25.816  52.118  1.00  0.00    -0.343 OA
BRANCH  21  22
HETATM   22  C   UNL     1       5.641  25.976  51.044  1.00  0.00     0.216 C 
BRANCH  22  23
HETATM   23  C   UNL     1       4.946  26.706  49.927  1.00  0.00    -0.017 A 
HETATM   24  C   UNL     1       4.027  26.053  49.110  1.00  0.00     0.125 A 
HETATM   25  N   UNL     1       3.368  26.642  48.084  1.00  0.00    -0.272 NA
HETATM   26  C   UNL     1       3.635  27.946  47.861  1.00  0.00     0.116 A 
HETATM   27  C   UNL     1       4.531  28.687  48.612  1.00  0.00     0.020 A 
HETATM   28  C   UNL     1       5.197  28.055  49.659  1.00  0.00     0.012 A 
ENDBRANCH  22  23
ENDBRANCH  21  22
ENDBRANCH   6  21
TORSDOF 5
ENDMDL
MODEL 6
REMARK VINA RESULT:      -9.0      1.756      2.814
REMARK  5 active torsions:
REMARK  status: ('A' for Active; 'I' for Inactive)
REMARK    1  A    between atoms: C_5  and  C_6 
REMARK       I    between atoms: C_6  and  N_7 
REMARK    2  A    between atoms: N_7  and  C_8 
REMARK    3  A    between atoms: C_13  and  O_14 
REMARK    4  A    between atoms: O_14  and  C_15 
REMARK    5  A    between atoms: C_15  and  C_16 
ROOT
HETATM    1  C   UNL     1       5.762  26.344  52.179  1.00  0.00     0.163 A 
HETATM    2  N   UNL     1       5.352  25.754  51.030  1.00  0.00    -0.241 NA
HETATM    3  C   UNL     1       4.799  26.551  50.094  1.00  0.00     0.119 A 
HETATM    4  C   UNL     1       4.665  27.921  50.233  1.00  0.00     0.022 A 
HETATM    5  C   UNL     1       5.165  28.521  51.387  1.00  0.00     0.042 A 
HETATM    6  C   UNL     1       5.753  27.734  52.378  1.00  0.00     0.115 A 
ENDROOT
BRANCH   1   7
HETATM    7  N   UNL     1       6.232  25.428  53.128  1.00  0.00    -0.305 N 
HETATM    8  C   UNL     1       7.483  24.849  53.114  1.00  0.00     0.258 C 
HETATM    9  O   UNL     1       8.368  25.053  52.290  1.00  0.00    -0.267 OA
HETATM   10  H   UNL     1       5.715  25.457  53.991  1.00  0.00     0.170 HD
BRANCH   8  11
HETATM   11  C   UNL     1       7.769  23.904  54.222  1.00  0.00     0.044 A 
HETATM   12  C   UNL     1       7.986  22.517  54.032  1.00  0.00     0.008 A 
HETATM   13  C   UNL     1       8.288  21.740  55.158  1.00  0.00     0.043 A 
HETATM   14  C   UNL     1       7.944  21.611  52.925  1.00  0.00     0.032 A 
HETATM   15  C   UNL     1       8.351  22.266  56.454  1.00  0.00     0.030 A 
HETATM   16  N   UNL     1       8.485  20.446  54.730  1.00  0.00    -0.365 N 
HETATM   17  C   UNL     1       8.091  23.626  56.621  1.00  0.00     0.003 A 
HETATM   18  C   UNL     1       7.806  24.436  55.525  1.00  0.00     0.018 A 
HETATM   19  H   UNL     1       8.726  19.673  55.336  1.00  0.00     0.165 HD
HETATM   20  C   UNL     1       8.276  20.356  53.382  1.00  0.00     0.089 A 
ENDBRANCH   8  11
ENDBRANCH   1   7
BRANCH   6  21
HETATM   21  O   UNL     1       6.441  28.232  53.450  1.00  0.00    -0.343 OA
BRANCH  21  22
HETATM   22  C   UNL     1       5.703  28.731  54.559  1.00  0.00     0.216 C 
BRANCH  22  23
HETATM   23  C   UNL     1       6.625  28.820  55.744  1.00  0.00    -0.017 A 
HETATM   24  C   UNL     1       6.417  29.770  56.741  1.00  0.00     0.125 A 
HETATM   25  N   UNL     1       7.207  29.913  57.831  1.00  0.00    -0.272 NA
HETATM   26  C   UNL     1       8.254  29.069  57.937  1.00  0.00     0.116 A 
HETATM   27  C   UNL     1       8.551  28.090  57.003  1.00  0.00     0.020 A 
HETATM   28  C   UNL     1       7.723  27.968  55.890  1.00  0.00     0.012 A 
ENDBRANCH  22  23
ENDBRANCH  21  22
ENDBRANCH   6  21
TORSDOF 5
ENDMDL
MODEL 7
REMARK VINA RESULT:      -8.6      3.186      6.391
REMARK  5 active torsions:
REMARK  status: ('A' for Active; 'I' for Inactive)
REMARK    1  A    between atoms: C_5  and  C_6 
REMARK       I    between atoms: C_6  and  N_7 
REMARK    2  A    between atoms: N_7  and  C_8 
REMARK    3  A    between atoms: C_13  and  O_14 
REMARK    4  A    between atoms: O_14  and  C_15 
REMARK    5  A    between atoms: C_15  and  C_16 
ROOT
HETATM    1  C   UNL     1       4.900  27.498  53.578  1.00  0.00     0.163 A 
HETATM    2  N   UNL     1       4.628  28.119  54.751  1.00  0.00    -0.241 NA
HETATM    3  C   UNL     1       4.075  29.347  54.682  1.00  0.00     0.119 A 
HETATM    4  C   UNL     1       3.746  29.975  53.494  1.00  0.00     0.022 A 
HETATM    5  C   UNL     1       3.958  29.289  52.300  1.00  0.00     0.042 A 
HETATM    6  C   UNL     1       4.521  28.012  52.326  1.00  0.00     0.115 A 
ENDROOT
BRANCH   1   7
HETATM    7  N   UNL     1       5.560  26.275  53.746  1.00  0.00    -0.305 N 
HETATM    8  C   UNL     1       6.928  26.106  53.719  1.00  0.00     0.258 C 
HETATM    9  O   UNL     1       7.764  26.989  53.561  1.00  0.00    -0.267 OA
HETATM   10  H   UNL     1       4.989  25.580  54.197  1.00  0.00     0.170 HD
BRANCH   8  11
HETATM   11  C   UNL     1       7.411  24.718  53.921  1.00  0.00     0.044 A 
HETATM   12  C   UNL     1       7.816  24.205  55.178  1.00  0.00     0.008 A 
HETATM   13  C   UNL     1       8.214  22.863  55.242  1.00  0.00     0.043 A 
HETATM   14  C   UNL     1       7.979  24.729  56.500  1.00  0.00     0.032 A 
HETATM   15  C   UNL     1       8.258  22.026  54.119  1.00  0.00     0.030 A 
HETATM   16  N   UNL     1       8.531  22.585  56.552  1.00  0.00    -0.365 N 
HETATM   17  C   UNL     1       7.896  22.566  52.886  1.00  0.00     0.003 A 
HETATM   18  C   UNL     1       7.477  23.890  52.784  1.00  0.00     0.018 A 
HETATM   19  H   UNL     1       8.842  21.682  56.887  1.00  0.00     0.165 HD
HETATM   20  C   UNL     1       8.396  23.707  57.321  1.00  0.00     0.089 A 
ENDBRANCH   8  11
ENDBRANCH   1   7
BRANCH   6  21
HETATM   21  O   UNL     1       4.595  27.180  51.243  1.00  0.00    -0.343 OA
BRANCH  21  22
HETATM   22  C   UNL     1       4.985  27.729  49.991  1.00  0.00     0.216 C 
BRANCH  22  23
HETATM   23  C   UNL     1       3.967  27.330  48.958  1.00  0.00    -0.017 A 
HETATM   24  C   UNL     1       4.314  26.496  47.898  1.00  0.00     0.125 A 
HETATM   25  N   UNL     1       3.455  26.100  46.928  1.00  0.00    -0.272 NA
HETATM   26  C   UNL     1       2.187  26.554  47.020  1.00  0.00     0.116 A 
HETATM   27  C   UNL     1       1.739  27.387  48.032  1.00  0.00     0.020 A 
HETATM   28  C   UNL     1       2.645  27.781  49.013  1.00  0.00     0.012 A 
ENDBRANCH  22  23
ENDBRANCH  21  22
ENDBRANCH   6  21
TORSDOF 5
ENDMDL
MODEL 8
REMARK VINA RESULT:      -8.4      3.133      7.731
REMARK  5 active torsions:
REMARK  status: ('A' for Active; 'I' for Inactive)
REMARK    1  A    between atoms: C_5  and  C_6 
REMARK       I    between atoms: C_6  and  N_7 
REMARK    2  A    between atoms: N_7  and  C_8 
REMARK    3  A    between atoms: C_13  and  O_14 
REMARK    4  A    between atoms: O_14  and  C_15 
REMARK    5  A    between atoms: C_15  and  C_16 
ROOT
HETATM    1  C   UNL     1       4.874  26.693  53.930  1.00  0.00     0.163 A 
HETATM    2  N   UNL     1       4.612  27.830  54.619  1.00  0.00    -0.241 NA
HETATM    3  C   UNL     1       4.944  27.846  55.926  1.00  0.00     0.119 A 
HETATM    4  C   UNL     1       5.559  26.790  56.575  1.00  0.00     0.022 A 
HETATM    5  C   UNL     1       5.893  25.660  55.832  1.00  0.00     0.042 A 
HETATM    6  C   UNL     1       5.576  25.605  54.474  1.00  0.00     0.115 A 
ENDROOT
BRANCH   1   7
HETATM    7  N   UNL     1       4.409  26.734  52.610  1.00  0.00    -0.305 N 
HETATM    8  C   UNL     1       4.927  27.533  51.614  1.00  0.00     0.258 C 
HETATM    9  O   UNL     1       5.870  28.311  51.725  1.00  0.00    -0.267 OA
HETATM   10  H   UNL     1       3.878  25.917  52.356  1.00  0.00     0.170 HD
BRANCH   8  11
HETATM   11  C   UNL     1       4.278  27.413  50.286  1.00  0.00     0.044 A 
HETATM   12  C   UNL     1       3.198  28.227  49.865  1.00  0.00     0.008 A 
HETATM   13  C   UNL     1       2.701  28.039  48.568  1.00  0.00     0.043 A 
HETATM   14  C   UNL     1       2.386  29.246  50.456  1.00  0.00     0.032 A 
HETATM   15  C   UNL     1       3.201  27.067  47.692  1.00  0.00     0.030 A 
HETATM   16  N   UNL     1       1.687  28.951  48.375  1.00  0.00    -0.365 N 
HETATM   17  C   UNL     1       4.235  26.248  48.145  1.00  0.00     0.003 A 
HETATM   18  C   UNL     1       4.769  26.416  49.420  1.00  0.00     0.018 A 
HETATM   19  H   UNL     1       1.157  29.044  47.519  1.00  0.00     0.165 HD
HETATM   20  C   UNL     1       1.486  29.684  49.511  1.00  0.00     0.089 A 
ENDBRANCH   8  11
ENDBRANCH   1   7
BRANCH   6  21
HETATM   21  O   UNL     1       6.023  24.638  53.617  1.00  0.00    -0.343 OA
BRANCH  21  22
HETATM   22  C   UNL     1       7.422  24.394  53.538  1.00  0.00     0.216 C 
BRANCH  22  23
HETATM   23  C   UNL     1       7.674  22.951  53.879  1.00  0.00    -0.017 A 
HETATM   24  C   UNL     1       7.615  22.508  55.198  1.00  0.00     0.125 A 
HETATM   25  N   UNL     1       7.836  21.228  55.581  1.00  0.00    -0.272 NA
HETATM   26  C   UNL     1       8.128  20.344  54.604  1.00  0.00     0.116 A 
HETATM   27  C   UNL     1       8.213  20.681  53.263  1.00  0.00     0.020 A 
HETATM   28  C   UNL     1       7.985  22.005  52.899  1.00  0.00     0.012 A 
ENDBRANCH  22  23
ENDBRANCH  21  22
ENDBRANCH   6  21
TORSDOF 5
ENDMDL
MODEL 9
REMARK VINA RESULT:      -8.2      2.877      3.539
REMARK  5 active torsions:
REMARK  status: ('A' for Active; 'I' for Inactive)
REMARK    1  A    between atoms: C_5  and  C_6 
REMARK       I    between atoms: C_6  and  N_7 
REMARK    2  A    between atoms: N_7  and  C_8 
REMARK    3  A    between atoms: C_13  and  O_14 
REMARK    4  A    between atoms: O_14  and  C_15 
REMARK    5  A    between atoms: C_15  and  C_16 
ROOT
HETATM    1  C   UNL     1       5.304  26.082  51.982  1.00  0.00     0.163 A 
HETATM    2  N   UNL     1       5.380  25.947  50.635  1.00  0.00    -0.241 NA
HETATM    3  C   UNL     1       4.787  26.900  49.888  1.00  0.00     0.119 A 
HETATM    4  C   UNL     1       4.147  28.005  50.420  1.00  0.00     0.022 A 
HETATM    5  C   UNL     1       4.147  28.169  51.804  1.00  0.00     0.042 A 
HETATM    6  C   UNL     1       4.758  27.211  52.615  1.00  0.00     0.115 A 
ENDROOT
BRANCH   1   7
HETATM    7  N   UNL     1       5.861  24.999  52.673  1.00  0.00    -0.305 N 
HETATM    8  C   UNL     1       7.211  24.772  52.828  1.00  0.00     0.258 C 
HETATM    9  O   UNL     1       8.119  25.479  52.402  1.00  0.00    -0.267 OA
HETATM   10  H   UNL     1       5.215  24.569  53.314  1.00  0.00     0.170 HD
BRANCH   8  11
HETATM   11  C   UNL     1       7.578  23.561  53.601  1.00  0.00     0.044 A 
HETATM   12  C   UNL     1       7.857  23.573  54.990  1.00  0.00     0.008 A 
HETATM   13  C   UNL     1       8.152  22.351  55.611  1.00  0.00     0.043 A 
HETATM   14  C   UNL     1       7.966  24.571  56.010  1.00  0.00     0.032 A 
HETATM   15  C   UNL     1       8.213  21.137  54.916  1.00  0.00     0.030 A 
HETATM   16  N   UNL     1       8.357  22.603  56.949  1.00  0.00    -0.365 N 
HETATM   17  C   UNL     1       7.977  21.157  53.541  1.00  0.00     0.003 A 
HETATM   18  C   UNL     1       7.663  22.347  52.891  1.00  0.00     0.018 A 
HETATM   19  H   UNL     1       8.577  21.896  57.637  1.00  0.00     0.165 HD
HETATM   20  C   UNL     1       8.250  23.943  57.201  1.00  0.00     0.089 A 
ENDBRANCH   8  11
ENDBRANCH   1   7
BRANCH   6  21
HETATM   21  O   UNL     1       4.983  27.366  53.954  1.00  0.00    -0.343 OA
BRANCH  21  22
HETATM   22  C   UNL     1       5.740  28.488  54.391  1.00  0.00     0.216 C 
BRANCH  22  23
HETATM   23  C   UNL     1       4.821  29.425  55.126  1.00  0.00    -0.017 A 
HETATM   24  C   UNL     1       4.327  30.572  54.508  1.00  0.00     0.125 A 
HETATM   25  N   UNL     1       3.502  31.463  55.108  1.00  0.00    -0.272 NA
HETATM   26  C   UNL     1       3.149  31.200  56.384  1.00  0.00     0.116 A 
HETATM   27  C   UNL     1       3.584  30.091  57.089  1.00  0.00     0.020 A 
HETATM   28  C   UNL     1       4.434  29.193  56.449  1.00  0.00     0.012 A 
ENDBRANCH  22  23
ENDBRANCH  21  22
ENDBRANCH   6  21
TORSDOF 5
ENDMDL
MODEL 10
REMARK VINA RESULT:      -8.1      2.292      6.612
REMARK  5 active torsions:
REMARK  status: ('A' for Active; 'I' for Inactive)
REMARK    1  A    between atoms: C_5  and  C_6 
REMARK       I    between atoms: C_6  and  N_7 
REMARK    2  A    between atoms: N_7  and  C_8 
REMARK    3  A    between atoms: C_13  and  O_14 
REMARK    4  A    between atoms: O_14  and  C_15 
REMARK    5  A    between atoms: C_15  and  C_16 
ROOT
HETATM    1  C   UNL     1       4.781  27.404  51.915  1.00  0.00     0.163 A 
HETATM    2  N   UNL     1       4.078  28.436  51.391  1.00  0.00    -0.241 NA
HETATM    3  C   UNL     1       3.767  28.364  50.081  1.00  0.00     0.119 A 
HETATM    4  C   UNL     1       4.095  27.292  49.271  1.00  0.00     0.022 A 
HETATM    5  C   UNL     1       4.749  26.204  49.845  1.00  0.00     0.042 A 
HETATM    6  C   UNL     1       5.081  26.232  51.200  1.00  0.00     0.115 A 
ENDROOT
BRANCH   1   7
HETATM    7  N   UNL     1       5.142  27.609  53.252  1.00  0.00    -0.305 N 
HETATM    8  C   UNL     1       6.368  28.073  53.677  1.00  0.00     0.258 C 
HETATM    9  O   UNL     1       7.314  28.385  52.960  1.00  0.00    -0.267 OA
HETATM   10  H   UNL     1       4.347  27.695  53.864  1.00  0.00     0.170 HD
BRANCH   8  11
HETATM   11  C   UNL     1       6.532  28.217  55.144  1.00  0.00     0.044 A 
HETATM   12  C   UNL     1       5.594  28.878  55.976  1.00  0.00     0.008 A 
HETATM   13  C   UNL     1       5.847  28.909  57.353  1.00  0.00     0.043 A 
HETATM   14  C   UNL     1       4.382  29.612  55.779  1.00  0.00     0.032 A 
HETATM   15  C   UNL     1       6.992  28.349  57.933  1.00  0.00     0.030 A 
HETATM   16  N   UNL     1       4.798  29.570  57.954  1.00  0.00    -0.365 N 
HETATM   17  C   UNL     1       7.921  27.741  57.089  1.00  0.00     0.003 A 
HETATM   18  C   UNL     1       7.698  27.673  55.716  1.00  0.00     0.018 A 
HETATM   19  H   UNL     1       4.717  29.730  58.949  1.00  0.00     0.165 HD
HETATM   20  C   UNL     1       3.908  30.003  57.010  1.00  0.00     0.089 A 
ENDBRANCH   8  11
ENDBRANCH   1   7
BRANCH   6  21
HETATM   21  O   UNL     1       5.545  25.154  51.903  1.00  0.00    -0.343 OA
BRANCH  21  22
HETATM   22  C   UNL     1       6.950  24.954  51.991  1.00  0.00     0.216 C 
BRANCH  22  23
HETATM   23  C   UNL     1       7.224  23.991  53.114  1.00  0.00    -0.017 A 
HETATM   24  C   UNL     1       6.854  24.295  54.422  1.00  0.00     0.125 A 
HETATM   25  N   UNL     1       7.073  23.482  55.483  1.00  0.00    -0.272 NA
HETATM   26  C   UNL     1       7.689  22.308  55.230  1.00  0.00     0.116 A 
HETATM   27  C   UNL     1       8.098  21.910  53.968  1.00  0.00     0.020 A 
HETATM   28  C   UNL     1       7.863  22.767  52.897  1.00  0.00     0.012 A 
ENDBRANCH  22  23
ENDBRANCH  21  22
ENDBRANCH   6  21
TORSDOF 5
ENDMDL
