MODEL 1
REMARK VINA RESULT:      -9.1      0.000      0.000
REMARK  9 active torsions:
REMARK  status: ('A' for Active; 'I' for Inactive)
REMARK    1  A    between atoms: C_2  and  C_3 
REMARK    2  A    between atoms: C_3  and  C_4 
REMARK    3  A    between atoms: C_4  and  N_5 
REMARK    4  A    between atoms: C_9  and  C_10 
REMARK    5  A    between atoms: C_13  and  C_14 
REMARK    6  A    between atoms: C_14  and  O_15 
REMARK    7  A    between atoms: C_20  and  C_21 
REMARK       I    between atoms: C_21  and  N_22 
REMARK    8  A    between atoms: N_22  and  C_23 
REMARK    9  A    between atoms: C_24  and  O_25 
ROOT
HETATM    1  N   UNL     1       4.726  27.551  52.418  1.00  0.00    -0.303 N 
HETATM    2  C   UNL     1       4.219  27.917  53.665  1.00  0.00     0.323 C 
HETATM    3  O   UNL     1       3.323  28.741  53.837  1.00  0.00    -0.247 OA
HETATM    4  N   UNL     1       4.736  27.281  54.747  1.00  0.00    -0.330 N 
HETATM    5  C   UNL     1       5.944  26.495  54.749  1.00  0.00     0.160 C 
HETATM    6  C   UNL     1       6.248  26.007  53.367  1.00  0.00     0.059 C 
HETATM    7  C   UNL     1       5.699  26.551  52.260  1.00  0.00     0.026 C 
HETATM    8  C   UNL     1       6.116  26.157  50.862  1.00  0.00     0.069 C 
HETATM    9  H   UNL     1       4.386  27.626  55.630  1.00  0.00     0.165 HD
ENDROOT
BRANCH   6  10
HETATM   10  C   UNL     1       7.224  24.882  53.322  1.00  0.00     0.256 C 
HETATM   11  N   UNL     1       6.774  23.766  53.988  1.00  0.00    -0.321 N 
HETATM   12  H   UNL     1       5.840  23.782  54.390  1.00  0.00     0.169 HD
HETATM   13  O   UNL     1       8.302  25.027  52.765  1.00  0.00    -0.267 OA
BRANCH  11  14
HETATM   14  C   UNL     1       7.442  22.533  54.163  1.00  0.00     0.068 A 
HETATM   15  C   UNL     1       7.850  22.207  55.473  1.00  0.00     0.095 A 
HETATM   16  C   UNL     1       8.526  21.007  55.712  1.00  0.00     0.039 A 
HETATM   17  C   UNL     1       8.790  20.129  54.658  1.00  0.00     0.003 A 
HETATM   18  C   UNL     1       8.380  20.447  53.366  1.00  0.00     0.002 A 
HETATM   19  C   UNL     1       7.708  21.645  53.118  1.00  0.00     0.032 A 
BRANCH  15  20
HETATM   20  O   UNL     1       7.534  23.137  56.439  1.00  0.00    -0.354 OA
HETATM   21  C   UNL     1       8.618  23.679  57.185  1.00  0.00     0.210 C 
ENDBRANCH  15  20
ENDBRANCH  11  14
ENDBRANCH   6  10
BRANCH   5  22
HETATM   22  C   UNL     1       7.081  27.272  55.400  1.00  0.00    -0.031 A 
HETATM   23  C   UNL     1       7.803  28.214  54.649  1.00  0.00     0.010 A 
HETATM   24  C   UNL     1       8.794  28.995  55.249  1.00  0.00     0.018 A 
HETATM   25  C   UNL     1       9.081  28.850  56.611  1.00  0.00     0.039 A 
HETATM   26  C   UNL     1       8.391  27.891  57.360  1.00  0.00     0.018 A 
HETATM   27  C   UNL     1       7.402  27.105  56.758  1.00  0.00     0.010 A 
BRANCH  25  28
HETATM   28  C   UNL     1      10.101  29.752  57.213  1.00  0.00     0.292 C 
HETATM   29  O   UNL     1      11.131  30.081  56.645  1.00  0.00    -0.259 OA
BRANCH  28  30
HETATM   30  O   UNL     1       9.701  30.174  58.438  1.00  0.00    -0.323 OA
HETATM   31  C   UNL     1       9.862  31.578  58.646  1.00  0.00     0.213 C 
ENDBRANCH  28  30
ENDBRANCH  25  28
ENDBRANCH   5  22
BRANCH   1  32
HETATM   32  C   UNL     1       4.081  28.189  51.261  1.00  0.00     0.133 C 
BRANCH  32  33
HETATM   33  C   UNL     1       4.823  29.452  50.813  1.00  0.00     0.020 C 
BRANCH  33  34
HETATM   34  C   UNL     1       4.764  29.622  49.296  1.00  0.00    -0.003 C 
HETATM   35  C   UNL     1       4.215  28.377  48.616  1.00  0.00     0.005 C 
ENDBRANCH  33  34
ENDBRANCH  32  33
ENDBRANCH   1  32
TORSDOF 9
ENDMDL
MODEL 2
REMARK VINA RESULT:      -8.6      1.684      2.246
REMARK  9 active torsions:
REMARK  status: ('A' for Active; 'I' for Inactive)
REMARK    1  A    between atoms: C_2  and  C_3 
REMARK    2  A    between atoms: C_3  and  C_4 
REMARK    3  A    between atoms: C_4  and  N_5 
REMARK    4  A    between atoms: C_9  and  C_10 
REMARK    5  A    between atoms: C_13  and  C_14 
REMARK    6  A    between atoms: C_14  and  O_15 
REMARK    7  A    between atoms: C_20  and  C_21 
REMARK       I    between atoms: C_21  and  N_22 
REMARK    8  A    between atoms: N_22  and  C_23 
REMARK    9  A    between atoms: C_24  and  O_25 
ROOT
HETATM    1  N   UNL     1       4.417  28.532  51.291  1.00  0.00    -0.303 N 
HETATM    2  C   UNL     1       3.772  29.322  52.243  1.00  0.00     0.323 C 
HETATM    3  O   UNL     1       3.276  30.423  52.012  1.00  0.00    -0.247 OA
HETATM    4  N   UNL     1       3.664  28.807  53.494  1.00  0.00    -0.330 N 
HETATM    5  C   UNL     1       4.400  27.672  53.991  1.00  0.00     0.160 C 
HETATM    6  C   UNL     1       4.855  26.811  52.855  1.00  0.00     0.059 C 
HETATM    7  C   UNL     1       4.906  27.248  51.579  1.00  0.00     0.026 C 
HETATM    8  C   UNL     1       5.503  26.430  50.457  1.00  0.00     0.069 C 
HETATM    9  H   UNL     1       3.250  29.441  54.163  1.00  0.00     0.165 HD
ENDROOT
BRANCH   6  10
HETATM   10  C   UNL     1       5.265  25.437  53.261  1.00  0.00     0.256 C 
HETATM   11  N   UNL     1       6.629  25.307  53.378  1.00  0.00    -0.321 N 
HETATM   12  H   UNL     1       7.212  26.128  53.237  1.00  0.00     0.169 HD
HETATM   13  O   UNL     1       4.423  24.566  53.418  1.00  0.00    -0.267 OA
BRANCH  11  14
HETATM   14  C   UNL     1       7.363  24.149  53.723  1.00  0.00     0.068 A 
HETATM   15  C   UNL     1       7.908  24.102  55.024  1.00  0.00     0.095 A 
HETATM   16  C   UNL     1       8.655  22.989  55.423  1.00  0.00     0.039 A 
HETATM   17  C   UNL     1       8.854  21.924  54.541  1.00  0.00     0.003 A 
HETATM   18  C   UNL     1       8.309  21.968  53.261  1.00  0.00     0.002 A 
HETATM   19  C   UNL     1       7.566  23.076  52.852  1.00  0.00     0.032 A 
BRANCH  15  20
HETATM   20  O   UNL     1       7.647  25.198  55.814  1.00  0.00    -0.354 OA
HETATM   21  C   UNL     1       6.904  24.966  57.006  1.00  0.00     0.210 C 
ENDBRANCH  15  20
ENDBRANCH  11  14
ENDBRANCH   6  10
BRANCH   5  22
HETATM   22  C   UNL     1       5.520  28.129  54.915  1.00  0.00    -0.031 A 
HETATM   23  C   UNL     1       5.276  28.269  56.291  1.00  0.00     0.010 A 
HETATM   24  C   UNL     1       6.311  28.609  57.167  1.00  0.00     0.018 A 
HETATM   25  C   UNL     1       7.609  28.812  56.684  1.00  0.00     0.039 A 
HETATM   26  C   UNL     1       7.854  28.708  55.311  1.00  0.00     0.018 A 
HETATM   27  C   UNL     1       6.817  28.374  54.434  1.00  0.00     0.010 A 
BRANCH  25  28
HETATM   28  C   UNL     1       8.685  29.108  57.669  1.00  0.00     0.292 C 
HETATM   29  O   UNL     1       8.471  29.436  58.825  1.00  0.00    -0.259 OA
BRANCH  28  30
HETATM   30  O   UNL     1       9.907  28.921  57.110  1.00  0.00    -0.323 OA
HETATM   31  C   UNL     1      10.835  29.971  57.386  1.00  0.00     0.213 C 
ENDBRANCH  28  30
ENDBRANCH  25  28
ENDBRANCH   5  22
BRANCH   1  32
HETATM   32  C   UNL     1       4.437  29.077  49.926  1.00  0.00     0.133 C 
BRANCH  32  33
HETATM   33  C   UNL     1       5.733  29.838  49.629  1.00  0.00     0.020 C 
BRANCH  33  34
HETATM   34  C   UNL     1       5.446  31.273  49.190  1.00  0.00    -0.003 C 
HETATM   35  C   UNL     1       5.767  32.268  50.295  1.00  0.00     0.005 C 
ENDBRANCH  33  34
ENDBRANCH  32  33
ENDBRANCH   1  32
TORSDOF 9
ENDMDL
MODEL 3
REMARK VINA RESULT:      -8.1      2.031      6.451
REMARK  9 active torsions:
REMARK  status: ('A' for Active; 'I' for Inactive)
REMARK    1  A    between atoms: C_2  and  C_3 
REMARK    2  A    between atoms: C_3  and  C_4 
REMARK    3  A    between atoms: C_4  and  N_5 
REMARK    4  A    between atoms: C_9  and  C_10 
REMARK    5  A    between atoms: C_13  and  C_14 
REMARK    6  A    between atoms: C_14  and  O_15 
REMARK    7  A    between atoms: C_20  and  C_21 
REMARK       I    between atoms: C_21  and  N_22 
REMARK    8  A    between atoms: N_22  and  C_23 
REMARK    9  A    between atoms: C_24  and  O_25 
ROOT
HETATM    1  N   UNL     1       4.506  27.615  52.623  1.00  0.00    -0.303 N 
HETATM    2  C   UNL     1       5.121  27.034  51.514  1.00  0.00     0.323 C 
HETATM    3  O   UNL     1       4.582  26.886  50.419  1.00  0.00    -0.247 OA
HETATM    4  N   UNL     1       6.413  26.647  51.663  1.00  0.00    -0.330 N 
HETATM    5  C   UNL     1       7.100  26.513  52.923  1.00  0.00     0.160 C 
HETATM    6  C   UNL     1       6.436  27.355  53.968  1.00  0.00     0.059 C 
HETATM    7  C   UNL     1       5.181  27.833  53.835  1.00  0.00     0.026 C 
HETATM    8  C   UNL     1       4.459  28.557  54.948  1.00  0.00     0.069 C 
HETATM    9  H   UNL     1       6.793  26.173  50.856  1.00  0.00     0.165 HD
ENDROOT
BRANCH   6  10
HETATM   10  C   UNL     1       7.277  27.600  55.173  1.00  0.00     0.256 C 
HETATM   11  N   UNL     1       7.891  28.829  55.146  1.00  0.00    -0.321 N 
HETATM   12  H   UNL     1       7.691  29.458  54.372  1.00  0.00     0.169 HD
HETATM   13  O   UNL     1       7.386  26.737  56.031  1.00  0.00    -0.267 OA
BRANCH  11  14
HETATM   14  C   UNL     1       8.769  29.381  56.107  1.00  0.00     0.068 A 
HETATM   15  C   UNL     1       8.180  30.006  57.226  1.00  0.00     0.095 A 
HETATM   16  C   UNL     1       8.993  30.582  58.208  1.00  0.00     0.039 A 
HETATM   17  C   UNL     1      10.383  30.532  58.084  1.00  0.00     0.003 A 
HETATM   18  C   UNL     1      10.964  29.908  56.984  1.00  0.00     0.002 A 
HETATM   19  C   UNL     1      10.161  29.335  55.997  1.00  0.00     0.032 A 
BRANCH  15  20
HETATM   20  O   UNL     1       6.804  29.992  57.254  1.00  0.00    -0.354 OA
HETATM   21  C   UNL     1       6.173  30.892  58.159  1.00  0.00     0.210 C 
ENDBRANCH  15  20
ENDBRANCH  11  14
ENDBRANCH   6  10
BRANCH   5  22
HETATM   22  C   UNL     1       7.235  25.044  53.299  1.00  0.00    -0.031 A 
HETATM   23  C   UNL     1       7.912  24.163  52.441  1.00  0.00     0.010 A 
HETATM   24  C   UNL     1       8.118  22.829  52.805  1.00  0.00     0.018 A 
HETATM   25  C   UNL     1       7.652  22.353  54.036  1.00  0.00     0.039 A 
HETATM   26  C   UNL     1       6.946  23.214  54.883  1.00  0.00     0.018 A 
HETATM   27  C   UNL     1       6.736  24.546  54.515  1.00  0.00     0.010 A 
BRANCH  25  28
HETATM   28  C   UNL     1       7.955  20.942  54.401  1.00  0.00     0.292 C 
HETATM   29  O   UNL     1       8.392  20.119  53.612  1.00  0.00    -0.259 OA
BRANCH  28  30
HETATM   30  O   UNL     1       7.717  20.729  55.720  1.00  0.00    -0.323 OA
HETATM   31  C   UNL     1       8.902  20.616  56.509  1.00  0.00     0.213 C 
ENDBRANCH  28  30
ENDBRANCH  25  28
ENDBRANCH   5  22
BRANCH   1  32
HETATM   32  C   UNL     1       3.138  28.107  52.403  1.00  0.00     0.133 C 
BRANCH  32  33
HETATM   33  C   UNL     1       3.121  29.445  51.656  1.00  0.00     0.020 C 
BRANCH  33  34
HETATM   34  C   UNL     1       1.955  29.516  50.671  1.00  0.00    -0.003 C 
HETATM   35  C   UNL     1       2.429  29.360  49.234  1.00  0.00     0.005 C 
ENDBRANCH  33  34
ENDBRANCH  32  33
ENDBRANCH   1  32
TORSDOF 9
ENDMDL
MODEL 4
REMARK VINA RESULT:      -7.9      1.943      6.108
REMARK  9 active torsions:
REMARK  status: ('A' for Active; 'I' for Inactive)
REMARK    1  A    between atoms: C_2  and  C_3 
REMARK    2  A    between atoms: C_3  and  C_4 
REMARK    3  A    between atoms: C_4  and  N_5 
REMARK    4  A    between atoms: C_9  and  C_10 
REMARK    5  A    between atoms: C_13  and  C_14 
REMARK    6  A    between atoms: C_14  and  O_15 
REMARK    7  A    between atoms: C_20  and  C_21 
REMARK       I    between atoms: C_21  and  N_22 
REMARK    8  A    between atoms: N_22  and  C_23 
REMARK    9  A    between atoms: C_24  and  O_25 
ROOT
HETATM    1  N   UNL     1       7.804  28.184  56.640  1.00  0.00    -0.303 N 
HETATM    2  C   UNL     1       8.371  29.012  55.671  1.00  0.00     0.323 C 
HETATM    3  O   UNL     1       8.853  30.120  55.899  1.00  0.00    -0.247 OA
HETATM    4  N   UNL     1       8.417  28.529  54.403  1.00  0.00    -0.330 N 
HETATM    5  C   UNL     1       7.681  27.386  53.923  1.00  0.00     0.160 C 
HETATM    6  C   UNL     1       7.316  26.488  55.063  1.00  0.00     0.059 C 
HETATM    7  C   UNL     1       7.330  26.894  56.351  1.00  0.00     0.026 C 
HETATM    8  C   UNL     1       6.822  26.036  57.485  1.00  0.00     0.069 C 
HETATM    9  H   UNL     1       8.774  29.189  53.727  1.00  0.00     0.165 HD
ENDROOT
BRANCH   6  10
HETATM   10  C   UNL     1       6.917  25.114  54.649  1.00  0.00     0.256 C 
HETATM   11  N   UNL     1       7.981  24.245  54.606  1.00  0.00    -0.321 N 
HETATM   12  H   UNL     1       8.896  24.581  54.896  1.00  0.00     0.169 HD
HETATM   13  O   UNL     1       5.754  24.874  54.359  1.00  0.00    -0.267 OA
BRANCH  11  14
HETATM   14  C   UNL     1       7.973  22.881  54.239  1.00  0.00     0.068 A 
HETATM   15  C   UNL     1       8.051  21.936  55.285  1.00  0.00     0.095 A 
HETATM   16  C   UNL     1       8.059  20.570  54.987  1.00  0.00     0.039 A 
HETATM   17  C   UNL     1       7.981  20.140  53.661  1.00  0.00     0.003 A 
HETATM   18  C   UNL     1       7.896  21.072  52.630  1.00  0.00     0.002 A 
HETATM   19  C   UNL     1       7.892  22.437  52.917  1.00  0.00     0.032 A 
BRANCH  15  20
HETATM   20  O   UNL     1       8.116  22.465  56.554  1.00  0.00    -0.354 OA
HETATM   21  C   UNL     1       8.389  21.555  57.614  1.00  0.00     0.210 C 
ENDBRANCH  15  20
ENDBRANCH  11  14
ENDBRANCH   6  10
BRANCH   5  22
HETATM   22  C   UNL     1       6.497  27.835  53.078  1.00  0.00    -0.031 A 
HETATM   23  C   UNL     1       6.345  27.343  51.772  1.00  0.00     0.010 A 
HETATM   24  C   UNL     1       5.222  27.679  51.010  1.00  0.00     0.018 A 
HETATM   25  C   UNL     1       4.230  28.510  51.541  1.00  0.00     0.039 A 
HETATM   26  C   UNL     1       4.389  29.033  52.829  1.00  0.00     0.018 A 
HETATM   27  C   UNL     1       5.515  28.702  53.589  1.00  0.00     0.010 A 
BRANCH  25  28
HETATM   28  C   UNL     1       3.026  28.784  50.710  1.00  0.00     0.292 C 
HETATM   29  O   UNL     1       2.151  29.574  51.028  1.00  0.00    -0.259 OA
BRANCH  28  30
HETATM   30  O   UNL     1       3.071  28.071  49.557  1.00  0.00    -0.323 OA
HETATM   31  C   UNL     1       1.831  28.042  48.847  1.00  0.00     0.213 C 
ENDBRANCH  28  30
ENDBRANCH  25  28
ENDBRANCH   5  22
BRANCH   1  32
HETATM   32  C   UNL     1       7.852  28.697  58.017  1.00  0.00     0.133 C 
BRANCH  32  33
HETATM   33  C   UNL     1       6.900  29.879  58.224  1.00  0.00     0.020 C 
BRANCH  33  34
HETATM   34  C   UNL     1       7.543  30.964  59.088  1.00  0.00    -0.003 C 
HETATM   35  C   UNL     1       8.844  30.484  59.710  1.00  0.00     0.005 C 
ENDBRANCH  33  34
ENDBRANCH  32  33
ENDBRANCH   1  32
TORSDOF 9
ENDMDL
MODEL 5
REMARK VINA RESULT:      -7.9      2.342      7.272
REMARK  9 active torsions:
REMARK  status: ('A' for Active; 'I' for Inactive)
REMARK    1  A    between atoms: C_2  and  C_3 
REMARK    2  A    between atoms: C_3  and  C_4 
REMARK    3  A    between atoms: C_4  and  N_5 
REMARK    4  A    between atoms: C_9  and  C_10 
REMARK    5  A    between atoms: C_13  and  C_14 
REMARK    6  A    between atoms: C_14  and  O_15 
REMARK    7  A    between atoms: C_20  and  C_21 
REMARK       I    between atoms: C_21  and  N_22 
REMARK    8  A    between atoms: N_22  and  C_23 
REMARK    9  A    between atoms: C_24  and  O_25 
ROOT
HETATM    1  N   UNL     1       6.073  27.462  56.055  1.00  0.00    -0.303 N 
HETATM    2  C   UNL     1       5.308  26.395  56.525  1.00  0.00     0.323 C 
HETATM    3  O   UNL     1       4.926  26.272  57.688  1.00  0.00    -0.247 OA
HETATM    4  N   UNL     1       4.937  25.459  55.615  1.00  0.00    -0.330 N 
HETATM    5  C   UNL     1       5.501  25.314  54.296  1.00  0.00     0.160 C 
HETATM    6  C   UNL     1       6.112  26.604  53.849  1.00  0.00     0.059 C 
HETATM    7  C   UNL     1       6.426  27.602  54.703  1.00  0.00     0.026 C 
HETATM    8  C   UNL     1       7.176  28.841  54.272  1.00  0.00     0.069 C 
HETATM    9  H   UNL     1       4.442  24.674  56.014  1.00  0.00     0.165 HD
ENDROOT
BRANCH   6  10
HETATM   10  C   UNL     1       6.360  26.682  52.382  1.00  0.00     0.256 C 
HETATM   11  N   UNL     1       5.270  27.150  51.687  1.00  0.00    -0.321 N 
HETATM   12  H   UNL     1       4.446  27.439  52.208  1.00  0.00     0.169 HD
HETATM   13  O   UNL     1       7.431  26.315  51.920  1.00  0.00    -0.267 OA
BRANCH  11  14
HETATM   14  C   UNL     1       5.145  27.332  50.291  1.00  0.00     0.068 A 
HETATM   15  C   UNL     1       5.433  28.617  49.785  1.00  0.00     0.095 A 
HETATM   16  C   UNL     1       5.317  28.866  48.413  1.00  0.00     0.039 A 
HETATM   17  C   UNL     1       4.925  27.844  47.546  1.00  0.00     0.003 A 
HETATM   18  C   UNL     1       4.649  26.574  48.045  1.00  0.00     0.002 A 
HETATM   19  C   UNL     1       4.757  26.317  49.412  1.00  0.00     0.032 A 
BRANCH  15  20
HETATM   20  O   UNL     1       5.818  29.548  50.723  1.00  0.00    -0.354 OA
HETATM   21  C   UNL     1       5.719  30.917  50.345  1.00  0.00     0.210 C 
ENDBRANCH  15  20
ENDBRANCH  11  14
ENDBRANCH   6  10
BRANCH   5  22
HETATM   22  C   UNL     1       6.451  24.125  54.254  1.00  0.00    -0.031 A 
HETATM   23  C   UNL     1       7.080  23.692  55.432  1.00  0.00     0.010 A 
HETATM   24  C   UNL     1       7.892  22.554  55.430  1.00  0.00     0.018 A 
HETATM   25  C   UNL     1       8.088  21.827  54.250  1.00  0.00     0.039 A 
HETATM   26  C   UNL     1       7.493  22.271  53.064  1.00  0.00     0.018 A 
HETATM   27  C   UNL     1       6.686  23.413  53.065  1.00  0.00     0.010 A 
BRANCH  25  28
HETATM   28  C   UNL     1       8.909  20.588  54.318  1.00  0.00     0.292 C 
HETATM   29  O   UNL     1       8.891  19.718  53.461  1.00  0.00    -0.259 OA
BRANCH  28  30
HETATM   30  O   UNL     1       9.691  20.595  55.426  1.00  0.00    -0.323 OA
HETATM   31  C   UNL     1       9.063  20.035  56.580  1.00  0.00     0.213 C 
ENDBRANCH  28  30
ENDBRANCH  25  28
ENDBRANCH   5  22
BRANCH   1  32
HETATM   32  C   UNL     1       6.380  28.505  57.044  1.00  0.00     0.133 C 
BRANCH  32  33
HETATM   33  C   UNL     1       7.661  28.197  57.827  1.00  0.00     0.020 C 
BRANCH  33  34
HETATM   34  C   UNL     1       8.599  29.402  57.852  1.00  0.00    -0.003 C 
HETATM   35  C   UNL     1       9.805  29.190  56.950  1.00  0.00     0.005 C 
ENDBRANCH  33  34
ENDBRANCH  32  33
ENDBRANCH   1  32
TORSDOF 9
ENDMDL
MODEL 6
REMARK VINA RESULT:      -7.8      3.210      6.939
REMARK  9 active torsions:
REMARK  status: ('A' for Active; 'I' for Inactive)
REMARK    1  A    between atoms: C_2  and  C_3 
REMARK    2  A    between atoms: C_3  and  C_4 
REMARK    3  A    between atoms: C_4  and  N_5 
REMARK    4  A    between atoms: C_9  and  C_10 
REMARK    5  A    between atoms: C_13  and  C_14 
REMARK    6  A    between atoms: C_14  and  O_15 
REMARK    7  A    between atoms: C_20  and  C_21 
REMARK       I    between atoms: C_21  and  N_22 
REMARK    8  A    between atoms: N_22  and  C_23 
REMARK    9  A    between atoms: C_24  and  O_25 
ROOT
HETATM    1  N   UNL     1       3.039  27.375  48.899  1.00  0.00    -0.303 N 
HETATM    2  C   UNL     1       4.226  26.798  48.449  1.00  0.00     0.323 C 
HETATM    3  O   UNL     1       4.311  26.048  47.478  1.00  0.00    -0.247 OA
HETATM    4  N   UNL     1       5.360  27.129  49.118  1.00  0.00    -0.330 N 
HETATM    5  C   UNL     1       5.405  27.772  50.407  1.00  0.00     0.160 C 
HETATM    6  C   UNL     1       4.132  28.517  50.660  1.00  0.00     0.059 C 
HETATM    7  C   UNL     1       2.996  28.284  49.968  1.00  0.00     0.026 C 
HETATM    8  C   UNL     1       1.676  28.930  50.320  1.00  0.00     0.069 C 
HETATM    9  H   UNL     1       6.182  26.636  48.798  1.00  0.00     0.165 HD
ENDROOT
BRANCH   6  10
HETATM   10  C   UNL     1       4.225  29.523  51.755  1.00  0.00     0.256 C 
HETATM   11  N   UNL     1       3.756  29.042  52.954  1.00  0.00    -0.321 N 
HETATM   12  H   UNL     1       3.450  28.074  53.005  1.00  0.00     0.169 HD
HETATM   13  O   UNL     1       4.649  30.646  51.523  1.00  0.00    -0.267 OA
BRANCH  11  14
HETATM   14  C   UNL     1       3.676  29.723  54.190  1.00  0.00     0.068 A 
HETATM   15  C   UNL     1       4.186  29.055  55.323  1.00  0.00     0.095 A 
HETATM   16  C   UNL     1       4.127  29.670  56.578  1.00  0.00     0.039 A 
HETATM   17  C   UNL     1       3.571  30.945  56.708  1.00  0.00     0.003 A 
HETATM   18  C   UNL     1       3.075  31.607  55.588  1.00  0.00     0.002 A 
HETATM   19  C   UNL     1       3.126  31.000  54.333  1.00  0.00     0.032 A 
BRANCH  15  20
HETATM   20  O   UNL     1       4.719  27.808  55.083  1.00  0.00    -0.354 OA
HETATM   21  C   UNL     1       5.212  27.095  56.211  1.00  0.00     0.210 C 
ENDBRANCH  15  20
ENDBRANCH  11  14
ENDBRANCH   6  10
BRANCH   5  22
HETATM   22  C   UNL     1       5.764  26.764  51.490  1.00  0.00    -0.031 A 
HETATM   23  C   UNL     1       5.000  25.595  51.637  1.00  0.00     0.010 A 
HETATM   24  C   UNL     1       5.362  24.620  52.571  1.00  0.00     0.018 A 
HETATM   25  C   UNL     1       6.495  24.795  53.373  1.00  0.00     0.039 A 
HETATM   26  C   UNL     1       7.242  25.972  53.258  1.00  0.00     0.018 A 
HETATM   27  C   UNL     1       6.877  26.950  52.328  1.00  0.00     0.010 A 
BRANCH  25  28
HETATM   28  C   UNL     1       6.870  23.696  54.305  1.00  0.00     0.292 C 
HETATM   29  O   UNL     1       6.799  23.788  55.520  1.00  0.00    -0.259 OA
BRANCH  28  30
HETATM   30  O   UNL     1       7.251  22.593  53.613  1.00  0.00    -0.323 OA
HETATM   31  C   UNL     1       8.662  22.374  53.608  1.00  0.00     0.213 C 
ENDBRANCH  28  30
ENDBRANCH  25  28
ENDBRANCH   5  22
BRANCH   1  32
HETATM   32  C   UNL     1       1.844  27.071  48.097  1.00  0.00     0.133 C 
BRANCH  32  33
HETATM   33  C   UNL     1       1.693  28.023  46.907  1.00  0.00     0.020 C 
BRANCH  33  34
HETATM   34  C   UNL     1       0.224  28.343  46.635  1.00  0.00    -0.003 C 
HETATM   35  C   UNL     1      -0.330  27.499  45.498  1.00  0.00     0.005 C 
ENDBRANCH  33  34
ENDBRANCH  32  33
ENDBRANCH   1  32
TORSDOF 9
ENDMDL
MODEL 7
REMARK VINA RESULT:      -7.7      3.106      7.069
REMARK  9 active torsions:
REMARK  status: ('A' for Active; 'I' for Inactive)
REMARK    1  A    between atoms: C_2  and  C_3 
REMARK    2  A    between atoms: C_3  and  C_4 
REMARK    3  A    between atoms: C_4  and  N_5 
REMARK    4  A    between atoms: C_9  and  C_10 
REMARK    5  A    between atoms: C_13  and  C_14 
REMARK    6  A    between atoms: C_14  and  O_15 
REMARK    7  A    between atoms: C_20  and  C_21 
REMARK       I    between atoms: C_21  and  N_22 
REMARK    8  A    between atoms: N_22  and  C_23 
REMARK    9  A    between atoms: C_24  and  O_25 
ROOT
HETATM    1  N   UNL     1       4.281  30.155  53.541  1.00  0.00    -0.303 N 
HETATM    2  C   UNL     1       4.764  30.701  52.352  1.00  0.00     0.323 C 
HETATM    3  O   UNL     1       4.670  31.888  52.044  1.00  0.00    -0.247 OA
HETATM    4  N   UNL     1       5.412  29.858  51.509  1.00  0.00    -0.330 N 
HETATM    5  C   UNL     1       5.385  28.419  51.591  1.00  0.00     0.160 C 
HETATM    6  C   UNL     1       5.046  27.985  52.983  1.00  0.00     0.059 C 
HETATM    7  C   UNL     1       4.475  28.807  53.888  1.00  0.00     0.026 C 
HETATM    8  C   UNL     1       3.999  28.330  55.240  1.00  0.00     0.069 C 
HETATM    9  H   UNL     1       5.684  30.284  50.634  1.00  0.00     0.165 HD
ENDROOT
BRANCH   6  10
HETATM   10  C   UNL     1       5.378  26.562  53.272  1.00  0.00     0.256 C 
HETATM   11  N   UNL     1       6.713  26.376  53.543  1.00  0.00    -0.321 N 
HETATM   12  H   UNL     1       7.322  27.189  53.574  1.00  0.00     0.169 HD
HETATM   13  O   UNL     1       4.507  25.706  53.218  1.00  0.00    -0.267 OA
BRANCH  11  14
HETATM   14  C   UNL     1       7.376  25.164  53.838  1.00  0.00     0.068 A 
HETATM   15  C   UNL     1       7.739  24.945  55.184  1.00  0.00     0.095 A 
HETATM   16  C   UNL     1       8.409  23.770  55.541  1.00  0.00     0.039 A 
HETATM   17  C   UNL     1       8.710  22.813  54.569  1.00  0.00     0.003 A 
HETATM   18  C   UNL     1       8.345  23.025  53.243  1.00  0.00     0.002 A 
HETATM   19  C   UNL     1       7.680  24.196  52.878  1.00  0.00     0.032 A 
BRANCH  15  20
HETATM   20  O   UNL     1       7.388  25.946  56.061  1.00  0.00    -0.354 OA
HETATM   21  C   UNL     1       6.443  25.611  57.070  1.00  0.00     0.210 C 
ENDBRANCH  15  20
ENDBRANCH  11  14
ENDBRANCH   6  10
BRANCH   5  22
HETATM   22  C   UNL     1       4.472  27.844  50.518  1.00  0.00    -0.031 A 
HETATM   23  C   UNL     1       3.301  28.530  50.156  1.00  0.00     0.010 A 
HETATM   24  C   UNL     1       2.492  28.061  49.117  1.00  0.00     0.018 A 
HETATM   25  C   UNL     1       2.840  26.898  48.420  1.00  0.00     0.039 A 
HETATM   26  C   UNL     1       3.986  26.189  48.796  1.00  0.00     0.018 A 
HETATM   27  C   UNL     1       4.792  26.655  49.839  1.00  0.00     0.010 A 
BRANCH  25  28
HETATM   28  C   UNL     1       1.977  26.479  47.281  1.00  0.00     0.292 C 
HETATM   29  O   UNL     1       2.358  25.752  46.377  1.00  0.00    -0.259 OA
BRANCH  28  30
HETATM   30  O   UNL     1       0.725  26.982  47.422  1.00  0.00    -0.323 OA
HETATM   31  C   UNL     1       0.153  27.457  46.202  1.00  0.00     0.213 C 
ENDBRANCH  28  30
ENDBRANCH  25  28
ENDBRANCH   5  22
BRANCH   1  32
HETATM   32  C   UNL     1       3.667  31.110  54.474  1.00  0.00     0.133 C 
BRANCH  32  33
HETATM   33  C   UNL     1       4.717  31.898  55.264  1.00  0.00     0.020 C 
BRANCH  33  34
HETATM   34  C   UNL     1       4.597  31.634  56.764  1.00  0.00    -0.003 C 
HETATM   35  C   UNL     1       5.819  30.904  57.301  1.00  0.00     0.005 C 
ENDBRANCH  33  34
ENDBRANCH  32  33
ENDBRANCH   1  32
TORSDOF 9
ENDMDL
MODEL 8
REMARK VINA RESULT:      -7.7      3.112      4.086
REMARK  9 active torsions:
REMARK  status: ('A' for Active; 'I' for Inactive)
REMARK    1  A    between atoms: C_2  and  C_3 
REMARK    2  A    between atoms: C_3  and  C_4 
REMARK    3  A    between atoms: C_4  and  N_5 
REMARK    4  A    between atoms: C_9  and  C_10 
REMARK    5  A    between atoms: C_13  and  C_14 
REMARK    6  A    between atoms: C_14  and  O_15 
REMARK    7  A    between atoms: C_20  and  C_21 
REMARK       I    between atoms: C_21  and  N_22 
REMARK    8  A    between atoms: N_22  and  C_23 
REMARK    9  A    between atoms: C_24  and  O_25 
ROOT
HETATM    1  N   UNL     1       3.461  29.041  50.165  1.00  0.00    -0.303 N 
HETATM    2  C   UNL     1       2.286  29.127  50.912  1.00  0.00     0.323 C 
HETATM    3  O   UNL     1       1.229  29.595  50.493  1.00  0.00    -0.247 OA
HETATM    4  N   UNL     1       2.322  28.619  52.170  1.00  0.00    -0.330 N 
HETATM    5  C   UNL     1       3.520  28.278  52.894  1.00  0.00     0.160 C 
HETATM    6  C   UNL     1       4.645  28.020  51.942  1.00  0.00     0.059 C 
HETATM    7  C   UNL     1       4.627  28.432  50.656  1.00  0.00     0.026 C 
HETATM    8  C   UNL     1       5.820  28.302  49.739  1.00  0.00     0.069 C 
HETATM    9  H   UNL     1       1.469  28.764  52.693  1.00  0.00     0.165 HD
ENDROOT
BRANCH   6  10
HETATM   10  C   UNL     1       5.793  27.286  52.544  1.00  0.00     0.256 C 
HETATM   11  N   UNL     1       5.567  25.933  52.633  1.00  0.00    -0.321 N 
HETATM   12  H   UNL     1       4.702  25.558  52.252  1.00  0.00     0.169 HD
HETATM   13  O   UNL     1       6.780  27.898  52.927  1.00  0.00    -0.267 OA
BRANCH  11  14
HETATM   14  C   UNL     1       6.424  24.943  53.165  1.00  0.00     0.068 A 
HETATM   15  C   UNL     1       6.278  24.640  54.535  1.00  0.00     0.095 A 
HETATM   16  C   UNL     1       7.104  23.678  55.126  1.00  0.00     0.039 A 
HETATM   17  C   UNL     1       8.064  23.014  54.360  1.00  0.00     0.003 A 
HETATM   18  C   UNL     1       8.203  23.307  53.007  1.00  0.00     0.002 A 
HETATM   19  C   UNL     1       7.386  24.269  52.410  1.00  0.00     0.032 A 
BRANCH  15  20
HETATM   20  O   UNL     1       5.297  25.346  55.195  1.00  0.00    -0.354 OA
HETATM   21  C   UNL     1       5.572  25.721  56.540  1.00  0.00     0.210 C 
ENDBRANCH  15  20
ENDBRANCH  11  14
ENDBRANCH   6  10
BRANCH   5  22
HETATM   22  C   UNL     1       3.823  29.335  53.947  1.00  0.00    -0.031 A 
HETATM   23  C   UNL     1       3.836  30.693  53.589  1.00  0.00     0.010 A 
HETATM   24  C   UNL     1       4.031  31.683  54.556  1.00  0.00     0.018 A 
HETATM   25  C   UNL     1       4.215  31.334  55.899  1.00  0.00     0.039 A 
HETATM   26  C   UNL     1       4.237  29.983  56.260  1.00  0.00     0.018 A 
HETATM   27  C   UNL     1       4.048  28.992  55.291  1.00  0.00     0.010 A 
BRANCH  25  28
HETATM   28  C   UNL     1       4.354  32.431  56.895  1.00  0.00     0.292 C 
HETATM   29  O   UNL     1       5.279  33.228  56.898  1.00  0.00    -0.259 OA
BRANCH  28  30
HETATM   30  O   UNL     1       3.301  32.434  57.751  1.00  0.00    -0.323 OA
HETATM   31  C   UNL     1       3.674  32.362  59.127  1.00  0.00     0.213 C 
ENDBRANCH  28  30
ENDBRANCH  25  28
ENDBRANCH   5  22
BRANCH   1  32
HETATM   32  C   UNL     1       3.365  29.515  48.777  1.00  0.00     0.133 C 
BRANCH  32  33
HETATM   33  C   UNL     1       3.133  28.364  47.792  1.00  0.00     0.020 C 
BRANCH  33  34
HETATM   34  C   UNL     1       1.723  28.413  47.204  1.00  0.00    -0.003 C 
HETATM   35  C   UNL     1       0.873  27.251  47.695  1.00  0.00     0.005 C 
ENDBRANCH  33  34
ENDBRANCH  32  33
ENDBRANCH   1  32
TORSDOF 9
ENDMDL
MODEL 9
REMARK VINA RESULT:      -7.4      2.910      6.903
REMARK  9 active torsions:
REMARK  status: ('A' for Active; 'I' for Inactive)
REMARK    1  A    between atoms: C_2  and  C_3 
REMARK    2  A    between atoms: C_3  and  C_4 
REMARK    3  A    between atoms: C_4  and  N_5 
REMARK    4  A    between atoms: C_9  and  C_10 
REMARK    5  A    between atoms: C_13  and  C_14 
REMARK    6  A    between atoms: C_14  and  O_15 
REMARK    7  A    between atoms: C_20  and  C_21 
REMARK       I    between atoms: C_21  and  N_22 
REMARK    8  A    between atoms: N_22  and  C_23 
REMARK    9  A    between atoms: C_24  and  O_25 
ROOT
HETATM    1  N   UNL     1       6.636  25.179  54.774  1.00  0.00    -0.303 N 
HETATM    2  C   UNL     1       7.583  25.886  55.515  1.00  0.00     0.323 C 
HETATM    3  O   UNL     1       8.367  25.374  56.312  1.00  0.00    -0.247 OA
HETATM    4  N   UNL     1       7.652  27.225  55.301  1.00  0.00    -0.330 N 
HETATM    5  C   UNL     1       6.658  28.008  54.612  1.00  0.00     0.160 C 
HETATM    6  C   UNL     1       5.850  27.137  53.702  1.00  0.00     0.059 C 
HETATM    7  C   UNL     1       5.809  25.793  53.820  1.00  0.00     0.026 C 
HETATM    8  C   UNL     1       4.882  24.927  52.998  1.00  0.00     0.069 C 
HETATM    9  H   UNL     1       8.304  27.702  55.908  1.00  0.00     0.165 HD
ENDROOT
BRANCH   6  10
HETATM   10  C   UNL     1       5.082  27.886  52.669  1.00  0.00     0.256 C 
HETATM   11  N   UNL     1       5.855  28.233  51.586  1.00  0.00    -0.321 N 
HETATM   12  H   UNL     1       6.822  27.921  51.556  1.00  0.00     0.169 HD
HETATM   13  O   UNL     1       3.905  28.156  52.855  1.00  0.00    -0.267 OA
BRANCH  11  14
HETATM   14  C   UNL     1       5.463  28.959  50.438  1.00  0.00     0.068 A 
HETATM   15  C   UNL     1       4.968  28.214  49.347  1.00  0.00     0.095 A 
HETATM   16  C   UNL     1       4.574  28.872  48.178  1.00  0.00     0.039 A 
HETATM   17  C   UNL     1       4.663  30.263  48.092  1.00  0.00     0.003 A 
HETATM   18  C   UNL     1       5.144  30.999  49.171  1.00  0.00     0.002 A 
HETATM   19  C   UNL     1       5.543  30.351  50.341  1.00  0.00     0.032 A 
BRANCH  15  20
HETATM   20  O   UNL     1       4.914  26.851  49.539  1.00  0.00    -0.354 OA
HETATM   21  C   UNL     1       3.930  26.139  48.798  1.00  0.00     0.210 C 
ENDBRANCH  15  20
ENDBRANCH  11  14
ENDBRANCH   6  10
BRANCH   5  22
HETATM   22  C   UNL     1       5.829  28.807  55.608  1.00  0.00    -0.031 A 
HETATM   23  C   UNL     1       6.287  30.057  56.055  1.00  0.00     0.010 A 
HETATM   24  C   UNL     1       5.503  30.843  56.904  1.00  0.00     0.018 A 
HETATM   25  C   UNL     1       4.246  30.394  57.322  1.00  0.00     0.039 A 
HETATM   26  C   UNL     1       3.794  29.135  56.911  1.00  0.00     0.018 A 
HETATM   27  C   UNL     1       4.581  28.347  56.065  1.00  0.00     0.010 A 
BRANCH  25  28
HETATM   28  C   UNL     1       3.426  31.297  58.175  1.00  0.00     0.292 C 
HETATM   29  O   UNL     1       3.049  31.007  59.300  1.00  0.00    -0.259 OA
BRANCH  28  30
HETATM   30  O   UNL     1       3.205  32.478  57.544  1.00  0.00    -0.323 OA
HETATM   31  C   UNL     1       3.525  33.623  58.335  1.00  0.00     0.213 C 
ENDBRANCH  28  30
ENDBRANCH  25  28
ENDBRANCH   5  22
BRANCH   1  32
HETATM   32  C   UNL     1       6.649  23.721  54.960  1.00  0.00     0.133 C 
BRANCH  32  33
HETATM   33  C   UNL     1       7.908  23.076  54.372  1.00  0.00     0.020 C 
BRANCH  33  34
HETATM   34  C   UNL     1       7.603  22.364  53.055  1.00  0.00    -0.003 C 
HETATM   35  C   UNL     1       7.971  20.890  53.120  1.00  0.00     0.005 C 
ENDBRANCH  33  34
ENDBRANCH  32  33
ENDBRANCH   1  32
TORSDOF 9
ENDMDL
MODEL 10
REMARK VINA RESULT:      -7.3      2.918      6.742
REMARK  9 active torsions:
REMARK  status: ('A' for Active; 'I' for Inactive)
REMARK    1  A    between atoms: C_2  and  C_3 
REMARK    2  A    between atoms: C_3  and  C_4 
REMARK    3  A    between atoms: C_4  and  N_5 
REMARK    4  A    between atoms: C_9  and  C_10 
REMARK    5  A    between atoms: C_13  and  C_14 
REMARK    6  A    between atoms: C_14  and  O_15 
REMARK    7  A    between atoms: C_20  and  C_21 
REMARK       I    between atoms: C_21  and  N_22 
REMARK    8  A    between atoms: N_22  and  C_23 
REMARK    9  A    between atoms: C_24  and  O_25 
ROOT
HETATM    1  N   UNL     1       7.382  25.006  56.250  1.00  0.00    -0.303 N 
HETATM    2  C   UNL     1       8.091  25.763  57.182  1.00  0.00     0.323 C 
HETATM    3  O   UNL     1       8.589  25.310  58.211  1.00  0.00    -0.247 OA
HETATM    4  N   UNL     1       8.265  27.079  56.898  1.00  0.00    -0.330 N 
HETATM    5  C   UNL     1       7.544  27.813  55.889  1.00  0.00     0.160 C 
HETATM    6  C   UNL     1       7.011  26.878  54.849  1.00  0.00     0.059 C 
HETATM    7  C   UNL     1       6.892  25.548  55.050  1.00  0.00     0.026 C 
HETATM    8  C   UNL     1       6.220  24.627  54.059  1.00  0.00     0.069 C 
HETATM    9  H   UNL     1       8.726  27.598  57.632  1.00  0.00     0.165 HD
ENDROOT
BRANCH   6  10
HETATM   10  C   UNL     1       6.606  27.547  53.581  1.00  0.00     0.256 C 
HETATM   11  N   UNL     1       5.318  27.240  53.210  1.00  0.00    -0.321 N 
HETATM   12  H   UNL     1       4.760  26.654  53.826  1.00  0.00     0.169 HD
HETATM   13  O   UNL     1       7.403  28.250  52.977  1.00  0.00    -0.267 OA
BRANCH  11  14
HETATM   14  C   UNL     1       4.619  27.678  52.063  1.00  0.00     0.068 A 
HETATM   15  C   UNL     1       3.655  28.692  52.249  1.00  0.00     0.095 A 
HETATM   16  C   UNL     1       2.920  29.161  51.156  1.00  0.00     0.039 A 
HETATM   17  C   UNL     1       3.144  28.634  49.882  1.00  0.00     0.003 A 
HETATM   18  C   UNL     1       4.100  27.639  49.697  1.00  0.00     0.002 A 
HETATM   19  C   UNL     1       4.835  27.161  50.783  1.00  0.00     0.032 A 
BRANCH  15  20
HETATM   20  O   UNL     1       3.520  29.147  53.542  1.00  0.00    -0.354 OA
HETATM   21  C   UNL     1       3.846  30.512  53.777  1.00  0.00     0.210 C 
ENDBRANCH  15  20
ENDBRANCH  11  14
ENDBRANCH   6  10
BRANCH   5  22
HETATM   22  C   UNL     1       6.485  28.699  56.532  1.00  0.00    -0.031 A 
HETATM   23  C   UNL     1       6.820  29.998  56.945  1.00  0.00     0.010 A 
HETATM   24  C   UNL     1       5.844  30.855  57.462  1.00  0.00     0.018 A 
HETATM   25  C   UNL     1       4.516  30.429  57.574  1.00  0.00     0.039 A 
HETATM   26  C   UNL     1       4.179  29.124  57.198  1.00  0.00     0.018 A 
HETATM   27  C   UNL     1       5.157  28.265  56.686  1.00  0.00     0.010 A 
BRANCH  25  28
HETATM   28  C   UNL     1       3.506  31.403  58.072  1.00  0.00     0.292 C 
HETATM   29  O   UNL     1       3.088  32.340  57.409  1.00  0.00    -0.259 OA
BRANCH  28  30
HETATM   30  O   UNL     1       3.102  31.073  59.324  1.00  0.00    -0.323 OA
HETATM   31  C   UNL     1       3.468  32.030  60.319  1.00  0.00     0.213 C 
ENDBRANCH  28  30
ENDBRANCH  25  28
ENDBRANCH   5  22
BRANCH   1  32
HETATM   32  C   UNL     1       7.291  23.568  56.540  1.00  0.00     0.133 C 
BRANCH  32  33
HETATM   33  C   UNL     1       8.494  22.793  55.993  1.00  0.00     0.020 C 
BRANCH  33  34
HETATM   34  C   UNL     1       8.048  21.585  55.171  1.00  0.00    -0.003 C 
HETATM   35  C   UNL     1       8.003  20.321  56.017  1.00  0.00     0.005 C 
ENDBRANCH  33  34
ENDBRANCH  32  33
ENDBRANCH   1  32
TORSDOF 9
ENDMDL
