MODEL 1
REMARK VINA RESULT:      -8.3      0.000      0.000
REMARK  7 active torsions:
REMARK  status: ('A' for Active; 'I' for Inactive)
REMARK    1  A    between atoms: O_2  and  C_3 
REMARK    2  A    between atoms: C_4  and  O_5 
REMARK    3  A    between atoms: C_9  and  C_10 
REMARK    4  A    between atoms: C_10  and  N_11 
REMARK    5  A    between atoms: C_14  and  C_15 
REMARK    6  A    between atoms: C_15  and  N_16 
REMARK    7  A    between atoms: N_16  and  C_17 
ROOT
HETATM    1  N   UNL     1       6.851  26.964  55.504  1.00  0.00    -0.067 N 
HETATM    2  H   UNL     1       7.472  26.843  54.687  1.00  0.00     0.280 HD
HETATM    3  C   UNL     1       7.723  27.265  56.704  1.00  0.00     0.241 C 
HETATM    4  C   UNL     1       7.061  28.477  57.355  1.00  0.00     0.031 C 
HETATM    5  C   UNL     1       6.584  29.262  56.139  1.00  0.00     0.035 C 
HETATM    6  C   UNL     1       5.994  28.186  55.239  1.00  0.00     0.235 C 
ENDROOT
BRANCH   1   7
HETATM    7  C   UNL     1       6.054  25.679  55.579  1.00  0.00     0.274 C 
BRANCH   7   8
HETATM    8  C   UNL     1       6.749  24.503  54.940  1.00  0.00    -0.012 A 
HETATM    9  C   UNL     1       6.624  24.211  53.568  1.00  0.00     0.021 A 
HETATM   10  C   UNL     1       7.307  23.135  53.006  1.00  0.00     0.059 A 
HETATM   11 BR   UNL     1       5.554  25.271  52.411  1.00  0.00    -0.050 Br
HETATM   12  C   UNL     1       8.123  22.351  53.811  1.00  0.00     0.100 A 
HETATM   13  C   UNL     1       8.272  22.606  55.176  1.00  0.00     0.101 A 
HETATM   14  C   UNL     1       7.574  23.676  55.737  1.00  0.00     0.049 A 
BRANCH  12  15
HETATM   15  O   UNL     1       8.789  21.316  53.222  1.00  0.00    -0.358 OA
HETATM   16  H   UNL     1       9.657  21.250  53.668  1.00  0.00     0.218 HD
ENDBRANCH  12  15
BRANCH  13  17
HETATM   17  O   UNL     1       9.121  21.759  55.832  1.00  0.00    -0.353 OA
HETATM   18  C   UNL     1       8.546  20.764  56.671  1.00  0.00     0.210 C 
ENDBRANCH  13  17
ENDBRANCH   7   8
ENDBRANCH   1   7
BRANCH   4  19
HETATM   19  C   UNL     1       8.027  29.230  58.276  1.00  0.00     0.127 C 
BRANCH  19  20
HETATM   20  N   UNL     1       7.375  30.389  58.891  1.00  0.00    -0.376 N 
HETATM   21  H   UNL     1       6.385  30.500  58.702  1.00  0.00     0.161 HD
BRANCH  20  22
HETATM   22  C   UNL     1       7.873  30.934  60.064  1.00  0.00     0.100 A 
HETATM   23  N   UNL     1       7.020  31.133  61.086  1.00  0.00    -0.353 N 
HETATM   24  H   UNL     1       6.044  30.888  60.950  1.00  0.00     0.166 HD
HETATM   25  C   UNL     1       7.378  31.656  62.269  1.00  0.00     0.089 A 
HETATM   26  C   UNL     1       8.691  32.036  62.494  1.00  0.00     0.017 A 
HETATM   27  C   UNL     1       9.613  31.876  61.470  1.00  0.00     0.005 A 
HETATM   28  C   UNL     1       9.204  31.333  60.252  1.00  0.00     0.048 A 
ENDBRANCH  20  22
ENDBRANCH  19  20
ENDBRANCH   4  19
TORSDOF 7
ENDMDL
MODEL 2
REMARK VINA RESULT:      -8.2      4.386      9.265
REMARK  7 active torsions:
REMARK  status: ('A' for Active; 'I' for Inactive)
REMARK    1  A    between atoms: O_2  and  C_3 
REMARK    2  A    between atoms: C_4  and  O_5 
REMARK    3  A    between atoms: C_9  and  C_10 
REMARK    4  A    between atoms: C_10  and  N_11 
REMARK    5  A    between atoms: C_14  and  C_15 
REMARK    6  A    between atoms: C_15  and  N_16 
REMARK    7  A    between atoms: N_16  and  C_17 
ROOT
HETATM    1  N   UNL     1       6.843  27.714  56.994  1.00  0.00    -0.067 N 
HETATM    2  H   UNL     1       6.330  28.023  57.835  1.00  0.00     0.280 HD
HETATM    3  C   UNL     1       7.820  26.638  57.420  1.00  0.00     0.241 C 
HETATM    4  C   UNL     1       7.608  25.515  56.408  1.00  0.00     0.031 C 
HETATM    5  C   UNL     1       6.102  25.582  56.179  1.00  0.00     0.035 C 
HETATM    6  C   UNL     1       5.834  27.075  56.060  1.00  0.00     0.235 C 
ENDROOT
BRANCH   1   7
HETATM    7  C   UNL     1       7.463  28.976  56.432  1.00  0.00     0.274 C 
BRANCH   7   8
HETATM    8  C   UNL     1       7.888  29.959  57.493  1.00  0.00    -0.012 A 
HETATM    9  C   UNL     1       9.242  30.260  57.739  1.00  0.00     0.021 A 
HETATM   10  C   UNL     1       9.596  31.199  58.706  1.00  0.00     0.059 A 
HETATM   11 BR   UNL     1      10.646  29.439  56.759  1.00  0.00    -0.050 Br
HETATM   12  C   UNL     1       8.599  31.844  59.425  1.00  0.00     0.100 A 
HETATM   13  C   UNL     1       7.246  31.572  59.213  1.00  0.00     0.101 A 
HETATM   14  C   UNL     1       6.896  30.620  58.254  1.00  0.00     0.049 A 
BRANCH  12  15
HETATM   15  O   UNL     1       8.983  32.770  60.352  1.00  0.00    -0.358 OA
HETATM   16  H   UNL     1       9.492  32.288  61.034  1.00  0.00     0.218 HD
ENDBRANCH  12  15
BRANCH  13  17
HETATM   17  O   UNL     1       6.382  32.298  59.985  1.00  0.00    -0.353 OA
HETATM   18  C   UNL     1       5.014  32.331  59.598  1.00  0.00     0.210 C 
ENDBRANCH  13  17
ENDBRANCH   7   8
ENDBRANCH   1   7
BRANCH   4  19
HETATM   19  C   UNL     1       8.126  24.171  56.929  1.00  0.00     0.127 C 
BRANCH  19  20
HETATM   20  N   UNL     1       9.116  23.596  56.016  1.00  0.00    -0.376 N 
HETATM   21  H   UNL     1      10.080  23.604  56.334  1.00  0.00     0.161 HD
BRANCH  20  22
HETATM   22  C   UNL     1       8.747  22.619  55.105  1.00  0.00     0.100 A 
HETATM   23  N   UNL     1       9.014  21.334  55.405  1.00  0.00    -0.353 N 
HETATM   24  H   UNL     1       9.485  21.135  56.282  1.00  0.00     0.166 HD
HETATM   25  C   UNL     1       8.710  20.300  54.605  1.00  0.00     0.089 A 
HETATM   26  C   UNL     1       8.094  20.521  53.385  1.00  0.00     0.017 A 
HETATM   27  C   UNL     1       7.814  21.826  53.009  1.00  0.00     0.005 A 
HETATM   28  C   UNL     1       8.147  22.876  53.864  1.00  0.00     0.048 A 
ENDBRANCH  20  22
ENDBRANCH  19  20
ENDBRANCH   4  19
TORSDOF 7
ENDMDL
MODEL 3
REMARK VINA RESULT:      -8.2      5.374      8.646
REMARK  7 active torsions:
REMARK  status: ('A' for Active; 'I' for Inactive)
REMARK    1  A    between atoms: O_2  and  C_3 
REMARK    2  A    between atoms: C_4  and  O_5 
REMARK    3  A    between atoms: C_9  and  C_10 
REMARK    4  A    between atoms: C_10  and  N_11 
REMARK    5  A    between atoms: C_14  and  C_15 
REMARK    6  A    between atoms: C_15  and  N_16 
REMARK    7  A    between atoms: N_16  and  C_17 
ROOT
HETATM    1  N   UNL     1       6.237  25.586  53.383  1.00  0.00    -0.067 N 
HETATM    2  H   UNL     1       5.865  24.625  53.450  1.00  0.00     0.280 HD
HETATM    3  C   UNL     1       6.356  25.932  51.914  1.00  0.00     0.241 C 
HETATM    4  C   UNL     1       5.709  27.309  51.798  1.00  0.00     0.031 C 
HETATM    5  C   UNL     1       4.561  27.199  52.796  1.00  0.00     0.035 C 
HETATM    6  C   UNL     1       5.205  26.513  53.992  1.00  0.00     0.235 C 
ENDROOT
BRANCH   1   7
HETATM    7  C   UNL     1       7.540  25.551  54.155  1.00  0.00     0.274 C 
BRANCH   7   8
HETATM    8  C   UNL     1       7.790  24.237  54.851  1.00  0.00    -0.012 A 
HETATM    9  C   UNL     1       8.100  24.160  56.223  1.00  0.00     0.021 A 
HETATM   10  C   UNL     1       8.293  22.926  56.839  1.00  0.00     0.059 A 
HETATM   11 BR   UNL     1       8.242  25.713  57.307  1.00  0.00    -0.050 Br
HETATM   12  C   UNL     1       8.169  21.764  56.089  1.00  0.00     0.100 A 
HETATM   13  C   UNL     1       7.866  21.798  54.726  1.00  0.00     0.101 A 
HETATM   14  C   UNL     1       7.689  23.037  54.110  1.00  0.00     0.049 A 
BRANCH  12  15
HETATM   15  O   UNL     1       8.349  20.572  56.730  1.00  0.00    -0.358 OA
HETATM   16  H   UNL     1       7.603  19.998  56.469  1.00  0.00     0.218 HD
ENDBRANCH  12  15
BRANCH  13  17
HETATM   17  O   UNL     1       7.762  20.573  54.127  1.00  0.00    -0.353 OA
HETATM   18  C   UNL     1       8.356  20.410  52.845  1.00  0.00     0.210 C 
ENDBRANCH  13  17
ENDBRANCH   7   8
ENDBRANCH   1   7
BRANCH   4  19
HETATM   19  C   UNL     1       5.289  27.626  50.359  1.00  0.00     0.127 C 
BRANCH  19  20
HETATM   20  N   UNL     1       4.750  26.438  49.692  1.00  0.00    -0.376 N 
HETATM   21  H   UNL     1       4.880  25.555  50.174  1.00  0.00     0.161 HD
BRANCH  20  22
HETATM   22  C   UNL     1       3.675  26.548  48.824  1.00  0.00     0.100 A 
HETATM   23  N   UNL     1       2.674  27.385  49.153  1.00  0.00    -0.353 N 
HETATM   24  H   UNL     1       2.742  27.893  50.028  1.00  0.00     0.166 HD
HETATM   25  C   UNL     1       1.579  27.575  48.399  1.00  0.00     0.089 A 
HETATM   26  C   UNL     1       1.424  26.883  47.210  1.00  0.00     0.017 A 
HETATM   27  C   UNL     1       2.412  25.988  46.829  1.00  0.00     0.005 A 
HETATM   28  C   UNL     1       3.534  25.812  47.638  1.00  0.00     0.048 A 
ENDBRANCH  20  22
ENDBRANCH  19  20
ENDBRANCH   4  19
TORSDOF 7
ENDMDL
MODEL 4
REMARK VINA RESULT:      -8.0      4.072      8.303
REMARK  7 active torsions:
REMARK  status: ('A' for Active; 'I' for Inactive)
REMARK    1  A    between atoms: O_2  and  C_3 
REMARK    2  A    between atoms: C_4  and  O_5 
REMARK    3  A    between atoms: C_9  and  C_10 
REMARK    4  A    between atoms: C_10  and  N_11 
REMARK    5  A    between atoms: C_14  and  C_15 
REMARK    6  A    between atoms: C_15  and  N_16 
REMARK    7  A    between atoms: N_16  and  C_17 
ROOT
HETATM    1  N   UNL     1       6.110  26.888  53.841  1.00  0.00    -0.067 N 
HETATM    2  H   UNL     1       5.478  26.713  54.639  1.00  0.00     0.280 HD
HETATM    3  C   UNL     1       7.230  25.872  53.910  1.00  0.00     0.241 C 
HETATM    4  C   UNL     1       7.319  25.314  52.492  1.00  0.00     0.031 C 
HETATM    5  C   UNL     1       5.853  25.283  52.076  1.00  0.00     0.035 C 
HETATM    6  C   UNL     1       5.321  26.620  52.575  1.00  0.00     0.235 C 
ENDROOT
BRANCH   1   7
HETATM    7  C   UNL     1       6.529  28.336  53.989  1.00  0.00     0.274 C 
BRANCH   7   8
HETATM    8  C   UNL     1       6.964  28.694  55.388  1.00  0.00    -0.012 A 
HETATM    9  C   UNL     1       6.041  28.960  56.418  1.00  0.00     0.021 A 
HETATM   10  C   UNL     1       6.480  29.256  57.706  1.00  0.00     0.059 A 
HETATM   11 BR   UNL     1       4.166  28.901  56.123  1.00  0.00    -0.050 Br
HETATM   12  C   UNL     1       7.843  29.282  57.971  1.00  0.00     0.100 A 
HETATM   13  C   UNL     1       8.790  29.027  56.977  1.00  0.00     0.101 A 
HETATM   14  C   UNL     1       8.346  28.745  55.685  1.00  0.00     0.049 A 
BRANCH  12  15
HETATM   15  O   UNL     1       8.236  29.559  59.249  1.00  0.00    -0.358 OA
HETATM   16  H   UNL     1       9.177  29.303  59.315  1.00  0.00     0.218 HD
ENDBRANCH  12  15
BRANCH  13  17
HETATM   17  O   UNL     1      10.092  29.072  57.394  1.00  0.00    -0.353 OA
HETATM   18  C   UNL     1      10.843  30.242  57.095  1.00  0.00     0.210 C 
ENDBRANCH  13  17
ENDBRANCH   7   8
ENDBRANCH   1   7
BRANCH   4  19
HETATM   19  C   UNL     1       8.033  23.959  52.454  1.00  0.00     0.127 C 
BRANCH  19  20
HETATM   20  N   UNL     1       7.208  22.909  53.056  1.00  0.00    -0.376 N 
HETATM   21  H   UNL     1       6.444  22.557  52.488  1.00  0.00     0.161 HD
BRANCH  20  22
HETATM   22  C   UNL     1       7.738  22.065  54.019  1.00  0.00     0.100 A 
HETATM   23  N   UNL     1       7.784  22.499  55.292  1.00  0.00    -0.353 N 
HETATM   24  H   UNL     1       7.439  23.432  55.492  1.00  0.00     0.166 HD
HETATM   25  C   UNL     1       8.277  21.778  56.311  1.00  0.00     0.089 A 
HETATM   26  C   UNL     1       8.787  20.511  56.085  1.00  0.00     0.017 A 
HETATM   27  C   UNL     1       8.789  20.017  54.789  1.00  0.00     0.005 A 
HETATM   28  C   UNL     1       8.272  20.795  53.753  1.00  0.00     0.048 A 
ENDBRANCH  20  22
ENDBRANCH  19  20
ENDBRANCH   4  19
TORSDOF 7
ENDMDL
MODEL 5
REMARK VINA RESULT:      -7.9      3.931      8.861
REMARK  7 active torsions:
REMARK  status: ('A' for Active; 'I' for Inactive)
REMARK    1  A    between atoms: O_2  and  C_3 
REMARK    2  A    between atoms: C_4  and  O_5 
REMARK    3  A    between atoms: C_9  and  C_10 
REMARK    4  A    between atoms: C_10  and  N_11 
REMARK    5  A    between atoms: C_14  and  C_15 
REMARK    6  A    between atoms: C_15  and  N_16 
REMARK    7  A    between atoms: N_16  and  C_17 
ROOT
HETATM    1  N   UNL     1       6.369  27.305  56.665  1.00  0.00    -0.067 N 
HETATM    2  H   UNL     1       7.106  27.311  57.389  1.00  0.00     0.280 HD
HETATM    3  C   UNL     1       7.021  26.936  55.349  1.00  0.00     0.241 C 
HETATM    4  C   UNL     1       6.117  25.850  54.773  1.00  0.00     0.031 C 
HETATM    5  C   UNL     1       5.706  25.088  56.028  1.00  0.00     0.035 C 
HETATM    6  C   UNL     1       5.397  26.199  57.023  1.00  0.00     0.235 C 
ENDROOT
BRANCH   1   7
HETATM    7  C   UNL     1       5.753  28.686  56.727  1.00  0.00     0.274 C 
BRANCH   7   8
HETATM    8  C   UNL     1       6.621  29.700  57.430  1.00  0.00    -0.012 A 
HETATM    9  C   UNL     1       6.082  30.821  58.091  1.00  0.00     0.021 A 
HETATM   10  C   UNL     1       6.913  31.719  58.758  1.00  0.00     0.059 A 
HETATM   11 BR   UNL     1       4.213  31.155  58.138  1.00  0.00    -0.050 Br
HETATM   12  C   UNL     1       8.284  31.496  58.772  1.00  0.00     0.100 A 
HETATM   13  C   UNL     1       8.856  30.398  58.127  1.00  0.00     0.101 A 
HETATM   14  C   UNL     1       8.022  29.509  57.448  1.00  0.00     0.049 A 
BRANCH  12  15
HETATM   15  O   UNL     1       9.064  32.388  59.449  1.00  0.00    -0.358 OA
HETATM   16  H   UNL     1       9.629  32.828  58.784  1.00  0.00     0.218 HD
ENDBRANCH  12  15
BRANCH  13  17
HETATM   17  O   UNL     1      10.216  30.304  58.243  1.00  0.00    -0.353 OA
HETATM   18  C   UNL     1      10.943  29.797  57.131  1.00  0.00     0.210 C 
ENDBRANCH  13  17
ENDBRANCH   7   8
ENDBRANCH   1   7
BRANCH   4  19
HETATM   19  C   UNL     1       6.836  25.010  53.712  1.00  0.00     0.127 C 
BRANCH  19  20
HETATM   20  N   UNL     1       8.045  24.390  54.258  1.00  0.00    -0.376 N 
HETATM   21  H   UNL     1       8.497  24.883  55.021  1.00  0.00     0.161 HD
BRANCH  20  22
HETATM   22  C   UNL     1       8.227  23.018  54.178  1.00  0.00     0.100 A 
HETATM   23  N   UNL     1       8.860  22.400  55.193  1.00  0.00    -0.353 N 
HETATM   24  H   UNL     1       9.189  22.966  55.968  1.00  0.00     0.166 HD
HETATM   25  C   UNL     1       9.101  21.080  55.230  1.00  0.00     0.089 A 
HETATM   26  C   UNL     1       8.701  20.269  54.182  1.00  0.00     0.017 A 
HETATM   27  C   UNL     1       8.064  20.851  53.098  1.00  0.00     0.005 A 
HETATM   28  C   UNL     1       7.833  22.227  53.090  1.00  0.00     0.048 A 
ENDBRANCH  20  22
ENDBRANCH  19  20
ENDBRANCH   4  19
TORSDOF 7
ENDMDL
MODEL 6
REMARK VINA RESULT:      -7.7      3.086      4.365
REMARK  7 active torsions:
REMARK  status: ('A' for Active; 'I' for Inactive)
REMARK    1  A    between atoms: O_2  and  C_3 
REMARK    2  A    between atoms: C_4  and  O_5 
REMARK    3  A    between atoms: C_9  and  C_10 
REMARK    4  A    between atoms: C_10  and  N_11 
REMARK    5  A    between atoms: C_14  and  C_15 
REMARK    6  A    between atoms: C_15  and  N_16 
REMARK    7  A    between atoms: N_16  and  C_17 
ROOT
HETATM    1  N   UNL     1       6.874  24.576  52.527  1.00  0.00    -0.067 N 
HETATM    2  H   UNL     1       6.415  24.231  51.669  1.00  0.00     0.280 HD
HETATM    3  C   UNL     1       7.182  26.045  52.324  1.00  0.00     0.241 C 
HETATM    4  C   UNL     1       6.672  26.715  53.598  1.00  0.00     0.031 C 
HETATM    5  C   UNL     1       5.418  25.902  53.897  1.00  0.00     0.035 C 
HETATM    6  C   UNL     1       5.865  24.468  53.652  1.00  0.00     0.235 C 
ENDROOT
BRANCH   1   7
HETATM    7  C   UNL     1       8.077  23.675  52.712  1.00  0.00     0.274 C 
BRANCH   7   8
HETATM    8  C   UNL     1       8.145  23.039  54.078  1.00  0.00    -0.012 A 
HETATM    9  C   UNL     1       8.152  21.641  54.256  1.00  0.00     0.021 A 
HETATM   10  C   UNL     1       8.249  21.090  55.532  1.00  0.00     0.059 A 
HETATM   11 BR   UNL     1       8.063  20.442  52.786  1.00  0.00    -0.050 Br
HETATM   12  C   UNL     1       8.346  21.931  56.632  1.00  0.00     0.100 A 
HETATM   13  C   UNL     1       8.339  23.321  56.497  1.00  0.00     0.101 A 
HETATM   14  C   UNL     1       8.227  23.870  55.219  1.00  0.00     0.049 A 
BRANCH  12  15
HETATM   15  O   UNL     1       8.456  21.354  57.865  1.00  0.00    -0.358 OA
HETATM   16  H   UNL     1       9.150  21.848  58.345  1.00  0.00     0.218 HD
ENDBRANCH  12  15
BRANCH  13  17
HETATM   17  O   UNL     1       8.458  24.016  57.669  1.00  0.00    -0.353 OA
HETATM   18  C   UNL     1       8.344  25.433  57.614  1.00  0.00     0.210 C 
ENDBRANCH  13  17
ENDBRANCH   7   8
ENDBRANCH   1   7
BRANCH   4  19
HETATM   19  C   UNL     1       6.441  28.217  53.401  1.00  0.00     0.127 C 
BRANCH  19  20
HETATM   20  N   UNL     1       6.062  28.863  54.659  1.00  0.00    -0.376 N 
HETATM   21  H   UNL     1       5.080  28.818  54.910  1.00  0.00     0.161 HD
BRANCH  20  22
HETATM   22  C   UNL     1       6.984  28.994  55.686  1.00  0.00     0.100 A 
HETATM   23  N   UNL     1       8.273  29.208  55.362  1.00  0.00    -0.353 N 
HETATM   24  H   UNL     1       8.518  29.252  54.378  1.00  0.00     0.166 HD
HETATM   25  C   UNL     1       9.258  29.347  56.263  1.00  0.00     0.089 A 
HETATM   26  C   UNL     1       8.980  29.264  57.617  1.00  0.00     0.017 A 
HETATM   27  C   UNL     1       7.673  29.022  58.013  1.00  0.00     0.005 A 
HETATM   28  C   UNL     1       6.675  28.879  57.049  1.00  0.00     0.048 A 
ENDBRANCH  20  22
ENDBRANCH  19  20
ENDBRANCH   4  19
TORSDOF 7
ENDMDL
MODEL 7
REMARK VINA RESULT:      -7.6      4.066      9.173
REMARK  7 active torsions:
REMARK  status: ('A' for Active; 'I' for Inactive)
REMARK    1  A    between atoms: O_2  and  C_3 
REMARK    2  A    between atoms: C_4  and  O_5 
REMARK    3  A    between atoms: C_9  and  C_10 
REMARK    4  A    between atoms: C_10  and  N_11 
REMARK    5  A    between atoms: C_14  and  C_15 
REMARK    6  A    between atoms: C_15  and  N_16 
REMARK    7  A    between atoms: N_16  and  C_17 
ROOT
HETATM    1  N   UNL     1       6.728  27.412  57.449  1.00  0.00    -0.067 N 
HETATM    2  H   UNL     1       6.322  27.658  58.367  1.00  0.00     0.280 HD
HETATM    3  C   UNL     1       7.784  26.353  57.683  1.00  0.00     0.241 C 
HETATM    4  C   UNL     1       7.473  25.276  56.646  1.00  0.00     0.031 C 
HETATM    5  C   UNL     1       5.949  25.299  56.621  1.00  0.00     0.035 C 
HETATM    6  C   UNL     1       5.623  26.786  56.623  1.00  0.00     0.235 C 
ENDROOT
BRANCH   1   7
HETATM    7  C   UNL     1       7.229  28.724  56.882  1.00  0.00     0.274 C 
BRANCH   7   8
HETATM    8  C   UNL     1       7.248  29.845  57.890  1.00  0.00    -0.012 A 
HETATM    9  C   UNL     1       6.213  30.797  57.975  1.00  0.00     0.021 A 
HETATM   10  C   UNL     1       6.249  31.800  58.941  1.00  0.00     0.059 A 
HETATM   11 BR   UNL     1       4.712  30.751  56.813  1.00  0.00    -0.050 Br
HETATM   12  C   UNL     1       7.315  31.852  59.829  1.00  0.00     0.100 A 
HETATM   13  C   UNL     1       8.361  30.929  59.776  1.00  0.00     0.101 A 
HETATM   14  C   UNL     1       8.329  29.934  58.798  1.00  0.00     0.049 A 
BRANCH  12  15
HETATM   15  O   UNL     1       7.308  32.839  60.772  1.00  0.00    -0.358 OA
HETATM   16  H   UNL     1       7.950  32.574  61.460  1.00  0.00     0.218 HD
ENDBRANCH  12  15
BRANCH  13  17
HETATM   17  O   UNL     1       9.330  31.098  60.726  1.00  0.00    -0.353 OA
HETATM   18  C   UNL     1       9.269  30.280  61.888  1.00  0.00     0.210 C 
ENDBRANCH  13  17
ENDBRANCH   7   8
ENDBRANCH   1   7
BRANCH   4  19
HETATM   19  C   UNL     1       8.096  23.927  57.018  1.00  0.00     0.127 C 
BRANCH  19  20
HETATM   20  N   UNL     1       9.067  23.497  56.010  1.00  0.00    -0.376 N 
HETATM   21  H   UNL     1      10.046  23.617  56.248  1.00  0.00     0.161 HD
BRANCH  20  22
HETATM   22  C   UNL     1       8.742  22.500  55.103  1.00  0.00     0.100 A 
HETATM   23  N   UNL     1       8.180  22.860  53.934  1.00  0.00    -0.353 N 
HETATM   24  H   UNL     1       8.006  23.846  53.770  1.00  0.00     0.166 HD
HETATM   25  C   UNL     1       7.818  21.989  52.979  1.00  0.00     0.089 A 
HETATM   26  C   UNL     1       8.006  20.630  53.167  1.00  0.00     0.017 A 
HETATM   27  C   UNL     1       8.560  20.196  54.361  1.00  0.00     0.005 A 
HETATM   28  C   UNL     1       8.922  21.128  55.334  1.00  0.00     0.048 A 
ENDBRANCH  20  22
ENDBRANCH  19  20
ENDBRANCH   4  19
TORSDOF 7
ENDMDL
MODEL 8
REMARK VINA RESULT:      -7.5      4.151      6.792
REMARK  7 active torsions:
REMARK  status: ('A' for Active; 'I' for Inactive)
REMARK    1  A    between atoms: O_2  and  C_3 
REMARK    2  A    between atoms: C_4  and  O_5 
REMARK    3  A    between atoms: C_9  and  C_10 
REMARK    4  A    between atoms: C_10  and  N_11 
REMARK    5  A    between atoms: C_14  and  C_15 
REMARK    6  A    between atoms: C_15  and  N_16 
REMARK    7  A    between atoms: N_16  and  C_17 
ROOT
HETATM    1  N   UNL     1       7.680  31.010  60.238  1.00  0.00    -0.067 N 
HETATM    2  H   UNL     1       7.070  30.183  60.134  1.00  0.00     0.280 HD
HETATM    3  C   UNL     1       6.836  32.138  60.792  1.00  0.00     0.241 C 
HETATM    4  C   UNL     1       7.665  32.699  61.944  1.00  0.00     0.031 C 
HETATM    5  C   UNL     1       8.296  31.435  62.518  1.00  0.00     0.035 C 
HETATM    6  C   UNL     1       8.729  30.667  61.277  1.00  0.00     0.235 C 
ENDROOT
BRANCH   1   7
HETATM    7  C   UNL     1       8.259  31.242  58.857  1.00  0.00     0.274 C 
BRANCH   7   8
HETATM    8  C   UNL     1       8.027  30.092  57.909  1.00  0.00    -0.012 A 
HETATM    9  C   UNL     1       9.079  29.482  57.197  1.00  0.00     0.021 A 
HETATM   10  C   UNL     1       8.831  28.401  56.354  1.00  0.00     0.059 A 
HETATM   11 BR   UNL     1      10.877  30.070  57.365  1.00  0.00    -0.050 Br
HETATM   12  C   UNL     1       7.534  27.921  56.225  1.00  0.00     0.100 A 
HETATM   13  C   UNL     1       6.465  28.500  56.912  1.00  0.00     0.101 A 
HETATM   14  C   UNL     1       6.715  29.592  57.743  1.00  0.00     0.049 A 
BRANCH  12  15
HETATM   15  O   UNL     1       7.333  26.850  55.403  1.00  0.00    -0.358 OA
HETATM   16  H   UNL     1       6.611  26.324  55.800  1.00  0.00     0.218 HD
ENDBRANCH  12  15
BRANCH  13  17
HETATM   17  O   UNL     1       5.252  27.908  56.696  1.00  0.00    -0.353 OA
HETATM   18  C   UNL     1       4.161  28.745  56.330  1.00  0.00     0.210 C 
ENDBRANCH  13  17
ENDBRANCH   7   8
ENDBRANCH   1   7
BRANCH   4  19
HETATM   19  C   UNL     1       6.809  33.501  62.928  1.00  0.00     0.127 C 
BRANCH  19  20
HETATM   20  N   UNL     1       7.221  33.254  64.311  1.00  0.00    -0.376 N 
HETATM   21  H   UNL     1       8.220  33.189  64.478  1.00  0.00     0.161 HD
BRANCH  20  22
HETATM   22  C   UNL     1       6.416  33.655  65.366  1.00  0.00     0.100 A 
HETATM   23  N   UNL     1       7.007  33.972  66.534  1.00  0.00    -0.353 N 
HETATM   24  H   UNL     1       8.016  33.891  66.597  1.00  0.00     0.166 HD
HETATM   25  C   UNL     1       6.337  34.369  67.627  1.00  0.00     0.089 A 
HETATM   26  C   UNL     1       4.956  34.465  67.602  1.00  0.00     0.017 A 
HETATM   27  C   UNL     1       4.289  34.131  66.434  1.00  0.00     0.005 A 
HETATM   28  C   UNL     1       5.016  33.718  65.318  1.00  0.00     0.048 A 
ENDBRANCH  20  22
ENDBRANCH  19  20
ENDBRANCH   4  19
TORSDOF 7
ENDMDL
MODEL 9
REMARK VINA RESULT:      -7.4      3.979      7.325
REMARK  7 active torsions:
REMARK  status: ('A' for Active; 'I' for Inactive)
REMARK    1  A    between atoms: O_2  and  C_3 
REMARK    2  A    between atoms: C_4  and  O_5 
REMARK    3  A    between atoms: C_9  and  C_10 
REMARK    4  A    between atoms: C_10  and  N_11 
REMARK    5  A    between atoms: C_14  and  C_15 
REMARK    6  A    between atoms: C_15  and  N_16 
REMARK    7  A    between atoms: N_16  and  C_17 
ROOT
HETATM    1  N   UNL     1       6.377  27.772  56.690  1.00  0.00    -0.067 N 
HETATM    2  H   UNL     1       6.123  28.381  57.485  1.00  0.00     0.280 HD
HETATM    3  C   UNL     1       7.631  27.015  57.072  1.00  0.00     0.241 C 
HETATM    4  C   UNL     1       7.319  25.565  56.712  1.00  0.00     0.031 C 
HETATM    5  C   UNL     1       5.842  25.464  57.074  1.00  0.00     0.035 C 
HETATM    6  C   UNL     1       5.261  26.760  56.525  1.00  0.00     0.235 C 
ENDROOT
BRANCH   1   7
HETATM    7  C   UNL     1       6.512  28.711  55.510  1.00  0.00     0.274 C 
BRANCH   7   8
HETATM    8  C   UNL     1       5.898  28.175  54.242  1.00  0.00    -0.012 A 
HETATM    9  C   UNL     1       4.703  28.695  53.707  1.00  0.00     0.021 A 
HETATM   10  C   UNL     1       4.183  28.195  52.515  1.00  0.00     0.059 A 
HETATM   11 BR   UNL     1       3.761  30.112  54.550  1.00  0.00    -0.050 Br
HETATM   12  C   UNL     1       4.857  27.179  51.851  1.00  0.00     0.100 A 
HETATM   13  C   UNL     1       6.042  26.635  52.351  1.00  0.00     0.101 A 
HETATM   14  C   UNL     1       6.552  27.128  53.552  1.00  0.00     0.049 A 
BRANCH  12  15
HETATM   15  O   UNL     1       4.326  26.726  50.678  1.00  0.00    -0.358 OA
HETATM   16  H   UNL     1       4.807  27.180  49.958  1.00  0.00     0.218 HD
ENDBRANCH  12  15
BRANCH  13  17
HETATM   17  O   UNL     1       6.598  25.653  51.578  1.00  0.00    -0.353 OA
HETATM   18  C   UNL     1       7.775  25.017  52.059  1.00  0.00     0.210 C 
ENDBRANCH  13  17
ENDBRANCH   7   8
ENDBRANCH   1   7
BRANCH   4  19
HETATM   19  C   UNL     1       8.236  24.583  57.450  1.00  0.00     0.127 C 
BRANCH  19  20
HETATM   20  N   UNL     1       9.139  23.902  56.520  1.00  0.00    -0.376 N 
HETATM   21  H   UNL     1      10.132  24.041  56.674  1.00  0.00     0.161 HD
BRANCH  20  22
HETATM   22  C   UNL     1       8.744  22.736  55.884  1.00  0.00     0.100 A 
HETATM   23  N   UNL     1       8.716  22.721  54.538  1.00  0.00    -0.353 N 
HETATM   24  H   UNL     1       8.974  23.570  54.045  1.00  0.00     0.166 HD
HETATM   25  C   UNL     1       8.347  21.656  53.809  1.00  0.00     0.089 A 
HETATM   26  C   UNL     1       7.957  20.485  54.435  1.00  0.00     0.017 A 
HETATM   27  C   UNL     1       7.943  20.445  55.820  1.00  0.00     0.005 A 
HETATM   28  C   UNL     1       8.328  21.572  56.547  1.00  0.00     0.048 A 
ENDBRANCH  20  22
ENDBRANCH  19  20
ENDBRANCH   4  19
TORSDOF 7
ENDMDL
MODEL 10
REMARK VINA RESULT:      -7.4      4.745      8.944
REMARK  7 active torsions:
REMARK  status: ('A' for Active; 'I' for Inactive)
REMARK    1  A    between atoms: O_2  and  C_3 
REMARK    2  A    between atoms: C_4  and  O_5 
REMARK    3  A    between atoms: C_9  and  C_10 
REMARK    4  A    between atoms: C_10  and  N_11 
REMARK    5  A    between atoms: C_14  and  C_15 
REMARK    6  A    between atoms: C_15  and  N_16 
REMARK    7  A    between atoms: N_16  and  C_17 
ROOT
HETATM    1  N   UNL     1       6.108  26.755  54.250  1.00  0.00    -0.067 N 
HETATM    2  H   UNL     1       5.706  26.569  55.183  1.00  0.00     0.280 HD
HETATM    3  C   UNL     1       7.337  25.884  54.097  1.00  0.00     0.241 C 
HETATM    4  C   UNL     1       7.169  25.233  52.727  1.00  0.00     0.031 C 
HETATM    5  C   UNL     1       5.663  24.999  52.676  1.00  0.00     0.035 C 
HETATM    6  C   UNL     1       5.090  26.299  53.224  1.00  0.00     0.235 C 
ENDROOT
BRANCH   1   7
HETATM    7  C   UNL     1       6.356  28.248  54.225  1.00  0.00     0.274 C 
BRANCH   7   8
HETATM    8  C   UNL     1       5.830  28.964  55.444  1.00  0.00    -0.012 A 
HETATM    9  C   UNL     1       6.614  29.155  56.599  1.00  0.00     0.021 A 
HETATM   10  C   UNL     1       6.105  29.850  57.694  1.00  0.00     0.059 A 
HETATM   11 BR   UNL     1       8.396  28.512  56.719  1.00  0.00    -0.050 Br
HETATM   12  C   UNL     1       4.816  30.362  57.637  1.00  0.00     0.100 A 
HETATM   13  C   UNL     1       4.007  30.192  56.511  1.00  0.00     0.101 A 
HETATM   14  C   UNL     1       4.515  29.483  55.422  1.00  0.00     0.049 A 
BRANCH  12  15
HETATM   15  O   UNL     1       4.358  31.052  58.723  1.00  0.00    -0.358 OA
HETATM   16  H   UNL     1       4.811  30.677  59.504  1.00  0.00     0.218 HD
ENDBRANCH  12  15
BRANCH  13  17
HETATM   17  O   UNL     1       2.769  30.767  56.597  1.00  0.00    -0.353 OA
HETATM   18  C   UNL     1       2.423  31.744  55.623  1.00  0.00     0.210 C 
ENDBRANCH  13  17
ENDBRANCH   7   8
ENDBRANCH   1   7
BRANCH   4  19
HETATM   19  C   UNL     1       8.026  23.971  52.584  1.00  0.00     0.127 C 
BRANCH  19  20
HETATM   20  N   UNL     1       7.311  22.788  53.067  1.00  0.00    -0.376 N 
HETATM   21  H   UNL     1       6.723  22.311  52.392  1.00  0.00     0.161 HD
BRANCH  20  22
HETATM   22  C   UNL     1       7.818  22.042  54.120  1.00  0.00     0.100 A 
HETATM   23  N   UNL     1       8.341  20.832  53.849  1.00  0.00    -0.353 N 
HETATM   24  H   UNL     1       8.331  20.510  52.887  1.00  0.00     0.166 HD
HETATM   25  C   UNL     1       8.858  20.015  54.781  1.00  0.00     0.089 A 
HETATM   26  C   UNL     1       8.867  20.395  56.112  1.00  0.00     0.017 A 
HETATM   27  C   UNL     1       8.322  21.622  56.457  1.00  0.00     0.005 A 
HETATM   28  C   UNL     1       7.789  22.443  55.463  1.00  0.00     0.048 A 
ENDBRANCH  20  22
ENDBRANCH  19  20
ENDBRANCH   4  19
TORSDOF 7
ENDMDL
