MODEL 1
REMARK VINA RESULT:      -8.9      0.000      0.000
REMARK  7 active torsions:
REMARK  status: ('A' for Active; 'I' for Inactive)
REMARK    1  A    between atoms: C_2  and  N_3 
REMARK    2  A    between atoms: C_2  and  C_17 
REMARK       I    between atoms: N_3  and  C_4 
REMARK    3  A    between atoms: C_4  and  C_5 
REMARK    4  A    between atoms: C_7  and  N_8 
REMARK    5  A    between atoms: C_17  and  O_18 
REMARK    6  A    between atoms: C_17  and  C_19 
REMARK    7  A    between atoms: C_22  and  O_23 
ROOT
HETATM    1  N   UNL     1       8.339  27.230  57.452  1.00  0.00    -0.349 N 
HETATM    2  C   UNL     1       8.394  28.422  56.765  1.00  0.00     0.270 C 
HETATM    3  O   UNL     1       8.069  28.552  55.590  1.00  0.00    -0.266 OA
HETATM    4  H   UNL     1       8.609  27.268  58.432  1.00  0.00     0.163 HD
ENDROOT
BRANCH   1   5
HETATM    5  C   UNL     1       7.910  25.958  56.877  1.00  0.00     0.114 C 
HETATM    6  C   UNL     1       6.465  25.653  57.288  1.00  0.00     0.035 C 
BRANCH   5   7
HETATM    7  C   UNL     1       8.861  24.760  57.180  1.00  0.00     0.173 C 
BRANCH   7   8
HETATM    8  O   UNL     1       8.753  24.378  58.559  1.00  0.00    -0.389 OA
HETATM    9  H   UNL     1       8.246  25.082  58.998  1.00  0.00     0.210 HD
ENDBRANCH   7   8
BRANCH   7  10
HETATM   10  C   UNL     1       8.549  23.540  56.331  1.00  0.00    -0.028 A 
HETATM   11  C   UNL     1       8.416  23.668  54.942  1.00  0.00     0.012 A 
HETATM   12  C   UNL     1       8.121  22.555  54.150  1.00  0.00     0.037 A 
HETATM   13  C   UNL     1       7.965  21.294  54.726  1.00  0.00     0.068 A 
HETATM   14  C   UNL     1       8.085  21.157  56.108  1.00  0.00     0.037 A 
HETATM   15  C   UNL     1       8.372  22.272  56.903  1.00  0.00     0.012 A 
BRANCH  13  16
HETATM   16  O   UNL     1       7.693  20.288  53.839  1.00  0.00    -0.356 OA
HETATM   17  C   UNL     1       8.481  20.253  52.656  1.00  0.00     0.210 C 
ENDBRANCH  13  16
ENDBRANCH   7  10
ENDBRANCH   5   7
ENDBRANCH   1   5
BRANCH   2  18
HETATM   18  C   UNL     1       8.872  29.587  57.579  1.00  0.00     0.126 A 
HETATM   19  N   UNL     1       8.056  29.987  58.595  1.00  0.00    -0.224 NA
HETATM   20  C   UNL     1       8.487  31.041  59.341  1.00  0.00     0.151 A 
HETATM   21  C   UNL     1       9.689  31.706  59.091  1.00  0.00     0.052 A 
HETATM   22  C   UNL     1      10.493  31.272  58.040  1.00  0.00     0.006 A 
HETATM   23  C   UNL     1      10.084  30.189  57.270  1.00  0.00     0.037 A 
BRANCH  20  24
HETATM   24  N   UNL     1       7.674  31.471  60.435  1.00  0.00    -0.227 N 
HETATM   25  N   UNL     1       7.909  31.082  61.719  1.00  0.00    -0.179 NA
HETATM   26  C   UNL     1       6.944  31.673  62.426  1.00  0.00     0.141 A 
HETATM   27  C   UNL     1       6.082  32.443  61.630  1.00  0.00     0.040 A 
HETATM   28  C   UNL     1       6.573  32.299  60.355  1.00  0.00     0.122 A 
ENDBRANCH  20  24
ENDBRANCH   2  18
TORSDOF 7
ENDMDL
MODEL 2
REMARK VINA RESULT:      -8.8      1.798      2.368
REMARK  7 active torsions:
REMARK  status: ('A' for Active; 'I' for Inactive)
REMARK    1  A    between atoms: C_2  and  N_3 
REMARK    2  A    between atoms: C_2  and  C_17 
REMARK       I    between atoms: N_3  and  C_4 
REMARK    3  A    between atoms: C_4  and  C_5 
REMARK    4  A    between atoms: C_7  and  N_8 
REMARK    5  A    between atoms: C_17  and  O_18 
REMARK    6  A    between atoms: C_17  and  C_19 
REMARK    7  A    between atoms: C_22  and  O_23 
ROOT
HETATM    1  N   UNL     1       7.017  28.004  56.566  1.00  0.00    -0.349 N 
HETATM    2  C   UNL     1       8.041  28.594  55.859  1.00  0.00     0.270 C 
HETATM    3  O   UNL     1       8.168  28.515  54.643  1.00  0.00    -0.266 OA
HETATM    4  H   UNL     1       7.012  28.173  57.568  1.00  0.00     0.163 HD
ENDROOT
BRANCH   1   5
HETATM    5  C   UNL     1       5.957  27.192  55.972  1.00  0.00     0.114 C 
HETATM    6  C   UNL     1       4.601  27.884  56.144  1.00  0.00     0.035 C 
BRANCH   5   7
HETATM    7  C   UNL     1       5.920  25.716  56.474  1.00  0.00     0.173 C 
BRANCH   7   8
HETATM    8  O   UNL     1       4.572  25.332  56.784  1.00  0.00    -0.389 OA
HETATM    9  H   UNL     1       4.633  24.681  57.504  1.00  0.00     0.210 HD
ENDBRANCH   7   8
BRANCH   7  10
HETATM   10  C   UNL     1       6.460  24.738  55.446  1.00  0.00    -0.028 A 
HETATM   11  C   UNL     1       7.188  23.615  55.862  1.00  0.00     0.012 A 
HETATM   12  C   UNL     1       7.698  22.711  54.925  1.00  0.00     0.037 A 
HETATM   13  C   UNL     1       7.483  22.904  53.560  1.00  0.00     0.068 A 
HETATM   14  C   UNL     1       6.768  24.023  53.135  1.00  0.00     0.037 A 
HETATM   15  C   UNL     1       6.265  24.934  54.071  1.00  0.00     0.012 A 
BRANCH  13  16
HETATM   16  O   UNL     1       8.022  21.939  52.753  1.00  0.00    -0.356 OA
HETATM   17  C   UNL     1       7.951  20.601  53.226  1.00  0.00     0.210 C 
ENDBRANCH  13  16
ENDBRANCH   7  10
ENDBRANCH   5   7
ENDBRANCH   1   5
BRANCH   2  18
HETATM   18  C   UNL     1       9.005  29.376  56.699  1.00  0.00     0.126 A 
HETATM   19  N   UNL     1       8.487  29.982  57.804  1.00  0.00    -0.224 NA
HETATM   20  C   UNL     1       9.359  30.690  58.574  1.00  0.00     0.151 A 
HETATM   21  C   UNL     1      10.714  30.817  58.263  1.00  0.00     0.052 A 
HETATM   22  C   UNL     1      11.206  30.188  57.122  1.00  0.00     0.006 A 
HETATM   23  C   UNL     1      10.341  29.447  56.325  1.00  0.00     0.037 A 
BRANCH  20  24
HETATM   24  N   UNL     1       8.860  31.316  59.757  1.00  0.00    -0.227 N 
HETATM   25  N   UNL     1       8.009  32.379  59.720  1.00  0.00    -0.179 NA
HETATM   26  C   UNL     1       7.793  32.676  61.003  1.00  0.00     0.141 A 
HETATM   27  C   UNL     1       8.487  31.828  61.880  1.00  0.00     0.040 A 
HETATM   28  C   UNL     1       9.163  30.962  61.056  1.00  0.00     0.122 A 
ENDBRANCH  20  24
ENDBRANCH   2  18
TORSDOF 7
ENDMDL
MODEL 3
REMARK VINA RESULT:      -8.8      3.176      9.709
REMARK  7 active torsions:
REMARK  status: ('A' for Active; 'I' for Inactive)
REMARK    1  A    between atoms: C_2  and  N_3 
REMARK    2  A    between atoms: C_2  and  C_17 
REMARK       I    between atoms: N_3  and  C_4 
REMARK    3  A    between atoms: C_4  and  C_5 
REMARK    4  A    between atoms: C_7  and  N_8 
REMARK    5  A    between atoms: C_17  and  O_18 
REMARK    6  A    between atoms: C_17  and  C_19 
REMARK    7  A    between atoms: C_22  and  O_23 
ROOT
HETATM    1  N   UNL     1       8.415  30.031  60.058  1.00  0.00    -0.349 N 
HETATM    2  C   UNL     1       8.596  29.912  58.699  1.00  0.00     0.270 C 
HETATM    3  O   UNL     1       9.511  30.443  58.079  1.00  0.00    -0.266 OA
HETATM    4  H   UNL     1       7.634  29.514  60.452  1.00  0.00     0.163 HD
ENDROOT
BRANCH   1   5
HETATM    5  C   UNL     1       9.270  30.820  60.944  1.00  0.00     0.114 C 
HETATM    6  C   UNL     1       9.400  30.128  62.306  1.00  0.00     0.035 C 
BRANCH   5   7
HETATM    7  C   UNL     1       8.840  32.311  61.093  1.00  0.00     0.173 C 
BRANCH   7   8
HETATM    8  O   UNL     1       8.369  32.819  59.837  1.00  0.00    -0.389 OA
HETATM    9  H   UNL     1       8.302  32.054  59.241  1.00  0.00     0.210 HD
ENDBRANCH   7   8
BRANCH   7  10
HETATM   10  C   UNL     1       7.734  32.498  62.117  1.00  0.00    -0.028 A 
HETATM   11  C   UNL     1       6.401  32.252  61.762  1.00  0.00     0.012 A 
HETATM   12  C   UNL     1       5.373  32.428  62.692  1.00  0.00     0.037 A 
HETATM   13  C   UNL     1       5.655  32.841  63.995  1.00  0.00     0.068 A 
HETATM   14  C   UNL     1       6.977  33.098  64.356  1.00  0.00     0.037 A 
HETATM   15  C   UNL     1       8.006  32.931  63.423  1.00  0.00     0.012 A 
BRANCH  13  16
HETATM   16  O   UNL     1       4.561  32.961  64.808  1.00  0.00    -0.356 OA
HETATM   17  C   UNL     1       4.686  33.839  65.919  1.00  0.00     0.210 C 
ENDBRANCH  13  16
ENDBRANCH   7  10
ENDBRANCH   5   7
ENDBRANCH   1   5
BRANCH   2  18
HETATM   18  C   UNL     1       7.582  29.047  58.011  1.00  0.00     0.126 A 
HETATM   19  N   UNL     1       7.959  27.762  57.758  1.00  0.00    -0.224 NA
HETATM   20  C   UNL     1       7.041  26.971  57.138  1.00  0.00     0.151 A 
HETATM   21  C   UNL     1       5.778  27.429  56.758  1.00  0.00     0.052 A 
HETATM   22  C   UNL     1       5.431  28.750  57.030  1.00  0.00     0.006 A 
HETATM   23  C   UNL     1       6.345  29.577  57.673  1.00  0.00     0.037 A 
BRANCH  20  24
HETATM   24  N   UNL     1       7.387  25.609  56.881  1.00  0.00    -0.227 N 
HETATM   25  N   UNL     1       8.443  24.995  57.485  1.00  0.00    -0.179 NA
HETATM   26  C   UNL     1       8.441  23.759  56.980  1.00  0.00     0.141 A 
HETATM   27  C   UNL     1       7.404  23.552  56.058  1.00  0.00     0.040 A 
HETATM   28  C   UNL     1       6.739  24.753  56.013  1.00  0.00     0.122 A 
ENDBRANCH  20  24
ENDBRANCH   2  18
TORSDOF 7
ENDMDL
MODEL 4
REMARK VINA RESULT:      -8.7      2.204      2.934
REMARK  7 active torsions:
REMARK  status: ('A' for Active; 'I' for Inactive)
REMARK    1  A    between atoms: C_2  and  N_3 
REMARK    2  A    between atoms: C_2  and  C_17 
REMARK       I    between atoms: N_3  and  C_4 
REMARK    3  A    between atoms: C_4  and  C_5 
REMARK    4  A    between atoms: C_7  and  N_8 
REMARK    5  A    between atoms: C_17  and  O_18 
REMARK    6  A    between atoms: C_17  and  C_19 
REMARK    7  A    between atoms: C_22  and  O_23 
ROOT
HETATM    1  N   UNL     1       7.532  28.095  54.514  1.00  0.00    -0.349 N 
HETATM    2  C   UNL     1       7.181  28.730  55.684  1.00  0.00     0.270 C 
HETATM    3  O   UNL     1       6.038  28.776  56.123  1.00  0.00    -0.266 OA
HETATM    4  H   UNL     1       8.521  28.105  54.280  1.00  0.00     0.163 HD
ENDROOT
BRANCH   1   5
HETATM    5  C   UNL     1       6.594  27.411  53.626  1.00  0.00     0.114 C 
HETATM    6  C   UNL     1       5.604  28.416  53.028  1.00  0.00     0.035 C 
BRANCH   5   7
HETATM    7  C   UNL     1       5.862  26.197  54.275  1.00  0.00     0.173 C 
BRANCH   7   8
HETATM    8  O   UNL     1       4.572  26.015  53.672  1.00  0.00    -0.389 OA
HETATM    9  H   UNL     1       4.736  25.692  52.770  1.00  0.00     0.210 HD
ENDBRANCH   7   8
BRANCH   7  10
HETATM   10  C   UNL     1       6.636  24.900  54.121  1.00  0.00    -0.028 A 
HETATM   11  C   UNL     1       6.852  24.075  55.233  1.00  0.00     0.012 A 
HETATM   12  C   UNL     1       7.571  22.883  55.106  1.00  0.00     0.037 A 
HETATM   13  C   UNL     1       8.077  22.486  53.868  1.00  0.00     0.068 A 
HETATM   14  C   UNL     1       7.876  23.304  52.757  1.00  0.00     0.037 A 
HETATM   15  C   UNL     1       7.165  24.502  52.884  1.00  0.00     0.012 A 
BRANCH  13  16
HETATM   16  O   UNL     1       8.747  21.293  53.879  1.00  0.00    -0.356 OA
HETATM   17  C   UNL     1       8.395  20.356  52.869  1.00  0.00     0.210 C 
ENDBRANCH  13  16
ENDBRANCH   7  10
ENDBRANCH   5   7
ENDBRANCH   1   5
BRANCH   2  18
HETATM   18  C   UNL     1       8.328  29.360  56.416  1.00  0.00     0.126 A 
HETATM   19  N   UNL     1       8.025  29.977  57.593  1.00  0.00    -0.224 NA
HETATM   20  C   UNL     1       9.063  30.546  58.265  1.00  0.00     0.151 A 
HETATM   21  C   UNL     1      10.376  30.528  57.789  1.00  0.00     0.052 A 
HETATM   22  C   UNL     1      10.645  29.892  56.580  1.00  0.00     0.006 A 
HETATM   23  C   UNL     1       9.606  29.290  55.879  1.00  0.00     0.037 A 
BRANCH  20  24
HETATM   24  N   UNL     1       8.792  31.178  59.518  1.00  0.00    -0.227 N 
HETATM   25  N   UNL     1       8.105  32.350  59.614  1.00  0.00    -0.179 NA
HETATM   26  C   UNL     1       8.075  32.611  60.922  1.00  0.00     0.141 A 
HETATM   27  C   UNL     1       8.728  31.631  61.685  1.00  0.00     0.040 A 
HETATM   28  C   UNL     1       9.179  30.720  60.761  1.00  0.00     0.122 A 
ENDBRANCH  20  24
ENDBRANCH   2  18
TORSDOF 7
ENDMDL
MODEL 5
REMARK VINA RESULT:      -8.6      1.543      1.946
REMARK  7 active torsions:
REMARK  status: ('A' for Active; 'I' for Inactive)
REMARK    1  A    between atoms: C_2  and  N_3 
REMARK    2  A    between atoms: C_2  and  C_17 
REMARK       I    between atoms: N_3  and  C_4 
REMARK    3  A    between atoms: C_4  and  C_5 
REMARK    4  A    between atoms: C_7  and  N_8 
REMARK    5  A    between atoms: C_17  and  O_18 
REMARK    6  A    between atoms: C_17  and  C_19 
REMARK    7  A    between atoms: C_22  and  O_23 
ROOT
HETATM    1  N   UNL     1       6.517  27.416  57.094  1.00  0.00    -0.349 N 
HETATM    2  C   UNL     1       6.762  28.577  56.394  1.00  0.00     0.270 C 
HETATM    3  O   UNL     1       7.081  28.610  55.212  1.00  0.00    -0.266 OA
HETATM    4  H   UNL     1       6.230  27.531  58.062  1.00  0.00     0.163 HD
ENDROOT
BRANCH   1   5
HETATM    5  C   UNL     1       6.623  26.070  56.533  1.00  0.00     0.114 C 
HETATM    6  C   UNL     1       5.430  25.218  56.979  1.00  0.00     0.035 C 
BRANCH   5   7
HETATM    7  C   UNL     1       7.980  25.359  56.820  1.00  0.00     0.173 C 
BRANCH   7   8
HETATM    8  O   UNL     1       8.170  25.204  58.234  1.00  0.00    -0.389 OA
HETATM    9  H   UNL     1       7.890  26.042  58.640  1.00  0.00     0.210 HD
ENDBRANCH   7   8
BRANCH   7  10
HETATM   10  C   UNL     1       8.061  23.982  56.185  1.00  0.00    -0.028 A 
HETATM   11  C   UNL     1       7.889  23.837  54.801  1.00  0.00     0.012 A 
HETATM   12  C   UNL     1       7.952  22.574  54.206  1.00  0.00     0.037 A 
HETATM   13  C   UNL     1       8.199  21.436  54.974  1.00  0.00     0.068 A 
HETATM   14  C   UNL     1       8.363  21.568  56.353  1.00  0.00     0.037 A 
HETATM   15  C   UNL     1       8.290  22.831  56.952  1.00  0.00     0.012 A 
BRANCH  13  16
HETATM   16  O   UNL     1       8.251  20.266  54.266  1.00  0.00    -0.356 OA
HETATM   17  C   UNL     1       8.307  20.381  52.850  1.00  0.00     0.210 C 
ENDBRANCH  13  16
ENDBRANCH   7  10
ENDBRANCH   5   7
ENDBRANCH   1   5
BRANCH   2  18
HETATM   18  C   UNL     1       6.587  29.832  57.195  1.00  0.00     0.126 A 
HETATM   19  N   UNL     1       7.298  29.911  58.355  1.00  0.00    -0.224 NA
HETATM   20  C   UNL     1       7.147  31.051  59.083  1.00  0.00     0.151 A 
HETATM   21  C   UNL     1       6.303  32.094  58.695  1.00  0.00     0.052 A 
HETATM   22  C   UNL     1       5.589  31.974  57.505  1.00  0.00     0.006 A 
HETATM   23  C   UNL     1       5.734  30.826  56.734  1.00  0.00     0.037 A 
BRANCH  20  24
HETATM   24  N   UNL     1       7.898  31.185  60.291  1.00  0.00    -0.227 N 
HETATM   25  N   UNL     1       8.925  30.350  60.612  1.00  0.00    -0.179 NA
HETATM   26  C   UNL     1       9.350  30.787  61.799  1.00  0.00     0.141 A 
HETATM   27  C   UNL     1       8.622  31.893  62.262  1.00  0.00     0.040 A 
HETATM   28  C   UNL     1       7.696  32.132  61.276  1.00  0.00     0.122 A 
ENDBRANCH  20  24
ENDBRANCH   2  18
TORSDOF 7
ENDMDL
MODEL 6
REMARK VINA RESULT:      -8.4      4.139     10.155
REMARK  7 active torsions:
REMARK  status: ('A' for Active; 'I' for Inactive)
REMARK    1  A    between atoms: C_2  and  N_3 
REMARK    2  A    between atoms: C_2  and  C_17 
REMARK       I    between atoms: N_3  and  C_4 
REMARK    3  A    between atoms: C_4  and  C_5 
REMARK    4  A    between atoms: C_7  and  N_8 
REMARK    5  A    between atoms: C_17  and  O_18 
REMARK    6  A    between atoms: C_17  and  C_19 
REMARK    7  A    between atoms: C_22  and  O_23 
ROOT
HETATM    1  N   UNL     1       8.628  30.840  60.619  1.00  0.00    -0.349 N 
HETATM    2  C   UNL     1       9.213  31.386  59.498  1.00  0.00     0.270 C 
HETATM    3  O   UNL     1       9.585  32.551  59.418  1.00  0.00    -0.266 OA
HETATM    4  H   UNL     1       8.394  29.852  60.563  1.00  0.00     0.163 HD
ENDROOT
BRANCH   1   5
HETATM    5  C   UNL     1       8.352  31.572  61.853  1.00  0.00     0.114 C 
HETATM    6  C   UNL     1       8.353  30.612  63.048  1.00  0.00     0.035 C 
BRANCH   5   7
HETATM    7  C   UNL     1       7.058  32.440  61.811  1.00  0.00     0.173 C 
BRANCH   7   8
HETATM    8  O   UNL     1       5.965  31.675  61.281  1.00  0.00    -0.389 OA
HETATM    9  H   UNL     1       5.501  32.260  60.657  1.00  0.00     0.210 HD
ENDBRANCH   7   8
BRANCH   7  10
HETATM   10  C   UNL     1       6.652  32.946  63.184  1.00  0.00    -0.028 A 
HETATM   11  C   UNL     1       7.628  33.398  64.082  1.00  0.00     0.012 A 
HETATM   12  C   UNL     1       7.269  33.858  65.351  1.00  0.00     0.037 A 
HETATM   13  C   UNL     1       5.930  33.888  65.745  1.00  0.00     0.068 A 
HETATM   14  C   UNL     1       4.951  33.432  64.863  1.00  0.00     0.037 A 
HETATM   15  C   UNL     1       5.311  32.962  63.594  1.00  0.00     0.012 A 
BRANCH  13  16
HETATM   16  O   UNL     1       5.714  34.375  67.005  1.00  0.00    -0.356 OA
HETATM   17  C   UNL     1       4.437  34.117  67.576  1.00  0.00     0.210 C 
ENDBRANCH  13  16
ENDBRANCH   7  10
ENDBRANCH   5   7
ENDBRANCH   1   5
BRANCH   2  18
HETATM   18  C   UNL     1       9.387  30.427  58.359  1.00  0.00     0.126 A 
HETATM   19  N   UNL     1       8.552  29.350  58.345  1.00  0.00    -0.224 NA
HETATM   20  C   UNL     1       8.702  28.479  57.310  1.00  0.00     0.151 A 
HETATM   21  C   UNL     1       9.661  28.647  56.310  1.00  0.00     0.052 A 
HETATM   22  C   UNL     1      10.500  29.757  56.361  1.00  0.00     0.006 A 
HETATM   23  C   UNL     1      10.360  30.671  57.400  1.00  0.00     0.037 A 
BRANCH  20  24
HETATM   24  N   UNL     1       7.826  27.352  57.244  1.00  0.00    -0.227 N 
HETATM   25  N   UNL     1       8.215  26.099  57.611  1.00  0.00    -0.179 NA
HETATM   26  C   UNL     1       7.140  25.340  57.394  1.00  0.00     0.141 A 
HETATM   27  C   UNL     1       6.053  26.071  56.892  1.00  0.00     0.040 A 
HETATM   28  C   UNL     1       6.517  27.361  56.806  1.00  0.00     0.122 A 
ENDBRANCH  20  24
ENDBRANCH   2  18
TORSDOF 7
ENDMDL
MODEL 7
REMARK VINA RESULT:      -8.3      3.110      9.363
REMARK  7 active torsions:
REMARK  status: ('A' for Active; 'I' for Inactive)
REMARK    1  A    between atoms: C_2  and  N_3 
REMARK    2  A    between atoms: C_2  and  C_17 
REMARK       I    between atoms: N_3  and  C_4 
REMARK    3  A    between atoms: C_4  and  C_5 
REMARK    4  A    between atoms: C_7  and  N_8 
REMARK    5  A    between atoms: C_17  and  O_18 
REMARK    6  A    between atoms: C_17  and  C_19 
REMARK    7  A    between atoms: C_22  and  O_23 
ROOT
HETATM    1  N   UNL     1       6.142  27.456  55.436  1.00  0.00    -0.349 N 
HETATM    2  C   UNL     1       7.190  26.606  55.715  1.00  0.00     0.270 C 
HETATM    3  O   UNL     1       7.839  26.636  56.754  1.00  0.00    -0.266 OA
HETATM    4  H   UNL     1       5.669  27.304  54.550  1.00  0.00     0.163 HD
ENDROOT
BRANCH   1   5
HETATM    5  C   UNL     1       5.674  28.517  56.325  1.00  0.00     0.114 C 
HETATM    6  C   UNL     1       4.174  28.753  56.122  1.00  0.00     0.035 C 
BRANCH   5   7
HETATM    7  C   UNL     1       6.485  29.844  56.226  1.00  0.00     0.173 C 
BRANCH   7   8
HETATM    8  O   UNL     1       5.694  30.864  55.597  1.00  0.00    -0.389 OA
HETATM    9  H   UNL     1       6.156  31.099  54.775  1.00  0.00     0.210 HD
ENDBRANCH   7   8
BRANCH   7  10
HETATM   10  C   UNL     1       6.921  30.363  57.585  1.00  0.00    -0.028 A 
HETATM   11  C   UNL     1       6.277  31.471  58.153  1.00  0.00     0.012 A 
HETATM   12  C   UNL     1       6.675  31.963  59.399  1.00  0.00     0.037 A 
HETATM   13  C   UNL     1       7.712  31.355  60.106  1.00  0.00     0.068 A 
HETATM   14  C   UNL     1       8.366  30.258  59.546  1.00  0.00     0.037 A 
HETATM   15  C   UNL     1       7.976  29.770  58.295  1.00  0.00     0.012 A 
BRANCH  13  16
HETATM   16  O   UNL     1       7.992  31.926  61.318  1.00  0.00    -0.356 OA
HETATM   17  C   UNL     1       8.289  31.036  62.387  1.00  0.00     0.210 C 
ENDBRANCH  13  16
ENDBRANCH   7  10
ENDBRANCH   5   7
ENDBRANCH   1   5
BRANCH   2  18
HETATM   18  C   UNL     1       7.478  25.603  54.639  1.00  0.00     0.126 A 
HETATM   19  N   UNL     1       7.719  24.327  55.055  1.00  0.00    -0.224 NA
HETATM   20  C   UNL     1       7.976  23.410  54.082  1.00  0.00     0.151 A 
HETATM   21  C   UNL     1       8.012  23.734  52.724  1.00  0.00     0.052 A 
HETATM   22  C   UNL     1       7.765  25.049  52.339  1.00  0.00     0.006 A 
HETATM   23  C   UNL     1       7.487  26.004  53.310  1.00  0.00     0.037 A 
BRANCH  20  24
HETATM   24  N   UNL     1       8.205  22.055  54.475  1.00  0.00    -0.227 N 
HETATM   25  N   UNL     1       8.674  21.112  53.611  1.00  0.00    -0.179 NA
HETATM   26  C   UNL     1       8.737  19.996  54.340  1.00  0.00     0.141 A 
HETATM   27  C   UNL     1       8.319  20.191  55.665  1.00  0.00     0.040 A 
HETATM   28  C   UNL     1       7.984  21.522  55.728  1.00  0.00     0.122 A 
ENDBRANCH  20  24
ENDBRANCH   2  18
TORSDOF 7
ENDMDL
MODEL 8
REMARK VINA RESULT:      -8.2      6.004      8.096
REMARK  7 active torsions:
REMARK  status: ('A' for Active; 'I' for Inactive)
REMARK    1  A    between atoms: C_2  and  N_3 
REMARK    2  A    between atoms: C_2  and  C_17 
REMARK       I    between atoms: N_3  and  C_4 
REMARK    3  A    between atoms: C_4  and  C_5 
REMARK    4  A    between atoms: C_7  and  N_8 
REMARK    5  A    between atoms: C_17  and  O_18 
REMARK    6  A    between atoms: C_17  and  C_19 
REMARK    7  A    between atoms: C_22  and  O_23 
ROOT
HETATM    1  N   UNL     1       5.521  26.933  52.657  1.00  0.00    -0.349 N 
HETATM    2  C   UNL     1       5.064  26.116  51.647  1.00  0.00     0.270 C 
HETATM    3  O   UNL     1       4.779  24.934  51.797  1.00  0.00    -0.266 OA
HETATM    4  H   UNL     1       5.690  27.903  52.404  1.00  0.00     0.163 HD
ENDROOT
BRANCH   1   5
HETATM    5  C   UNL     1       5.749  26.503  54.035  1.00  0.00     0.114 C 
HETATM    6  C   UNL     1       5.216  27.555  55.012  1.00  0.00     0.035 C 
BRANCH   5   7
HETATM    7  C   UNL     1       7.226  26.117  54.352  1.00  0.00     0.173 C 
BRANCH   7   8
HETATM    8  O   UNL     1       7.590  26.579  55.661  1.00  0.00    -0.389 OA
HETATM    9  H   UNL     1       8.351  26.042  55.938  1.00  0.00     0.210 HD
ENDBRANCH   7   8
BRANCH   7  10
HETATM   10  C   UNL     1       7.458  24.617  54.306  1.00  0.00    -0.028 A 
HETATM   11  C   UNL     1       7.299  23.846  55.465  1.00  0.00     0.012 A 
HETATM   12  C   UNL     1       7.518  22.466  55.438  1.00  0.00     0.037 A 
HETATM   13  C   UNL     1       7.888  21.828  54.254  1.00  0.00     0.068 A 
HETATM   14  C   UNL     1       8.058  22.586  53.096  1.00  0.00     0.037 A 
HETATM   15  C   UNL     1       7.848  23.969  53.124  1.00  0.00     0.012 A 
BRANCH  13  16
HETATM   16  O   UNL     1       8.056  20.474  54.361  1.00  0.00    -0.356 OA
HETATM   17  C   UNL     1       8.587  19.993  55.589  1.00  0.00     0.210 C 
ENDBRANCH  13  16
ENDBRANCH   7  10
ENDBRANCH   5   7
ENDBRANCH   1   5
BRANCH   2  18
HETATM   18  C   UNL     1       4.914  26.796  50.319  1.00  0.00     0.126 A 
HETATM   19  N   UNL     1       5.185  28.131  50.292  1.00  0.00    -0.224 NA
HETATM   20  C   UNL     1       5.055  28.753  49.088  1.00  0.00     0.151 A 
HETATM   21  C   UNL     1       4.653  28.085  47.929  1.00  0.00     0.052 A 
HETATM   22  C   UNL     1       4.380  26.721  47.997  1.00  0.00     0.006 A 
HETATM   23  C   UNL     1       4.517  26.058  49.212  1.00  0.00     0.037 A 
BRANCH  20  24
HETATM   24  N   UNL     1       5.359  30.147  49.011  1.00  0.00    -0.227 N 
HETATM   25  N   UNL     1       6.264  30.745  49.833  1.00  0.00    -0.179 NA
HETATM   26  C   UNL     1       6.252  32.028  49.463  1.00  0.00     0.141 A 
HETATM   27  C   UNL     1       5.356  32.280  48.413  1.00  0.00     0.040 A 
HETATM   28  C   UNL     1       4.795  31.056  48.139  1.00  0.00     0.122 A 
ENDBRANCH  20  24
ENDBRANCH   2  18
TORSDOF 7
ENDMDL
MODEL 9
REMARK VINA RESULT:      -8.1      2.892      4.528
REMARK  7 active torsions:
REMARK  status: ('A' for Active; 'I' for Inactive)
REMARK    1  A    between atoms: C_2  and  N_3 
REMARK    2  A    between atoms: C_2  and  C_17 
REMARK       I    between atoms: N_3  and  C_4 
REMARK    3  A    between atoms: C_4  and  C_5 
REMARK    4  A    between atoms: C_7  and  N_8 
REMARK    5  A    between atoms: C_17  and  O_18 
REMARK    6  A    between atoms: C_17  and  C_19 
REMARK    7  A    between atoms: C_22  and  O_23 
ROOT
HETATM    1  N   UNL     1       6.069  26.493  53.572  1.00  0.00    -0.349 N 
HETATM    2  C   UNL     1       5.391  27.687  53.679  1.00  0.00     0.270 C 
HETATM    3  O   UNL     1       4.632  28.123  52.822  1.00  0.00    -0.266 OA
HETATM    4  H   UNL     1       6.644  26.233  54.369  1.00  0.00     0.163 HD
ENDROOT
BRANCH   1   5
HETATM    5  C   UNL     1       5.995  25.596  52.421  1.00  0.00     0.114 C 
HETATM    6  C   UNL     1       4.759  24.697  52.530  1.00  0.00     0.035 C 
BRANCH   5   7
HETATM    7  C   UNL     1       7.290  24.766  52.167  1.00  0.00     0.173 C 
BRANCH   7   8
HETATM    8  O   UNL     1       8.441  25.624  52.192  1.00  0.00    -0.389 OA
HETATM    9  H   UNL     1       8.172  26.453  51.761  1.00  0.00     0.210 HD
ENDBRANCH   7   8
BRANCH   7  10
HETATM   10  C   UNL     1       7.497  23.678  53.206  1.00  0.00    -0.028 A 
HETATM   11  C   UNL     1       7.509  24.002  54.569  1.00  0.00     0.012 A 
HETATM   12  C   UNL     1       7.706  23.011  55.534  1.00  0.00     0.037 A 
HETATM   13  C   UNL     1       7.884  21.678  55.160  1.00  0.00     0.068 A 
HETATM   14  C   UNL     1       7.883  21.346  53.806  1.00  0.00     0.037 A 
HETATM   15  C   UNL     1       7.695  22.339  52.838  1.00  0.00     0.012 A 
BRANCH  13  16
HETATM   16  O   UNL     1       8.052  20.808  56.202  1.00  0.00    -0.356 OA
HETATM   17  C   UNL     1       9.326  20.186  56.313  1.00  0.00     0.210 C 
ENDBRANCH  13  16
ENDBRANCH   7  10
ENDBRANCH   5   7
ENDBRANCH   1   5
BRANCH   2  18
HETATM   18  C   UNL     1       5.636  28.427  54.960  1.00  0.00     0.126 A 
HETATM   19  N   UNL     1       6.937  28.699  55.259  1.00  0.00    -0.224 NA
HETATM   20  C   UNL     1       7.166  29.375  56.418  1.00  0.00     0.151 A 
HETATM   21  C   UNL     1       6.141  29.767  57.282  1.00  0.00     0.052 A 
HETATM   22  C   UNL     1       4.824  29.466  56.945  1.00  0.00     0.006 A 
HETATM   23  C   UNL     1       4.560  28.788  55.760  1.00  0.00     0.037 A 
BRANCH  20  24
HETATM   24  N   UNL     1       8.514  29.706  56.753  1.00  0.00    -0.227 N 
HETATM   25  N   UNL     1       9.539  29.595  55.862  1.00  0.00    -0.179 NA
HETATM   26  C   UNL     1      10.618  29.977  56.547  1.00  0.00     0.141 A 
HETATM   27  C   UNL     1      10.320  30.337  57.870  1.00  0.00     0.040 A 
HETATM   28  C   UNL     1       8.963  30.157  57.978  1.00  0.00     0.122 A 
ENDBRANCH  20  24
ENDBRANCH   2  18
TORSDOF 7
ENDMDL
MODEL 10
REMARK VINA RESULT:      -8.1      2.814      3.581
REMARK  7 active torsions:
REMARK  status: ('A' for Active; 'I' for Inactive)
REMARK    1  A    between atoms: C_2  and  N_3 
REMARK    2  A    between atoms: C_2  and  C_17 
REMARK       I    between atoms: N_3  and  C_4 
REMARK    3  A    between atoms: C_4  and  C_5 
REMARK    4  A    between atoms: C_7  and  N_8 
REMARK    5  A    between atoms: C_17  and  O_18 
REMARK    6  A    between atoms: C_17  and  C_19 
REMARK    7  A    between atoms: C_22  and  O_23 
ROOT
HETATM    1  N   UNL     1       6.015  27.596  54.557  1.00  0.00    -0.349 N 
HETATM    2  C   UNL     1       7.239  28.219  54.661  1.00  0.00     0.270 C 
HETATM    3  O   UNL     1       8.085  28.221  53.774  1.00  0.00    -0.266 OA
HETATM    4  H   UNL     1       5.394  27.697  55.355  1.00  0.00     0.163 HD
ENDROOT
BRANCH   1   5
HETATM    5  C   UNL     1       5.566  26.836  53.392  1.00  0.00     0.114 C 
HETATM    6  C   UNL     1       4.468  27.607  52.651  1.00  0.00     0.035 C 
BRANCH   5   7
HETATM    7  C   UNL     1       5.132  25.372  53.706  1.00  0.00     0.173 C 
BRANCH   7   8
HETATM    8  O   UNL     1       4.399  24.824  52.601  1.00  0.00    -0.389 OA
HETATM    9  H   UNL     1       4.420  25.497  51.899  1.00  0.00     0.210 HD
ENDBRANCH   7   8
BRANCH   7  10
HETATM   10  C   UNL     1       6.316  24.461  53.980  1.00  0.00    -0.028 A 
HETATM   11  C   UNL     1       6.734  24.231  55.297  1.00  0.00     0.012 A 
HETATM   12  C   UNL     1       7.827  23.402  55.562  1.00  0.00     0.037 A 
HETATM   13  C   UNL     1       8.515  22.778  54.521  1.00  0.00     0.068 A 
HETATM   14  C   UNL     1       8.114  23.007  53.206  1.00  0.00     0.037 A 
HETATM   15  C   UNL     1       7.025  23.844  52.939  1.00  0.00     0.012 A 
BRANCH  13  16
HETATM   16  O   UNL     1       9.555  21.981  54.918  1.00  0.00    -0.356 OA
HETATM   17  C   UNL     1       9.213  20.781  55.600  1.00  0.00     0.210 C 
ENDBRANCH  13  16
ENDBRANCH   7  10
ENDBRANCH   5   7
ENDBRANCH   1   5
BRANCH   2  18
HETATM   18  C   UNL     1       7.463  28.932  55.960  1.00  0.00     0.126 A 
HETATM   19  N   UNL     1       6.501  29.822  56.333  1.00  0.00    -0.224 NA
HETATM   20  C   UNL     1       6.697  30.470  57.514  1.00  0.00     0.151 A 
HETATM   21  C   UNL     1       7.823  30.264  58.314  1.00  0.00     0.052 A 
HETATM   22  C   UNL     1       8.788  29.350  57.897  1.00  0.00     0.006 A 
HETATM   23  C   UNL     1       8.607  28.665  56.701  1.00  0.00     0.037 A 
BRANCH  20  24
HETATM   24  N   UNL     1       5.696  31.389  57.955  1.00  0.00    -0.227 N 
HETATM   25  N   UNL     1       5.973  32.693  58.236  1.00  0.00    -0.179 NA
HETATM   26  C   UNL     1       4.802  33.205  58.621  1.00  0.00     0.141 A 
HETATM   27  C   UNL     1       3.764  32.261  58.598  1.00  0.00     0.040 A 
HETATM   28  C   UNL     1       4.362  31.103  58.165  1.00  0.00     0.122 A 
ENDBRANCH  20  24
ENDBRANCH   2  18
TORSDOF 7
ENDMDL
