MODEL 1
REMARK VINA RESULT:      -8.9      0.000      0.000
REMARK  9 active torsions:
REMARK  status: ('A' for Active; 'I' for Inactive)
REMARK    1  A    between atoms: S_2  and  C_3 
REMARK    2  A    between atoms: C_3  and  C_4 
REMARK    3  A    between atoms: C_4  and  C_5 
REMARK    4  A    between atoms: C_5  and  N_6 
REMARK    5  A    between atoms: C_5  and  C_16 
REMARK       I    between atoms: N_6  and  C_7 
REMARK    6  A    between atoms: C_7  and  C_8 
REMARK       I    between atoms: C_16  and  N_17 
REMARK    7  A    between atoms: N_17  and  N_18 
REMARK       I    between atoms: N_18  and  C_19 
REMARK    8  A    between atoms: C_19  and  C_20 
REMARK    9  A    between atoms: C_23  and  O_24 
ROOT
HETATM    1  C   UNL     1       6.574  28.850  56.990  1.00  0.00     0.179 C 
ENDROOT
BRANCH   1   2
HETATM    2  C   UNL     1       5.107  28.843  56.529  1.00  0.00     0.045 C 
BRANCH   2   3
HETATM    3  C   UNL     1       4.820  29.622  55.246  1.00  0.00     0.076 C 
BRANCH   3   4
HETATM    4  S   UNL     1       4.183  28.558  53.910  1.00  0.00    -0.173 SA
HETATM    5  C   UNL     1       5.712  28.365  52.963  1.00  0.00     0.089 C 
ENDBRANCH   3   4
ENDBRANCH   2   3
ENDBRANCH   1   2
BRANCH   1   6
HETATM    6  N   UNL     1       6.820  29.579  58.242  1.00  0.00    -0.344 N 
HETATM    7  C   UNL     1       7.922  30.351  58.507  1.00  0.00     0.254 C 
HETATM    8  O   UNL     1       8.803  30.523  57.670  1.00  0.00    -0.268 OA
HETATM    9  H   UNL     1       6.089  29.520  58.942  1.00  0.00     0.163 HD
BRANCH   7  10
HETATM   10  C   UNL     1       8.049  30.964  59.861  1.00  0.00     0.053 A 
HETATM   11  C   UNL     1       7.192  31.930  60.407  1.00  0.00     0.049 A 
HETATM   12 CL   UNL     1       5.850  32.617  59.560  1.00  0.00    -0.083 Cl
HETATM   13  C   UNL     1       7.419  32.417  61.702  1.00  0.00     0.025 A 
HETATM   14  C   UNL     1       8.496  31.956  62.458  1.00  0.00     0.002 A 
HETATM   15  C   UNL     1       9.361  31.009  61.921  1.00  0.00     0.001 A 
HETATM   16  C   UNL     1       9.141  30.519  60.632  1.00  0.00     0.019 A 
ENDBRANCH   7  10
ENDBRANCH   1   6
BRANCH   1  17
HETATM   17  C   UNL     1       7.126  27.409  57.000  1.00  0.00     0.259 C 
HETATM   18  N   UNL     1       6.850  26.646  55.888  1.00  0.00    -0.265 N 
HETATM   19  H   UNL     1       6.329  27.001  55.079  1.00  0.00     0.190 HD
HETATM   20  O   UNL     1       7.892  27.007  57.881  1.00  0.00    -0.269 OA
BRANCH  18  21
HETATM   21  N   UNL     1       7.407  25.367  55.799  1.00  0.00    -0.263 N 
HETATM   22  C   UNL     1       6.976  24.529  54.788  1.00  0.00     0.270 C 
HETATM   23  O   UNL     1       6.187  24.882  53.916  1.00  0.00    -0.266 OA
HETATM   24  H   UNL     1       7.859  25.031  56.646  1.00  0.00     0.190 HD
BRANCH  22  25
HETATM   25  C   UNL     1       7.507  23.135  54.806  1.00  0.00     0.033 A 
HETATM   26  C   UNL     1       7.809  22.458  55.998  1.00  0.00     0.020 A 
HETATM   27  C   UNL     1       8.325  21.156  55.957  1.00  0.00     0.037 A 
HETATM   28  C   UNL     1       8.545  20.543  54.728  1.00  0.00     0.065 A 
HETATM   29  C   UNL     1       8.259  21.204  53.541  1.00  0.00     0.037 A 
HETATM   30  C   UNL     1       7.744  22.501  53.578  1.00  0.00     0.020 A 
BRANCH  28  31
HETATM   31  O   UNL     1       9.052  19.281  54.646  1.00  0.00    -0.361 OA
HETATM   32  H   UNL     1      10.000  19.308  54.854  1.00  0.00     0.217 HD
ENDBRANCH  28  31
ENDBRANCH  22  25
ENDBRANCH  18  21
ENDBRANCH   1  17
TORSDOF 9
ENDMDL
MODEL 2
REMARK VINA RESULT:      -8.8      4.579      8.915
REMARK  9 active torsions:
REMARK  status: ('A' for Active; 'I' for Inactive)
REMARK    1  A    between atoms: S_2  and  C_3 
REMARK    2  A    between atoms: C_3  and  C_4 
REMARK    3  A    between atoms: C_4  and  C_5 
REMARK    4  A    between atoms: C_5  and  N_6 
REMARK    5  A    between atoms: C_5  and  C_16 
REMARK       I    between atoms: N_6  and  C_7 
REMARK    6  A    between atoms: C_7  and  C_8 
REMARK       I    between atoms: C_16  and  N_17 
REMARK    7  A    between atoms: N_17  and  N_18 
REMARK       I    between atoms: N_18  and  C_19 
REMARK    8  A    between atoms: C_19  and  C_20 
REMARK    9  A    between atoms: C_23  and  O_24 
ROOT
HETATM    1  C   UNL     1       6.207  26.491  54.129  1.00  0.00     0.179 C 
ENDROOT
BRANCH   1   2
HETATM    2  C   UNL     1       5.657  27.237  55.356  1.00  0.00     0.045 C 
BRANCH   2   3
HETATM    3  C   UNL     1       6.247  28.627  55.597  1.00  0.00     0.076 C 
BRANCH   3   4
HETATM    4  S   UNL     1       8.068  28.634  55.529  1.00  0.00    -0.173 SA
HETATM    5  C   UNL     1       8.401  27.726  57.059  1.00  0.00     0.089 C 
ENDBRANCH   3   4
ENDBRANCH   2   3
ENDBRANCH   1   2
BRANCH   1   6
HETATM    6  N   UNL     1       6.687  25.130  54.404  1.00  0.00    -0.344 N 
HETATM    7  C   UNL     1       7.674  24.481  53.707  1.00  0.00     0.254 C 
HETATM    8  O   UNL     1       8.276  25.026  52.786  1.00  0.00    -0.268 OA
HETATM    9  H   UNL     1       6.264  24.661  55.197  1.00  0.00     0.163 HD
BRANCH   7  10
HETATM   10  C   UNL     1       7.989  23.070  54.071  1.00  0.00     0.053 A 
HETATM   11  C   UNL     1       8.453  22.630  55.319  1.00  0.00     0.049 A 
HETATM   12 CL   UNL     1       8.790  23.683  56.648  1.00  0.00    -0.083 Cl
HETATM   13  C   UNL     1       8.700  21.266  55.534  1.00  0.00     0.025 A 
HETATM   14  C   UNL     1       8.496  20.336  54.516  1.00  0.00     0.002 A 
HETATM   15  C   UNL     1       8.050  20.763  53.270  1.00  0.00     0.001 A 
HETATM   16  C   UNL     1       7.801  22.118  53.048  1.00  0.00     0.019 A 
ENDBRANCH   7  10
ENDBRANCH   1   6
BRANCH   1  17
HETATM   17  C   UNL     1       5.187  26.562  52.974  1.00  0.00     0.259 C 
HETATM   18  N   UNL     1       5.557  25.947  51.799  1.00  0.00    -0.265 N 
HETATM   19  H   UNL     1       6.445  25.446  51.684  1.00  0.00     0.190 HD
HETATM   20  O   UNL     1       4.048  27.012  53.131  1.00  0.00    -0.269 OA
BRANCH  18  21
HETATM   21  N   UNL     1       4.635  25.894  50.751  1.00  0.00    -0.263 N 
HETATM   22  C   UNL     1       4.656  26.897  49.802  1.00  0.00     0.270 C 
HETATM   23  O   UNL     1       5.499  27.791  49.790  1.00  0.00    -0.266 OA
HETATM   24  H   UNL     1       3.824  25.301  50.917  1.00  0.00     0.190 HD
BRANCH  22  25
HETATM   25  C   UNL     1       3.575  26.865  48.773  1.00  0.00     0.033 A 
HETATM   26  C   UNL     1       3.492  25.860  47.797  1.00  0.00     0.020 A 
HETATM   27  C   UNL     1       2.469  25.890  46.842  1.00  0.00     0.037 A 
HETATM   28  C   UNL     1       1.540  26.925  46.861  1.00  0.00     0.065 A 
HETATM   29  C   UNL     1       1.615  27.931  47.815  1.00  0.00     0.037 A 
HETATM   30  C   UNL     1       2.634  27.905  48.770  1.00  0.00     0.020 A 
BRANCH  28  31
HETATM   31  O   UNL     1       0.534  26.993  45.944  1.00  0.00    -0.361 OA
HETATM   32  H   UNL     1       0.354  27.925  45.742  1.00  0.00     0.217 HD
ENDBRANCH  28  31
ENDBRANCH  22  25
ENDBRANCH  18  21
ENDBRANCH   1  17
TORSDOF 9
ENDMDL
MODEL 3
REMARK VINA RESULT:      -8.7      2.975      8.686
REMARK  9 active torsions:
REMARK  status: ('A' for Active; 'I' for Inactive)
REMARK    1  A    between atoms: S_2  and  C_3 
REMARK    2  A    between atoms: C_3  and  C_4 
REMARK    3  A    between atoms: C_4  and  C_5 
REMARK    4  A    between atoms: C_5  and  N_6 
REMARK    5  A    between atoms: C_5  and  C_16 
REMARK       I    between atoms: N_6  and  C_7 
REMARK    6  A    between atoms: C_7  and  C_8 
REMARK       I    between atoms: C_16  and  N_17 
REMARK    7  A    between atoms: N_17  and  N_18 
REMARK       I    between atoms: N_18  and  C_19 
REMARK    8  A    between atoms: C_19  and  C_20 
REMARK    9  A    between atoms: C_23  and  O_24 
ROOT
HETATM    1  C   UNL     1       5.810  25.825  53.535  1.00  0.00     0.179 C 
ENDROOT
BRANCH   1   2
HETATM    2  C   UNL     1       6.123  26.135  52.062  1.00  0.00     0.045 C 
BRANCH   2   3
HETATM    3  C   UNL     1       5.029  25.752  51.065  1.00  0.00     0.076 C 
BRANCH   3   4
HETATM    4  S   UNL     1       4.697  27.072  49.853  1.00  0.00    -0.173 SA
HETATM    5  C   UNL     1       5.352  28.474  50.790  1.00  0.00     0.089 C 
ENDBRANCH   3   4
ENDBRANCH   2   3
ENDBRANCH   1   2
BRANCH   1   6
HETATM    6  N   UNL     1       6.346  24.546  54.020  1.00  0.00    -0.344 N 
HETATM    7  C   UNL     1       7.567  24.018  53.683  1.00  0.00     0.254 C 
HETATM    8  O   UNL     1       8.346  24.618  52.948  1.00  0.00    -0.268 OA
HETATM    9  H   UNL     1       5.765  24.042  54.681  1.00  0.00     0.163 HD
BRANCH   7  10
HETATM   10  C   UNL     1       7.925  22.669  54.208  1.00  0.00     0.053 A 
HETATM   11  C   UNL     1       8.236  22.365  55.541  1.00  0.00     0.049 A 
HETATM   12 CL   UNL     1       8.304  23.541  56.807  1.00  0.00    -0.083 Cl
HETATM   13  C   UNL     1       8.546  21.047  55.906  1.00  0.00     0.025 A 
HETATM   14  C   UNL     1       8.556  20.028  54.953  1.00  0.00     0.002 A 
HETATM   15  C   UNL     1       8.264  20.321  53.626  1.00  0.00     0.001 A 
HETATM   16  C   UNL     1       7.954  21.631  53.256  1.00  0.00     0.019 A 
ENDBRANCH   7  10
ENDBRANCH   1   6
BRANCH   1  17
HETATM   17  C   UNL     1       6.201  27.029  54.417  1.00  0.00     0.259 C 
HETATM   18  N   UNL     1       7.531  27.123  54.761  1.00  0.00    -0.265 N 
HETATM   19  H   UNL     1       8.241  26.455  54.442  1.00  0.00     0.190 HD
HETATM   20  O   UNL     1       5.404  27.935  54.680  1.00  0.00    -0.269 OA
BRANCH  18  21
HETATM   21  N   UNL     1       7.960  28.244  55.477  1.00  0.00    -0.263 N 
HETATM   22  C   UNL     1       8.347  28.078  56.792  1.00  0.00     0.270 C 
HETATM   23  O   UNL     1       8.409  26.980  57.340  1.00  0.00    -0.266 OA
HETATM   24  H   UNL     1       7.676  29.140  55.088  1.00  0.00     0.190 HD
BRANCH  22  25
HETATM   25  C   UNL     1       8.680  29.320  57.551  1.00  0.00     0.033 A 
HETATM   26  C   UNL     1       9.886  30.014  57.371  1.00  0.00     0.020 A 
HETATM   27  C   UNL     1      10.157  31.163  58.125  1.00  0.00     0.037 A 
HETATM   28  C   UNL     1       9.226  31.607  59.058  1.00  0.00     0.065 A 
HETATM   29  C   UNL     1       8.031  30.926  59.252  1.00  0.00     0.037 A 
HETATM   30  C   UNL     1       7.758  29.781  58.502  1.00  0.00     0.020 A 
BRANCH  28  31
HETATM   31  O   UNL     1       9.455  32.717  59.815  1.00  0.00    -0.361 OA
HETATM   32  H   UNL     1       9.753  33.437  59.237  1.00  0.00     0.217 HD
ENDBRANCH  28  31
ENDBRANCH  22  25
ENDBRANCH  18  21
ENDBRANCH   1  17
TORSDOF 9
ENDMDL
MODEL 4
REMARK VINA RESULT:      -8.5      2.425      9.245
REMARK  9 active torsions:
REMARK  status: ('A' for Active; 'I' for Inactive)
REMARK    1  A    between atoms: S_2  and  C_3 
REMARK    2  A    between atoms: C_3  and  C_4 
REMARK    3  A    between atoms: C_4  and  C_5 
REMARK    4  A    between atoms: C_5  and  N_6 
REMARK    5  A    between atoms: C_5  and  C_16 
REMARK       I    between atoms: N_6  and  C_7 
REMARK    6  A    between atoms: C_7  and  C_8 
REMARK       I    between atoms: C_16  and  N_17 
REMARK    7  A    between atoms: N_17  and  N_18 
REMARK       I    between atoms: N_18  and  C_19 
REMARK    8  A    between atoms: C_19  and  C_20 
REMARK    9  A    between atoms: C_23  and  O_24 
ROOT
HETATM    1  C   UNL     1       7.090  26.995  55.577  1.00  0.00     0.179 C 
ENDROOT
BRANCH   1   2
HETATM    2  C   UNL     1       7.476  28.034  54.511  1.00  0.00     0.045 C 
BRANCH   2   3
HETATM    3  C   UNL     1       6.442  28.254  53.406  1.00  0.00     0.076 C 
BRANCH   3   4
HETATM    4  S   UNL     1       4.730  28.163  54.023  1.00  0.00    -0.173 SA
HETATM    5  C   UNL     1       4.632  29.796  54.796  1.00  0.00     0.089 C 
ENDBRANCH   3   4
ENDBRANCH   2   3
ENDBRANCH   1   2
BRANCH   1   6
HETATM    6  N   UNL     1       7.612  25.643  55.332  1.00  0.00    -0.344 N 
HETATM    7  C   UNL     1       6.941  24.639  54.682  1.00  0.00     0.254 C 
HETATM    8  O   UNL     1       5.822  24.815  54.208  1.00  0.00    -0.268 OA
HETATM    9  H   UNL     1       8.559  25.468  55.649  1.00  0.00     0.163 HD
BRANCH   7  10
HETATM   10  C   UNL     1       7.589  23.300  54.585  1.00  0.00     0.053 A 
HETATM   11  C   UNL     1       8.221  22.618  55.635  1.00  0.00     0.049 A 
HETATM   12 CL   UNL     1       8.398  23.258  57.232  1.00  0.00    -0.083 Cl
HETATM   13  C   UNL     1       8.784  21.353  55.411  1.00  0.00     0.025 A 
HETATM   14  C   UNL     1       8.729  20.762  54.149  1.00  0.00     0.002 A 
HETATM   15  C   UNL     1       8.117  21.436  53.098  1.00  0.00     0.001 A 
HETATM   16  C   UNL     1       7.555  22.695  53.313  1.00  0.00     0.019 A 
ENDBRANCH   7  10
ENDBRANCH   1   6
BRANCH   1  17
HETATM   17  C   UNL     1       7.425  27.538  56.982  1.00  0.00     0.259 C 
HETATM   18  N   UNL     1       7.247  28.890  57.168  1.00  0.00    -0.265 N 
HETATM   19  H   UNL     1       6.892  29.515  56.436  1.00  0.00     0.190 HD
HETATM   20  O   UNL     1       7.696  26.789  57.926  1.00  0.00    -0.269 OA
BRANCH  18  21
HETATM   21  N   UNL     1       7.440  29.421  58.446  1.00  0.00    -0.263 N 
HETATM   22  C   UNL     1       7.218  30.770  58.640  1.00  0.00     0.270 C 
HETATM   23  O   UNL     1       6.781  31.511  57.763  1.00  0.00    -0.266 OA
HETATM   24  H   UNL     1       8.015  28.855  59.068  1.00  0.00     0.190 HD
BRANCH  22  25
HETATM   25  C   UNL     1       7.555  31.314  59.989  1.00  0.00     0.033 A 
HETATM   26  C   UNL     1       8.697  30.915  60.700  1.00  0.00     0.020 A 
HETATM   27  C   UNL     1       8.955  31.442  61.971  1.00  0.00     0.037 A 
HETATM   28  C   UNL     1       8.068  32.357  62.529  1.00  0.00     0.065 A 
HETATM   29  C   UNL     1       6.929  32.755  61.840  1.00  0.00     0.037 A 
HETATM   30  C   UNL     1       6.670  32.232  60.572  1.00  0.00     0.020 A 
BRANCH  28  31
HETATM   31  O   UNL     1       8.280  32.887  63.766  1.00  0.00    -0.361 OA
HETATM   32  H   UNL     1       8.659  33.775  63.668  1.00  0.00     0.217 HD
ENDBRANCH  28  31
ENDBRANCH  22  25
ENDBRANCH  18  21
ENDBRANCH   1  17
TORSDOF 9
ENDMDL
MODEL 5
REMARK VINA RESULT:      -8.1      4.439      7.361
REMARK  9 active torsions:
REMARK  status: ('A' for Active; 'I' for Inactive)
REMARK    1  A    between atoms: S_2  and  C_3 
REMARK    2  A    between atoms: C_3  and  C_4 
REMARK    3  A    between atoms: C_4  and  C_5 
REMARK    4  A    between atoms: C_5  and  N_6 
REMARK    5  A    between atoms: C_5  and  C_16 
REMARK       I    between atoms: N_6  and  C_7 
REMARK    6  A    between atoms: C_7  and  C_8 
REMARK       I    between atoms: C_16  and  N_17 
REMARK    7  A    between atoms: N_17  and  N_18 
REMARK       I    between atoms: N_18  and  C_19 
REMARK    8  A    between atoms: C_19  and  C_20 
REMARK    9  A    between atoms: C_23  and  O_24 
ROOT
HETATM    1  C   UNL     1       6.468  24.933  53.887  1.00  0.00     0.179 C 
ENDROOT
BRANCH   1   2
HETATM    2  C   UNL     1       7.748  24.406  53.219  1.00  0.00     0.045 C 
BRANCH   2   3
HETATM    3  C   UNL     1       7.862  22.884  53.128  1.00  0.00     0.076 C 
BRANCH   3   4
HETATM    4  S   UNL     1       7.892  22.087  54.767  1.00  0.00    -0.173 SA
HETATM    5  C   UNL     1       9.070  23.190  55.584  1.00  0.00     0.089 C 
ENDBRANCH   3   4
ENDBRANCH   2   3
ENDBRANCH   1   2
BRANCH   1   6
HETATM    6  N   UNL     1       6.656  26.135  54.709  1.00  0.00    -0.344 N 
HETATM    7  C   UNL     1       6.497  26.199  56.070  1.00  0.00     0.254 C 
HETATM    8  O   UNL     1       6.206  25.206  56.731  1.00  0.00    -0.268 OA
HETATM    9  H   UNL     1       6.959  26.968  54.217  1.00  0.00     0.163 HD
BRANCH   7  10
HETATM   10  C   UNL     1       6.654  27.521  56.742  1.00  0.00     0.053 A 
HETATM   11  C   UNL     1       5.682  28.530  56.802  1.00  0.00     0.049 A 
HETATM   12 CL   UNL     1       4.131  28.420  56.047  1.00  0.00    -0.083 Cl
HETATM   13  C   UNL     1       5.956  29.728  57.478  1.00  0.00     0.025 A 
HETATM   14  C   UNL     1       7.192  29.933  58.091  1.00  0.00     0.002 A 
HETATM   15  C   UNL     1       8.168  28.945  58.025  1.00  0.00     0.001 A 
HETATM   16  C   UNL     1       7.902  27.750  57.354  1.00  0.00     0.019 A 
ENDBRANCH   7  10
ENDBRANCH   1   6
BRANCH   1  17
HETATM   17  C   UNL     1       5.349  25.078  52.833  1.00  0.00     0.259 C 
HETATM   18  N   UNL     1       5.707  25.679  51.648  1.00  0.00    -0.265 N 
HETATM   19  H   UNL     1       6.661  25.999  51.446  1.00  0.00     0.190 HD
HETATM   20  O   UNL     1       4.239  24.558  52.981  1.00  0.00    -0.269 OA
BRANCH  18  21
HETATM   21  N   UNL     1       4.762  25.750  50.621  1.00  0.00    -0.263 N 
HETATM   22  C   UNL     1       4.729  26.883  49.831  1.00  0.00     0.270 C 
HETATM   23  O   UNL     1       5.542  27.797  49.937  1.00  0.00    -0.266 OA
HETATM   24  H   UNL     1       3.976  25.110  50.711  1.00  0.00     0.190 HD
BRANCH  22  25
HETATM   25  C   UNL     1       3.626  26.965  48.829  1.00  0.00     0.033 A 
HETATM   26  C   UNL     1       2.659  27.982  48.853  1.00  0.00     0.020 A 
HETATM   27  C   UNL     1       1.633  28.001  47.900  1.00  0.00     0.037 A 
HETATM   28  C   UNL     1       1.573  27.000  46.936  1.00  0.00     0.065 A 
HETATM   29  C   UNL     1       2.517  25.982  46.906  1.00  0.00     0.037 A 
HETATM   30  C   UNL     1       3.542  25.961  47.853  1.00  0.00     0.020 A 
BRANCH  28  31
HETATM   31  O   UNL     1       0.586  26.979  45.997  1.00  0.00    -0.361 OA
HETATM   32  H   UNL     1       0.321  27.891  45.797  1.00  0.00     0.217 HD
ENDBRANCH  28  31
ENDBRANCH  22  25
ENDBRANCH  18  21
ENDBRANCH   1  17
TORSDOF 9
ENDMDL
MODEL 6
REMARK VINA RESULT:      -8.1      3.353      6.845
REMARK  9 active torsions:
REMARK  status: ('A' for Active; 'I' for Inactive)
REMARK    1  A    between atoms: S_2  and  C_3 
REMARK    2  A    between atoms: C_3  and  C_4 
REMARK    3  A    between atoms: C_4  and  C_5 
REMARK    4  A    between atoms: C_5  and  N_6 
REMARK    5  A    between atoms: C_5  and  C_16 
REMARK       I    between atoms: N_6  and  C_7 
REMARK    6  A    between atoms: C_7  and  C_8 
REMARK       I    between atoms: C_16  and  N_17 
REMARK    7  A    between atoms: N_17  and  N_18 
REMARK       I    between atoms: N_18  and  C_19 
REMARK    8  A    between atoms: C_19  and  C_20 
REMARK    9  A    between atoms: C_23  and  O_24 
ROOT
HETATM    1  C   UNL     1       5.606  28.608  54.730  1.00  0.00     0.179 C 
ENDROOT
BRANCH   1   2
HETATM    2  C   UNL     1       6.471  29.465  55.668  1.00  0.00     0.045 C 
BRANCH   2   3
HETATM    3  C   UNL     1       6.308  29.172  57.160  1.00  0.00     0.076 C 
BRANCH   3   4
HETATM    4  S   UNL     1       7.863  28.623  57.937  1.00  0.00    -0.173 SA
HETATM    5  C   UNL     1       8.152  30.054  59.006  1.00  0.00     0.089 C 
ENDBRANCH   3   4
ENDBRANCH   2   3
ENDBRANCH   1   2
BRANCH   1   6
HETATM    6  N   UNL     1       5.608  29.042  53.326  1.00  0.00    -0.344 N 
HETATM    7  C   UNL     1       4.610  28.798  52.418  1.00  0.00     0.254 C 
HETATM    8  O   UNL     1       3.584  28.202  52.734  1.00  0.00    -0.268 OA
HETATM    9  H   UNL     1       6.407  29.593  53.032  1.00  0.00     0.163 HD
BRANCH   7  10
HETATM   10  C   UNL     1       4.807  29.246  51.009  1.00  0.00     0.053 A 
HETATM   11  C   UNL     1       4.885  28.409  49.886  1.00  0.00     0.049 A 
HETATM   12 CL   UNL     1       4.814  26.684  49.964  1.00  0.00    -0.083 Cl
HETATM   13  C   UNL     1       5.062  28.963  48.610  1.00  0.00     0.025 A 
HETATM   14  C   UNL     1       5.168  30.343  48.441  1.00  0.00     0.002 A 
HETATM   15  C   UNL     1       5.107  31.181  49.549  1.00  0.00     0.001 A 
HETATM   16  C   UNL     1       4.931  30.637  50.822  1.00  0.00     0.019 A 
ENDBRANCH   7  10
ENDBRANCH   1   6
BRANCH   1  17
HETATM   17  C   UNL     1       5.956  27.116  54.912  1.00  0.00     0.259 C 
HETATM   18  N   UNL     1       7.169  26.711  54.403  1.00  0.00    -0.265 N 
HETATM   19  H   UNL     1       7.828  27.351  53.947  1.00  0.00     0.190 HD
HETATM   20  O   UNL     1       5.262  26.359  55.598  1.00  0.00    -0.269 OA
BRANCH  18  21
HETATM   21  N   UNL     1       7.582  25.395  54.625  1.00  0.00    -0.263 N 
HETATM   22  C   UNL     1       7.856  24.596  53.531  1.00  0.00     0.270 C 
HETATM   23  O   UNL     1       7.832  25.011  52.375  1.00  0.00    -0.266 OA
HETATM   24  H   UNL     1       7.365  25.022  55.546  1.00  0.00     0.190 HD
BRANCH  22  25
HETATM   25  C   UNL     1       8.174  23.166  53.813  1.00  0.00     0.033 A 
HETATM   26  C   UNL     1       7.844  22.130  52.925  1.00  0.00     0.020 A 
HETATM   27  C   UNL     1       8.148  20.802  53.249  1.00  0.00     0.037 A 
HETATM   28  C   UNL     1       8.770  20.514  54.459  1.00  0.00     0.065 A 
HETATM   29  C   UNL     1       9.094  21.528  55.351  1.00  0.00     0.037 A 
HETATM   30  C   UNL     1       8.794  22.853  55.032  1.00  0.00     0.020 A 
BRANCH  28  31
HETATM   31  O   UNL     1       9.075  19.234  54.813  1.00  0.00    -0.361 OA
HETATM   32  H   UNL     1       9.208  18.708  54.009  1.00  0.00     0.217 HD
ENDBRANCH  28  31
ENDBRANCH  22  25
ENDBRANCH  18  21
ENDBRANCH   1  17
TORSDOF 9
ENDMDL
MODEL 7
REMARK VINA RESULT:      -7.9      2.422      5.333
REMARK  9 active torsions:
REMARK  status: ('A' for Active; 'I' for Inactive)
REMARK    1  A    between atoms: S_2  and  C_3 
REMARK    2  A    between atoms: C_3  and  C_4 
REMARK    3  A    between atoms: C_4  and  C_5 
REMARK    4  A    between atoms: C_5  and  N_6 
REMARK    5  A    between atoms: C_5  and  C_16 
REMARK       I    between atoms: N_6  and  C_7 
REMARK    6  A    between atoms: C_7  and  C_8 
REMARK       I    between atoms: C_16  and  N_17 
REMARK    7  A    between atoms: N_17  and  N_18 
REMARK       I    between atoms: N_18  and  C_19 
REMARK    8  A    between atoms: C_19  and  C_20 
REMARK    9  A    between atoms: C_23  and  O_24 
ROOT
HETATM    1  C   UNL     1       6.893  28.679  57.223  1.00  0.00     0.179 C 
ENDROOT
BRANCH   1   2
HETATM    2  C   UNL     1       8.007  29.614  57.721  1.00  0.00     0.045 C 
BRANCH   2   3
HETATM    3  C   UNL     1       7.563  30.697  58.705  1.00  0.00     0.076 C 
BRANCH   3   4
HETATM    4  S   UNL     1       8.964  31.657  59.366  1.00  0.00    -0.173 SA
HETATM    5  C   UNL     1      10.200  31.231  58.115  1.00  0.00     0.089 C 
ENDBRANCH   3   4
ENDBRANCH   2   3
ENDBRANCH   1   2
BRANCH   1   6
HETATM    6  N   UNL     1       6.165  29.167  56.043  1.00  0.00    -0.344 N 
HETATM    7  C   UNL     1       4.875  28.839  55.715  1.00  0.00     0.254 C 
HETATM    8  O   UNL     1       4.194  28.110  56.431  1.00  0.00    -0.268 OA
HETATM    9  H   UNL     1       6.664  29.824  55.453  1.00  0.00     0.163 HD
BRANCH   7  10
HETATM   10  C   UNL     1       4.312  29.365  54.438  1.00  0.00     0.053 A 
HETATM   11  C   UNL     1       4.133  30.719  54.118  1.00  0.00     0.049 A 
HETATM   12 CL   UNL     1       4.497  32.021  55.197  1.00  0.00    -0.083 Cl
HETATM   13  C   UNL     1       3.601  31.081  52.872  1.00  0.00     0.025 A 
HETATM   14  C   UNL     1       3.239  30.107  51.942  1.00  0.00     0.002 A 
HETATM   15  C   UNL     1       3.398  28.761  52.255  1.00  0.00     0.001 A 
HETATM   16  C   UNL     1       3.928  28.394  53.493  1.00  0.00     0.019 A 
ENDBRANCH   7  10
ENDBRANCH   1   6
BRANCH   1  17
HETATM   17  C   UNL     1       7.446  27.249  57.055  1.00  0.00     0.259 C 
HETATM   18  N   UNL     1       7.092  26.593  55.897  1.00  0.00    -0.265 N 
HETATM   19  H   UNL     1       6.515  27.020  55.165  1.00  0.00     0.190 HD
HETATM   20  O   UNL     1       8.273  26.770  57.837  1.00  0.00    -0.269 OA
BRANCH  18  21
HETATM   21  N   UNL     1       7.642  25.333  55.646  1.00  0.00    -0.263 N 
HETATM   22  C   UNL     1       6.971  24.478  54.794  1.00  0.00     0.270 C 
HETATM   23  O   UNL     1       5.955  24.801  54.184  1.00  0.00    -0.266 OA
HETATM   24  H   UNL     1       8.327  25.016  56.329  1.00  0.00     0.190 HD
BRANCH  22  25
HETATM   25  C   UNL     1       7.531  23.102  54.653  1.00  0.00     0.033 A 
HETATM   26  C   UNL     1       7.705  22.482  53.406  1.00  0.00     0.020 A 
HETATM   27  C   UNL     1       8.216  21.181  53.332  1.00  0.00     0.037 A 
HETATM   28  C   UNL     1       8.543  20.503  54.502  1.00  0.00     0.065 A 
HETATM   29  C   UNL     1       8.368  21.101  55.743  1.00  0.00     0.037 A 
HETATM   30  C   UNL     1       7.859  22.398  55.821  1.00  0.00     0.020 A 
BRANCH  28  31
HETATM   31  O   UNL     1       9.036  19.233  54.472  1.00  0.00    -0.361 OA
HETATM   32  H   UNL     1       8.418  18.666  53.983  1.00  0.00     0.217 HD
ENDBRANCH  28  31
ENDBRANCH  22  25
ENDBRANCH  18  21
ENDBRANCH   1  17
TORSDOF 9
ENDMDL
MODEL 8
REMARK VINA RESULT:      -7.9      3.307      8.951
REMARK  9 active torsions:
REMARK  status: ('A' for Active; 'I' for Inactive)
REMARK    1  A    between atoms: S_2  and  C_3 
REMARK    2  A    between atoms: C_3  and  C_4 
REMARK    3  A    between atoms: C_4  and  C_5 
REMARK    4  A    between atoms: C_5  and  N_6 
REMARK    5  A    between atoms: C_5  and  C_16 
REMARK       I    between atoms: N_6  and  C_7 
REMARK    6  A    between atoms: C_7  and  C_8 
REMARK       I    between atoms: C_16  and  N_17 
REMARK    7  A    between atoms: N_17  and  N_18 
REMARK       I    between atoms: N_18  and  C_19 
REMARK    8  A    between atoms: C_19  and  C_20 
REMARK    9  A    between atoms: C_23  and  O_24 
ROOT
HETATM    1  C   UNL     1       5.089  25.791  52.538  1.00  0.00     0.179 C 
ENDROOT
BRANCH   1   2
HETATM    2  C   UNL     1       5.417  25.951  51.044  1.00  0.00     0.045 C 
BRANCH   2   3
HETATM    3  C   UNL     1       4.593  27.003  50.302  1.00  0.00     0.076 C 
BRANCH   3   4
HETATM    4  S   UNL     1       4.670  26.802  48.492  1.00  0.00    -0.173 SA
HETATM    5  C   UNL     1       3.328  25.604  48.294  1.00  0.00     0.089 C 
ENDBRANCH   3   4
ENDBRANCH   2   3
ENDBRANCH   1   2
BRANCH   1   6
HETATM    6  N   UNL     1       5.681  24.605  53.172  1.00  0.00    -0.344 N 
HETATM    7  C   UNL     1       7.013  24.277  53.155  1.00  0.00     0.254 C 
HETATM    8  O   UNL     1       7.846  25.000  52.616  1.00  0.00    -0.268 OA
HETATM    9  H   UNL     1       5.041  24.008  53.685  1.00  0.00     0.163 HD
BRANCH   7  10
HETATM   10  C   UNL     1       7.436  22.994  53.786  1.00  0.00     0.053 A 
HETATM   11  C   UNL     1       7.526  22.749  55.164  1.00  0.00     0.049 A 
HETATM   12 CL   UNL     1       7.203  23.938  56.377  1.00  0.00    -0.083 Cl
HETATM   13  C   UNL     1       7.928  21.488  55.628  1.00  0.00     0.025 A 
HETATM   14  C   UNL     1       8.248  20.469  54.731  1.00  0.00     0.002 A 
HETATM   15  C   UNL     1       8.176  20.705  53.363  1.00  0.00     0.001 A 
HETATM   16  C   UNL     1       7.776  21.958  52.894  1.00  0.00     0.019 A 
ENDBRANCH   7  10
ENDBRANCH   1   6
BRANCH   1  17
HETATM   17  C   UNL     1       5.398  27.105  53.286  1.00  0.00     0.259 C 
HETATM   18  N   UNL     1       4.619  27.373  54.388  1.00  0.00    -0.265 N 
HETATM   19  H   UNL     1       3.886  26.740  54.725  1.00  0.00     0.190 HD
HETATM   20  O   UNL     1       6.377  27.804  53.004  1.00  0.00    -0.269 OA
BRANCH  18  21
HETATM   21  N   UNL     1       4.917  28.499  55.160  1.00  0.00    -0.263 N 
HETATM   22  C   UNL     1       5.239  28.320  56.492  1.00  0.00     0.270 C 
HETATM   23  O   UNL     1       5.355  27.212  57.010  1.00  0.00    -0.266 OA
HETATM   24  H   UNL     1       4.587  29.384  54.781  1.00  0.00     0.190 HD
BRANCH  22  25
HETATM   25  C   UNL     1       5.430  29.557  57.304  1.00  0.00     0.033 A 
HETATM   26  C   UNL     1       6.686  29.963  57.779  1.00  0.00     0.020 A 
HETATM   27  C   UNL     1       6.806  31.122  58.555  1.00  0.00     0.037 A 
HETATM   28  C   UNL     1       5.669  31.864  58.860  1.00  0.00     0.065 A 
HETATM   29  C   UNL     1       4.418  31.469  58.406  1.00  0.00     0.037 A 
HETATM   30  C   UNL     1       4.296  30.315  57.631  1.00  0.00     0.020 A 
BRANCH  28  31
HETATM   31  O   UNL     1       5.743  32.994  59.619  1.00  0.00    -0.361 OA
HETATM   32  H   UNL     1       5.205  32.873  60.418  1.00  0.00     0.217 HD
ENDBRANCH  28  31
ENDBRANCH  22  25
ENDBRANCH  18  21
ENDBRANCH   1  17
TORSDOF 9
ENDMDL
MODEL 9
REMARK VINA RESULT:      -7.9      4.696      8.271
REMARK  9 active torsions:
REMARK  status: ('A' for Active; 'I' for Inactive)
REMARK    1  A    between atoms: S_2  and  C_3 
REMARK    2  A    between atoms: C_3  and  C_4 
REMARK    3  A    between atoms: C_4  and  C_5 
REMARK    4  A    between atoms: C_5  and  N_6 
REMARK    5  A    between atoms: C_5  and  C_16 
REMARK       I    between atoms: N_6  and  C_7 
REMARK    6  A    between atoms: C_7  and  C_8 
REMARK       I    between atoms: C_16  and  N_17 
REMARK    7  A    between atoms: N_17  and  N_18 
REMARK       I    between atoms: N_18  and  C_19 
REMARK    8  A    between atoms: C_19  and  C_20 
REMARK    9  A    between atoms: C_23  and  O_24 
ROOT
HETATM    1  C   UNL     1       5.649  27.542  54.510  1.00  0.00     0.179 C 
ENDROOT
BRANCH   1   2
HETATM    2  C   UNL     1       4.963  28.395  55.589  1.00  0.00     0.045 C 
BRANCH   2   3
HETATM    3  C   UNL     1       5.754  29.616  56.061  1.00  0.00     0.076 C 
BRANCH   3   4
HETATM    4  S   UNL     1       4.689  31.064  56.362  1.00  0.00    -0.173 SA
HETATM    5  C   UNL     1       3.592  30.896  54.932  1.00  0.00     0.089 C 
ENDBRANCH   3   4
ENDBRANCH   2   3
ENDBRANCH   1   2
BRANCH   1   6
HETATM    6  N   UNL     1       6.184  26.260  54.989  1.00  0.00    -0.344 N 
HETATM    7  C   UNL     1       7.316  25.647  54.517  1.00  0.00     0.254 C 
HETATM    8  O   UNL     1       8.012  26.162  53.647  1.00  0.00    -0.268 OA
HETATM    9  H   UNL     1       5.679  25.825  55.753  1.00  0.00     0.163 HD
BRANCH   7  10
HETATM   10  C   UNL     1       7.677  24.307  55.065  1.00  0.00     0.053 A 
HETATM   11  C   UNL     1       7.769  23.118  54.327  1.00  0.00     0.049 A 
HETATM   12 CL   UNL     1       7.421  23.003  52.637  1.00  0.00    -0.083 Cl
HETATM   13  C   UNL     1       8.132  21.923  54.965  1.00  0.00     0.025 A 
HETATM   14  C   UNL     1       8.398  21.899  56.333  1.00  0.00     0.002 A 
HETATM   15  C   UNL     1       8.296  23.069  57.077  1.00  0.00     0.001 A 
HETATM   16  C   UNL     1       7.936  24.262  56.449  1.00  0.00     0.019 A 
ENDBRANCH   7  10
ENDBRANCH   1   6
BRANCH   1  17
HETATM   17  C   UNL     1       4.720  27.401  53.286  1.00  0.00     0.259 C 
HETATM   18  N   UNL     1       5.224  26.689  52.220  1.00  0.00    -0.265 N 
HETATM   19  H   UNL     1       6.151  26.250  52.227  1.00  0.00     0.190 HD
HETATM   20  O   UNL     1       3.543  27.775  53.310  1.00  0.00    -0.269 OA
BRANCH  18  21
HETATM   21  N   UNL     1       4.392  26.446  51.124  1.00  0.00    -0.263 N 
HETATM   22  C   UNL     1       4.537  27.232  49.998  1.00  0.00     0.270 C 
HETATM   23  O   UNL     1       5.416  28.083  49.884  1.00  0.00    -0.266 OA
HETATM   24  H   UNL     1       3.546  25.920  51.331  1.00  0.00     0.190 HD
BRANCH  22  25
HETATM   25  C   UNL     1       3.548  27.017  48.902  1.00  0.00     0.033 A 
HETATM   26  C   UNL     1       3.647  25.952  47.994  1.00  0.00     0.020 A 
HETATM   27  C   UNL     1       2.701  25.809  46.971  1.00  0.00     0.037 A 
HETATM   28  C   UNL     1       1.669  26.733  46.855  1.00  0.00     0.065 A 
HETATM   29  C   UNL     1       1.563  27.797  47.741  1.00  0.00     0.037 A 
HETATM   30  C   UNL     1       2.503  27.943  48.763  1.00  0.00     0.020 A 
BRANCH  28  31
HETATM   31  O   UNL     1       0.733  26.632  45.869  1.00  0.00    -0.361 OA
HETATM   32  H   UNL     1       1.167  26.334  45.053  1.00  0.00     0.217 HD
ENDBRANCH  28  31
ENDBRANCH  22  25
ENDBRANCH  18  21
ENDBRANCH   1  17
TORSDOF 9
ENDMDL
MODEL 10
REMARK VINA RESULT:      -7.7      2.925      5.988
REMARK  9 active torsions:
REMARK  status: ('A' for Active; 'I' for Inactive)
REMARK    1  A    between atoms: S_2  and  C_3 
REMARK    2  A    between atoms: C_3  and  C_4 
REMARK    3  A    between atoms: C_4  and  C_5 
REMARK    4  A    between atoms: C_5  and  N_6 
REMARK    5  A    between atoms: C_5  and  C_16 
REMARK       I    between atoms: N_6  and  C_7 
REMARK    6  A    between atoms: C_7  and  C_8 
REMARK       I    between atoms: C_16  and  N_17 
REMARK    7  A    between atoms: N_17  and  N_18 
REMARK       I    between atoms: N_18  and  C_19 
REMARK    8  A    between atoms: C_19  and  C_20 
REMARK    9  A    between atoms: C_23  and  O_24 
ROOT
HETATM    1  C   UNL     1       4.753  28.254  55.606  1.00  0.00     0.179 C 
ENDROOT
BRANCH   1   2
HETATM    2  C   UNL     1       5.120  29.067  56.858  1.00  0.00     0.045 C 
BRANCH   2   3
HETATM    3  C   UNL     1       5.847  30.385  56.594  1.00  0.00     0.076 C 
BRANCH   3   4
HETATM    4  S   UNL     1       6.640  31.058  58.091  1.00  0.00    -0.173 SA
HETATM    5  C   UNL     1       7.815  29.718  58.402  1.00  0.00     0.089 C 
ENDBRANCH   3   4
ENDBRANCH   2   3
ENDBRANCH   1   2
BRANCH   1   6
HETATM    6  N   UNL     1       5.044  28.925  54.332  1.00  0.00    -0.344 N 
HETATM    7  C   UNL     1       4.249  28.887  53.215  1.00  0.00     0.254 C 
HETATM    8  O   UNL     1       3.176  28.292  53.209  1.00  0.00    -0.268 OA
HETATM    9  H   UNL     1       5.890  29.484  54.307  1.00  0.00     0.163 HD
BRANCH   7  10
HETATM   10  C   UNL     1       4.732  29.566  51.977  1.00  0.00     0.053 A 
HETATM   11  C   UNL     1       4.630  30.937  51.703  1.00  0.00     0.049 A 
HETATM   12 CL   UNL     1       3.866  32.077  52.755  1.00  0.00    -0.083 Cl
HETATM   13  C   UNL     1       5.138  31.451  50.500  1.00  0.00     0.025 A 
HETATM   14  C   UNL     1       5.740  30.611  49.565  1.00  0.00     0.002 A 
HETATM   15  C   UNL     1       5.834  29.247  49.821  1.00  0.00     0.001 A 
HETATM   16  C   UNL     1       5.331  28.729  51.016  1.00  0.00     0.019 A 
ENDBRANCH   7  10
ENDBRANCH   1   6
BRANCH   1  17
HETATM   17  C   UNL     1       5.357  26.837  55.706  1.00  0.00     0.259 C 
HETATM   18  N   UNL     1       6.311  26.517  54.766  1.00  0.00    -0.265 N 
HETATM   19  H   UNL     1       6.633  27.174  54.048  1.00  0.00     0.190 HD
HETATM   20  O   UNL     1       5.111  26.085  56.654  1.00  0.00    -0.269 OA
BRANCH  18  21
HETATM   21  N   UNL     1       6.963  25.285  54.867  1.00  0.00    -0.263 N 
HETATM   22  C   UNL     1       6.681  24.311  53.929  1.00  0.00     0.270 C 
HETATM   23  O   UNL     1       5.945  24.503  52.964  1.00  0.00    -0.266 OA
HETATM   24  H   UNL     1       7.363  25.080  55.780  1.00  0.00     0.190 HD
BRANCH  22  25
HETATM   25  C   UNL     1       7.306  22.974  54.148  1.00  0.00     0.033 A 
HETATM   26  C   UNL     1       7.487  22.425  55.427  1.00  0.00     0.020 A 
HETATM   27  C   UNL     1       8.098  21.174  55.576  1.00  0.00     0.037 A 
HETATM   28  C   UNL     1       8.533  20.483  54.450  1.00  0.00     0.065 A 
HETATM   29  C   UNL     1       8.369  21.018  53.179  1.00  0.00     0.037 A 
HETATM   30  C   UNL     1       7.758  22.263  53.026  1.00  0.00     0.020 A 
BRANCH  28  31
HETATM   31  O   UNL     1       9.139  19.267  54.555  1.00  0.00    -0.361 OA
HETATM   32  H   UNL     1      10.091  19.399  54.690  1.00  0.00     0.217 HD
ENDBRANCH  28  31
ENDBRANCH  22  25
ENDBRANCH  18  21
ENDBRANCH   1  17
TORSDOF 9
ENDMDL
