MODEL 1
REMARK VINA RESULT:      -8.4      0.000      0.000
REMARK  8 active torsions:
REMARK  status: ('A' for Active; 'I' for Inactive)
REMARK    1  A    between atoms: C_2  and  O_3 
REMARK    2  A    between atoms: O_3  and  C_4 
REMARK    3  A    between atoms: C_5  and  O_6 
REMARK    4  A    between atoms: O_6  and  C_7 
REMARK       I    between atoms: C_7  and  N_8 
REMARK    5  A    between atoms: C_18  and  C_19 
REMARK    6  A    between atoms: C_23  and  N_24 
REMARK    7  A    between atoms: C_31  and  C_32 
REMARK    8  A    between atoms: C_35  and  O_36 
ROOT
HETATM    1  C   UNL     1       6.529  25.732  54.972  1.00  0.00     0.105 C 
HETATM    2  C   UNL     1       7.601  24.783  55.519  1.00  0.00     0.067 C 
HETATM    3  C   UNL     1       7.881  24.803  57.013  1.00  0.00     0.020 C 
HETATM    4  N   UNL     1       8.114  24.821  58.252  1.00  0.00    -0.096 N 
HETATM    5  C   UNL     1       8.315  23.933  54.734  1.00  0.00     0.139 C 
HETATM    6  O   UNL     1       8.129  23.883  53.346  1.00  0.00    -0.279 OA
HETATM    7  C   UNL     1       7.326  24.801  52.825  1.00  0.00     0.175 A 
HETATM    8  C   UNL     1       6.554  25.739  53.471  1.00  0.00     0.040 A 
HETATM    9  N   UNL     1       7.162  24.987  51.495  1.00  0.00    -0.256 N 
HETATM   10  H   UNL     1       7.587  24.472  50.732  1.00  0.00     0.191 HD
HETATM   11  N   UNL     1       6.356  26.019  51.212  1.00  0.00    -0.172 NA
HETATM   12  C   UNL     1       5.969  26.503  52.410  1.00  0.00     0.099 A 
ENDROOT
BRANCH   1  13
HETATM   13  C   UNL     1       6.601  27.153  55.517  1.00  0.00    -0.040 C 
HETATM   14  C   UNL     1       5.525  27.835  56.109  1.00  0.00     0.030 C 
HETATM   15  C   UNL     1       5.737  29.053  56.763  1.00  0.00     0.048 C 
HETATM   16  C   UNL     1       7.002  29.644  56.748  1.00  0.00     0.131 C 
HETATM   17 BR   UNL     1       4.288  29.846  57.697  1.00  0.00    -0.048 Br
HETATM   18  C   UNL     1       8.042  29.082  55.999  1.00  0.00     0.104 C 
HETATM   19  C   UNL     1       7.846  27.821  55.434  1.00  0.00     0.048 C 
BRANCH  16  20
HETATM   20  O   UNL     1       7.213  30.834  57.462  1.00  0.00    -0.257 OA
BRANCH  20  21
HETATM   21  C   UNL     1       7.690  30.628  58.756  1.00  0.00     0.368 C 
HETATM   22  N   UNL     1       7.438  31.703  59.592  1.00  0.00    -0.324 N 
HETATM   23  C   UNL     1       6.411  32.707  59.326  1.00  0.00     0.154 C 
HETATM   24  C   UNL     1       7.855  31.642  60.989  1.00  0.00     0.154 C 
HETATM   25  C   UNL     1       5.226  32.490  60.280  1.00  0.00     0.187 C 
HETATM   26  O   UNL     1       5.658  32.490  61.653  1.00  0.00    -0.388 OA
HETATM   27  C   UNL     1       6.630  31.453  61.890  1.00  0.00     0.187 C 
HETATM   28  O   UNL     1       8.273  29.616  59.138  1.00  0.00    -0.238 OA
ENDBRANCH  20  21
ENDBRANCH  16  20
BRANCH  18  29
HETATM   29  O   UNL     1       9.204  29.800  55.925  1.00  0.00    -0.349 OA
BRANCH  29  30
HETATM   30  C   UNL     1      10.412  29.208  56.402  1.00  0.00     0.171 C 
HETATM   31  C   UNL     1      11.157  30.140  57.342  1.00  0.00     0.034 C 
ENDBRANCH  29  30
ENDBRANCH  18  29
ENDBRANCH   1  13
BRANCH   5  32
HETATM   32  N   UNL     1       9.273  23.048  55.172  1.00  0.00    -0.282 NA
HETATM   33  H   UNL     1      10.241  23.332  55.045  1.00  0.00     0.126 HD
HETATM   34  H   UNL     1       9.077  22.698  56.107  1.00  0.00     0.126 HD
ENDBRANCH   5  32
BRANCH  12  35
HETATM   35  C   UNL     1       5.145  27.713  52.456  1.00  0.00    -0.005 A 
HETATM   36  C   UNL     1       3.921  27.761  53.125  1.00  0.00     0.016 A 
HETATM   37  C   UNL     1       3.212  28.966  53.204  1.00  0.00     0.037 A 
HETATM   38  C   UNL     1       3.700  30.132  52.607  1.00  0.00     0.068 A 
HETATM   39  C   UNL     1       4.908  30.084  51.918  1.00  0.00     0.037 A 
HETATM   40  C   UNL     1       5.623  28.884  51.843  1.00  0.00     0.016 A 
BRANCH  38  41
HETATM   41  O   UNL     1       2.911  31.238  52.762  1.00  0.00    -0.356 OA
HETATM   42  C   UNL     1       2.955  31.885  54.028  1.00  0.00     0.210 C 
ENDBRANCH  38  41
ENDBRANCH  12  35
TORSDOF 8
ENDMDL
MODEL 2
REMARK VINA RESULT:      -7.9      3.422      8.790
REMARK  8 active torsions:
REMARK  status: ('A' for Active; 'I' for Inactive)
REMARK    1  A    between atoms: C_2  and  O_3 
REMARK    2  A    between atoms: O_3  and  C_4 
REMARK    3  A    between atoms: C_5  and  O_6 
REMARK    4  A    between atoms: O_6  and  C_7 
REMARK       I    between atoms: C_7  and  N_8 
REMARK    5  A    between atoms: C_18  and  C_19 
REMARK    6  A    between atoms: C_23  and  N_24 
REMARK    7  A    between atoms: C_31  and  C_32 
REMARK    8  A    between atoms: C_35  and  O_36 
ROOT
HETATM    1  C   UNL     1       5.137  28.645  55.859  1.00  0.00     0.105 C 
HETATM    2  C   UNL     1       4.811  30.131  56.045  1.00  0.00     0.067 C 
HETATM    3  C   UNL     1       3.721  30.740  55.179  1.00  0.00     0.020 C 
HETATM    4  N   UNL     1       2.818  31.245  54.460  1.00  0.00    -0.096 N 
HETATM    5  C   UNL     1       5.454  30.928  56.940  1.00  0.00     0.139 C 
HETATM    6  O   UNL     1       6.489  30.440  57.749  1.00  0.00    -0.279 OA
HETATM    7  C   UNL     1       6.900  29.204  57.500  1.00  0.00     0.175 A 
HETATM    8  C   UNL     1       6.378  28.282  56.622  1.00  0.00     0.040 A 
HETATM    9  N   UNL     1       7.984  28.642  58.081  1.00  0.00    -0.256 N 
HETATM   10  H   UNL     1       8.605  29.045  58.774  1.00  0.00     0.191 HD
HETATM   11  N   UNL     1       8.241  27.412  57.618  1.00  0.00    -0.172 NA
HETATM   12  C   UNL     1       7.270  27.165  56.715  1.00  0.00     0.099 A 
ENDROOT
BRANCH   1  13
HETATM   13  C   UNL     1       5.248  28.196  54.407  1.00  0.00    -0.040 C 
HETATM   14  C   UNL     1       5.042  26.880  53.962  1.00  0.00     0.030 C 
HETATM   15  C   UNL     1       4.963  26.604  52.592  1.00  0.00     0.048 C 
HETATM   16  C   UNL     1       5.185  27.619  51.660  1.00  0.00     0.131 C 
HETATM   17 BR   UNL     1       4.509  24.845  52.047  1.00  0.00    -0.048 Br
HETATM   18  C   UNL     1       5.585  28.894  52.078  1.00  0.00     0.104 C 
HETATM   19  C   UNL     1       5.565  29.182  53.442  1.00  0.00     0.048 C 
BRANCH  16  20
HETATM   20  O   UNL     1       5.039  27.341  50.293  1.00  0.00    -0.257 OA
BRANCH  20  21
HETATM   21  C   UNL     1       3.861  27.845  49.745  1.00  0.00     0.368 C 
HETATM   22  N   UNL     1       3.724  27.536  48.401  1.00  0.00    -0.324 N 
HETATM   23  C   UNL     1       4.444  26.445  47.749  1.00  0.00     0.154 C 
HETATM   24  C   UNL     1       2.534  27.971  47.679  1.00  0.00     0.154 C 
HETATM   25  C   UNL     1       3.473  25.287  47.472  1.00  0.00     0.187 C 
HETATM   26  O   UNL     1       2.335  25.734  46.710  1.00  0.00    -0.388 OA
HETATM   27  C   UNL     1       1.620  26.772  47.408  1.00  0.00     0.187 C 
HETATM   28  O   UNL     1       3.020  28.494  50.362  1.00  0.00    -0.238 OA
ENDBRANCH  20  21
ENDBRANCH  16  20
BRANCH  18  29
HETATM   29  O   UNL     1       5.918  29.787  51.095  1.00  0.00    -0.349 OA
BRANCH  29  30
HETATM   30  C   UNL     1       5.208  31.021  51.016  1.00  0.00     0.171 C 
HETATM   31  C   UNL     1       5.883  31.994  50.064  1.00  0.00     0.034 C 
ENDBRANCH  29  30
ENDBRANCH  18  29
ENDBRANCH   1  13
BRANCH   5  32
HETATM   32  N   UNL     1       5.191  32.260  57.163  1.00  0.00    -0.282 NA
HETATM   33  H   UNL     1       4.663  32.480  58.004  1.00  0.00     0.126 HD
HETATM   34  H   UNL     1       6.016  32.843  57.044  1.00  0.00     0.126 HD
ENDBRANCH   5  32
BRANCH  12  35
HETATM   35  C   UNL     1       7.316  25.922  55.942  1.00  0.00    -0.005 A 
HETATM   36  C   UNL     1       7.915  25.845  54.683  1.00  0.00     0.016 A 
HETATM   37  C   UNL     1       8.001  24.612  54.022  1.00  0.00     0.037 A 
HETATM   38  C   UNL     1       7.481  23.448  54.595  1.00  0.00     0.068 A 
HETATM   39  C   UNL     1       6.862  23.524  55.839  1.00  0.00     0.037 A 
HETATM   40  C   UNL     1       6.780  24.751  56.505  1.00  0.00     0.016 A 
BRANCH  38  41
HETATM   41  O   UNL     1       7.635  22.314  53.846  1.00  0.00    -0.356 OA
HETATM   42  C   UNL     1       8.959  21.815  53.702  1.00  0.00     0.210 C 
ENDBRANCH  38  41
ENDBRANCH  12  35
TORSDOF 8
ENDMDL
MODEL 3
REMARK VINA RESULT:      -7.8      6.199     10.815
REMARK  8 active torsions:
REMARK  status: ('A' for Active; 'I' for Inactive)
REMARK    1  A    between atoms: C_2  and  O_3 
REMARK    2  A    between atoms: O_3  and  C_4 
REMARK    3  A    between atoms: C_5  and  O_6 
REMARK    4  A    between atoms: O_6  and  C_7 
REMARK       I    between atoms: C_7  and  N_8 
REMARK    5  A    between atoms: C_18  and  C_19 
REMARK    6  A    between atoms: C_23  and  N_24 
REMARK    7  A    between atoms: C_31  and  C_32 
REMARK    8  A    between atoms: C_35  and  O_36 
ROOT
HETATM    1  C   UNL     1       4.410  33.201  63.430  1.00  0.00     0.105 C 
HETATM    2  C   UNL     1       3.394  34.068  64.182  1.00  0.00     0.067 C 
HETATM    3  C   UNL     1       1.995  34.198  63.602  1.00  0.00     0.020 C 
HETATM    4  N   UNL     1       0.835  34.307  63.121  1.00  0.00    -0.096 N 
HETATM    5  C   UNL     1       3.686  34.728  65.334  1.00  0.00     0.139 C 
HETATM    6  O   UNL     1       4.963  34.675  65.908  1.00  0.00    -0.279 OA
HETATM    7  C   UNL     1       5.904  34.067  65.199  1.00  0.00     0.175 A 
HETATM    8  C   UNL     1       5.781  33.376  64.016  1.00  0.00     0.040 A 
HETATM    9  N   UNL     1       7.214  34.064  65.536  1.00  0.00    -0.256 N 
HETATM   10  H   UNL     1       7.655  34.485  66.346  1.00  0.00     0.191 HD
HETATM   11  N   UNL     1       7.981  33.445  64.629  1.00  0.00    -0.172 NA
HETATM   12  C   UNL     1       7.125  33.014  63.679  1.00  0.00     0.099 A 
ENDROOT
BRANCH   1  13
HETATM   13  C   UNL     1       4.438  33.419  61.922  1.00  0.00    -0.040 C 
HETATM   14  C   UNL     1       4.364  32.392  60.967  1.00  0.00     0.030 C 
HETATM   15  C   UNL     1       4.190  32.700  59.613  1.00  0.00     0.048 C 
HETATM   16  C   UNL     1       4.185  34.032  59.194  1.00  0.00     0.131 C 
HETATM   17 BR   UNL     1       3.919  31.278  58.387  1.00  0.00    -0.048 Br
HETATM   18  C   UNL     1       4.454  35.065  60.100  1.00  0.00     0.104 C 
HETATM   19  C   UNL     1       4.528  34.753  61.458  1.00  0.00     0.048 C 
BRANCH  16  20
HETATM   20  O   UNL     1       3.946  34.327  57.843  1.00  0.00    -0.257 OA
BRANCH  20  21
HETATM   21  C   UNL     1       2.609  34.603  57.563  1.00  0.00     0.368 C 
HETATM   22  N   UNL     1       2.355  34.676  56.202  1.00  0.00    -0.324 N 
HETATM   23  C   UNL     1       3.223  34.083  55.189  1.00  0.00     0.154 C 
HETATM   24  C   UNL     1       0.998  34.938  55.736  1.00  0.00     0.154 C 
HETATM   25  C   UNL     1       2.550  32.827  54.613  1.00  0.00     0.187 C 
HETATM   26  O   UNL     1       1.235  33.126  54.110  1.00  0.00    -0.388 OA
HETATM   27  C   UNL     1       0.392  33.660  55.150  1.00  0.00     0.187 C 
HETATM   28  O   UNL     1       1.733  34.770  58.408  1.00  0.00    -0.238 OA
ENDBRANCH  20  21
ENDBRANCH  16  20
BRANCH  18  29
HETATM   29  O   UNL     1       4.570  36.325  59.579  1.00  0.00    -0.349 OA
BRANCH  29  30
HETATM   30  C   UNL     1       3.935  37.410  60.253  1.00  0.00     0.171 C 
HETATM   31  C   UNL     1       4.941  38.464  60.685  1.00  0.00     0.034 C 
ENDBRANCH  29  30
ENDBRANCH  18  29
ENDBRANCH   1  13
BRANCH   5  32
HETATM   32  N   UNL     1       2.810  35.502  66.060  1.00  0.00    -0.282 NA
HETATM   33  H   UNL     1       2.329  35.038  66.827  1.00  0.00     0.126 HD
HETATM   34  H   UNL     1       3.213  36.398  66.323  1.00  0.00     0.126 HD
ENDBRANCH   5  32
BRANCH  12  35
HETATM   35  C   UNL     1       7.662  32.369  62.478  1.00  0.00    -0.005 A 
HETATM   36  C   UNL     1       7.720  33.017  61.244  1.00  0.00     0.016 A 
HETATM   37  C   UNL     1       8.316  32.382  60.146  1.00  0.00     0.037 A 
HETATM   38  C   UNL     1       8.845  31.093  60.257  1.00  0.00     0.068 A 
HETATM   39  C   UNL     1       8.766  30.433  61.480  1.00  0.00     0.037 A 
HETATM   40  C   UNL     1       8.179  31.067  62.579  1.00  0.00     0.016 A 
BRANCH  38  41
HETATM   41  O   UNL     1       9.399  30.592  59.111  1.00  0.00    -0.356 OA
HETATM   42  C   UNL     1      10.163  31.495  58.320  1.00  0.00     0.210 C 
ENDBRANCH  38  41
ENDBRANCH  12  35
TORSDOF 8
ENDMDL
MODEL 4
REMARK VINA RESULT:      -7.8      3.450      8.468
REMARK  8 active torsions:
REMARK  status: ('A' for Active; 'I' for Inactive)
REMARK    1  A    between atoms: C_2  and  O_3 
REMARK    2  A    between atoms: O_3  and  C_4 
REMARK    3  A    between atoms: C_5  and  O_6 
REMARK    4  A    between atoms: O_6  and  C_7 
REMARK       I    between atoms: C_7  and  N_8 
REMARK    5  A    between atoms: C_18  and  C_19 
REMARK    6  A    between atoms: C_23  and  N_24 
REMARK    7  A    between atoms: C_31  and  C_32 
REMARK    8  A    between atoms: C_35  and  O_36 
ROOT
HETATM    1  C   UNL     1       4.098  33.941  60.313  1.00  0.00     0.105 C 
HETATM    2  C   UNL     1       3.657  33.488  61.709  1.00  0.00     0.067 C 
HETATM    3  C   UNL     1       4.578  32.564  62.487  1.00  0.00     0.020 C 
HETATM    4  N   UNL     1       5.342  31.797  63.133  1.00  0.00    -0.096 N 
HETATM    5  C   UNL     1       2.481  33.867  62.277  1.00  0.00     0.139 C 
HETATM    6  O   UNL     1       1.572  34.694  61.605  1.00  0.00    -0.279 OA
HETATM    7  C   UNL     1       1.851  34.971  60.338  1.00  0.00     0.175 A 
HETATM    8  C   UNL     1       2.975  34.649  59.612  1.00  0.00     0.040 A 
HETATM    9  N   UNL     1       1.005  35.622  59.508  1.00  0.00    -0.256 N 
HETATM   10  H   UNL     1       0.085  35.996  59.715  1.00  0.00     0.191 HD
HETATM   11  N   UNL     1       1.478  35.722  58.259  1.00  0.00    -0.172 NA
HETATM   12  C   UNL     1       2.690  35.128  58.293  1.00  0.00     0.099 A 
ENDROOT
BRANCH   1  13
HETATM   13  C   UNL     1       4.664  32.832  59.434  1.00  0.00    -0.040 C 
HETATM   14  C   UNL     1       3.889  31.952  58.663  1.00  0.00     0.030 C 
HETATM   15  C   UNL     1       4.499  31.104  57.733  1.00  0.00     0.048 C 
HETATM   16  C   UNL     1       5.892  31.060  57.635  1.00  0.00     0.131 C 
HETATM   17 BR   UNL     1       3.397  30.063  56.592  1.00  0.00    -0.048 Br
HETATM   18  C   UNL     1       6.691  31.782  58.529  1.00  0.00     0.104 C 
HETATM   19  C   UNL     1       6.073  32.695  59.383  1.00  0.00     0.048 C 
BRANCH  16  20
HETATM   20  O   UNL     1       6.487  30.252  56.655  1.00  0.00    -0.257 OA
BRANCH  20  21
HETATM   21  C   UNL     1       6.627  28.920  57.042  1.00  0.00     0.368 C 
HETATM   22  N   UNL     1       6.235  28.034  56.051  1.00  0.00    -0.324 N 
HETATM   23  C   UNL     1       6.144  28.396  54.639  1.00  0.00     0.154 C 
HETATM   24  C   UNL     1       6.338  26.599  56.287  1.00  0.00     0.154 C 
HETATM   25  C   UNL     1       7.314  27.761  53.873  1.00  0.00     0.187 C 
HETATM   26  O   UNL     1       7.358  26.336  54.079  1.00  0.00    -0.388 OA
HETATM   27  C   UNL     1       7.502  26.019  55.477  1.00  0.00     0.187 C 
HETATM   28  O   UNL     1       7.047  28.546  58.134  1.00  0.00    -0.238 OA
ENDBRANCH  20  21
ENDBRANCH  16  20
BRANCH  18  29
HETATM   29  O   UNL     1       8.041  31.571  58.455  1.00  0.00    -0.349 OA
BRANCH  29  30
HETATM   30  C   UNL     1       8.853  31.898  59.581  1.00  0.00     0.171 C 
HETATM   31  C   UNL     1       9.067  30.693  60.482  1.00  0.00     0.034 C 
ENDBRANCH  29  30
ENDBRANCH  18  29
ENDBRANCH   1  13
BRANCH   5  32
HETATM   32  N   UNL     1       2.044  33.509  63.531  1.00  0.00    -0.282 NA
HETATM   33  H   UNL     1       1.075  33.728  63.750  1.00  0.00     0.126 HD
HETATM   34  H   UNL     1       2.303  32.556  63.774  1.00  0.00     0.126 HD
ENDBRANCH   5  32
BRANCH  12  35
HETATM   35  C   UNL     1       3.444  34.980  57.047  1.00  0.00    -0.005 A 
HETATM   36  C   UNL     1       4.671  35.612  56.835  1.00  0.00     0.016 A 
HETATM   37  C   UNL     1       5.388  35.373  55.655  1.00  0.00     0.037 A 
HETATM   38  C   UNL     1       4.890  34.518  54.668  1.00  0.00     0.068 A 
HETATM   39  C   UNL     1       3.656  33.905  54.864  1.00  0.00     0.037 A 
HETATM   40  C   UNL     1       2.941  34.136  56.043  1.00  0.00     0.016 A 
BRANCH  38  41
HETATM   41  O   UNL     1       5.691  34.371  53.569  1.00  0.00    -0.356 OA
HETATM   42  C   UNL     1       6.627  35.411  53.314  1.00  0.00     0.210 C 
ENDBRANCH  38  41
ENDBRANCH  12  35
TORSDOF 8
ENDMDL
MODEL 5
REMARK VINA RESULT:      -7.5      2.664      7.904
REMARK  8 active torsions:
REMARK  status: ('A' for Active; 'I' for Inactive)
REMARK    1  A    between atoms: C_2  and  O_3 
REMARK    2  A    between atoms: O_3  and  C_4 
REMARK    3  A    between atoms: C_5  and  O_6 
REMARK    4  A    between atoms: O_6  and  C_7 
REMARK       I    between atoms: C_7  and  N_8 
REMARK    5  A    between atoms: C_18  and  C_19 
REMARK    6  A    between atoms: C_23  and  N_24 
REMARK    7  A    between atoms: C_31  and  C_32 
REMARK    8  A    between atoms: C_35  and  O_36 
ROOT
HETATM    1  C   UNL     1       5.713  32.795  60.129  1.00  0.00     0.105 C 
HETATM    2  C   UNL     1       5.830  32.282  61.568  1.00  0.00     0.067 C 
HETATM    3  C   UNL     1       7.108  31.565  61.972  1.00  0.00     0.020 C 
HETATM    4  N   UNL     1       8.167  30.970  62.306  1.00  0.00    -0.096 N 
HETATM    5  C   UNL     1       4.845  32.430  62.494  1.00  0.00     0.139 C 
HETATM    6  O   UNL     1       3.630  33.055  62.182  1.00  0.00    -0.279 OA
HETATM    7  C   UNL     1       3.437  33.366  60.907  1.00  0.00     0.175 A 
HETATM    8  C   UNL     1       4.313  33.262  59.851  1.00  0.00     0.040 A 
HETATM    9  N   UNL     1       2.265  33.829  60.417  1.00  0.00    -0.256 N 
HETATM   10  H   UNL     1       1.405  34.018  60.920  1.00  0.00     0.191 HD
HETATM   11  N   UNL     1       2.291  34.004  59.089  1.00  0.00    -0.172 NA
HETATM   12  C   UNL     1       3.540  33.660  58.713  1.00  0.00     0.099 A 
ENDROOT
BRANCH   1  13
HETATM   13  C   UNL     1       6.172  31.808  59.062  1.00  0.00    -0.040 C 
HETATM   14  C   UNL     1       7.496  31.674  58.616  1.00  0.00     0.030 C 
HETATM   15  C   UNL     1       7.857  30.606  57.788  1.00  0.00     0.048 C 
HETATM   16  C   UNL     1       6.882  29.722  57.323  1.00  0.00     0.131 C 
HETATM   17 BR   UNL     1       9.689  30.370  57.358  1.00  0.00    -0.048 Br
HETATM   18  C   UNL     1       5.527  29.949  57.594  1.00  0.00     0.104 C 
HETATM   19  C   UNL     1       5.191  30.957  58.498  1.00  0.00     0.048 C 
BRANCH  16  20
HETATM   20  O   UNL     1       7.268  28.619  56.546  1.00  0.00    -0.257 OA
BRANCH  20  21
HETATM   21  C   UNL     1       7.273  27.417  57.251  1.00  0.00     0.368 C 
HETATM   22  N   UNL     1       6.614  26.402  56.576  1.00  0.00    -0.324 N 
HETATM   23  C   UNL     1       6.363  26.423  55.138  1.00  0.00     0.154 C 
HETATM   24  C   UNL     1       6.545  25.070  57.168  1.00  0.00     0.154 C 
HETATM   25  C   UNL     1       7.302  25.425  54.442  1.00  0.00     0.187 C 
HETATM   26  O   UNL     1       7.172  24.108  55.008  1.00  0.00    -0.388 OA
HETATM   27  C   UNL     1       7.479  24.117  56.416  1.00  0.00     0.187 C 
HETATM   28  O   UNL     1       7.795  27.249  58.351  1.00  0.00    -0.238 OA
ENDBRANCH  20  21
ENDBRANCH  16  20
BRANCH  18  29
HETATM   29  O   UNL     1       4.630  29.116  56.983  1.00  0.00    -0.349 OA
BRANCH  29  30
HETATM   30  C   UNL     1       3.795  29.640  55.952  1.00  0.00     0.171 C 
HETATM   31  C   UNL     1       4.431  29.478  54.582  1.00  0.00     0.034 C 
ENDBRANCH  29  30
ENDBRANCH  18  29
ENDBRANCH   1  13
BRANCH   5  32
HETATM   32  N   UNL     1       4.903  32.007  63.802  1.00  0.00    -0.282 NA
HETATM   33  H   UNL     1       4.314  31.215  64.045  1.00  0.00     0.126 HD
HETATM   34  H   UNL     1       5.858  31.914  64.137  1.00  0.00     0.126 HD
ENDBRANCH   5  32
BRANCH  12  35
HETATM   35  C   UNL     1       3.876  33.648  57.288  1.00  0.00    -0.005 A 
HETATM   36  C   UNL     1       3.130  32.933  56.349  1.00  0.00     0.016 A 
HETATM   37  C   UNL     1       3.449  33.021  54.987  1.00  0.00     0.037 A 
HETATM   38  C   UNL     1       4.518  33.804  54.545  1.00  0.00     0.068 A 
HETATM   39  C   UNL     1       5.280  34.499  55.479  1.00  0.00     0.037 A 
HETATM   40  C   UNL     1       4.961  34.420  56.838  1.00  0.00     0.016 A 
BRANCH  38  41
HETATM   41  O   UNL     1       4.717  33.803  53.191  1.00  0.00    -0.356 OA
HETATM   42  C   UNL     1       4.230  32.677  52.472  1.00  0.00     0.210 C 
ENDBRANCH  38  41
ENDBRANCH  12  35
TORSDOF 8
ENDMDL
MODEL 6
REMARK VINA RESULT:      -7.3      2.080      2.546
REMARK  8 active torsions:
REMARK  status: ('A' for Active; 'I' for Inactive)
REMARK    1  A    between atoms: C_2  and  O_3 
REMARK    2  A    between atoms: O_3  and  C_4 
REMARK    3  A    between atoms: C_5  and  O_6 
REMARK    4  A    between atoms: O_6  and  C_7 
REMARK       I    between atoms: C_7  and  N_8 
REMARK    5  A    between atoms: C_18  and  C_19 
REMARK    6  A    between atoms: C_23  and  N_24 
REMARK    7  A    between atoms: C_31  and  C_32 
REMARK    8  A    between atoms: C_35  and  O_36 
ROOT
HETATM    1  C   UNL     1       4.688  26.745  53.720  1.00  0.00     0.105 C 
HETATM    2  C   UNL     1       5.439  25.597  54.403  1.00  0.00     0.067 C 
HETATM    3  C   UNL     1       5.404  25.521  55.921  1.00  0.00     0.020 C 
HETATM    4  N   UNL     1       5.376  25.458  57.179  1.00  0.00    -0.096 N 
HETATM    5  C   UNL     1       6.138  24.653  53.719  1.00  0.00     0.139 C 
HETATM    6  O   UNL     1       6.237  24.679  52.321  1.00  0.00    -0.279 OA
HETATM    7  C   UNL     1       5.734  25.746  51.715  1.00  0.00     0.175 A 
HETATM    8  C   UNL     1       5.023  26.792  52.257  1.00  0.00     0.040 A 
HETATM    9  N   UNL     1       5.883  25.999  50.395  1.00  0.00    -0.256 N 
HETATM   10  H   UNL     1       6.359  25.436  49.697  1.00  0.00     0.191 HD
HETATM   11  N   UNL     1       5.349  27.170  50.027  1.00  0.00    -0.172 NA
HETATM   12  C   UNL     1       4.815  27.683  51.155  1.00  0.00     0.099 A 
ENDROOT
BRANCH   1  13
HETATM   13  C   UNL     1       4.896  28.112  54.362  1.00  0.00    -0.040 C 
HETATM   14  C   UNL     1       3.915  29.114  54.438  1.00  0.00     0.030 C 
HETATM   15  C   UNL     1       4.130  30.252  55.224  1.00  0.00     0.048 C 
HETATM   16  C   UNL     1       5.358  30.441  55.860  1.00  0.00     0.131 C 
HETATM   17 BR   UNL     1       2.708  31.490  55.434  1.00  0.00    -0.048 Br
HETATM   18  C   UNL     1       6.418  29.554  55.640  1.00  0.00     0.104 C 
HETATM   19  C   UNL     1       6.163  28.377  54.936  1.00  0.00     0.048 C 
BRANCH  16  20
HETATM   20  O   UNL     1       5.535  31.555  56.695  1.00  0.00    -0.257 OA
BRANCH  20  21
HETATM   21  C   UNL     1       5.125  31.334  58.009  1.00  0.00     0.368 C 
HETATM   22  N   UNL     1       4.972  32.513  58.722  1.00  0.00    -0.324 N 
HETATM   23  C   UNL     1       4.790  33.817  58.092  1.00  0.00     0.154 C 
HETATM   24  C   UNL     1       4.527  32.461  60.111  1.00  0.00     0.154 C 
HETATM   25  C   UNL     1       3.328  34.262  58.254  1.00  0.00     0.187 C 
HETATM   26  O   UNL     1       2.933  34.255  59.638  1.00  0.00    -0.388 OA
HETATM   27  C   UNL     1       3.076  32.940  60.211  1.00  0.00     0.187 C 
HETATM   28  O   UNL     1       4.918  30.230  58.505  1.00  0.00    -0.238 OA
ENDBRANCH  20  21
ENDBRANCH  16  20
BRANCH  18  29
HETATM   29  O   UNL     1       7.626  29.891  56.187  1.00  0.00    -0.349 OA
BRANCH  29  30
HETATM   30  C   UNL     1       8.232  29.000  57.122  1.00  0.00     0.171 C 
HETATM   31  C   UNL     1       9.748  29.048  57.036  1.00  0.00     0.034 C 
ENDBRANCH  29  30
ENDBRANCH  18  29
ENDBRANCH   1  13
BRANCH   5  32
HETATM   32  N   UNL     1       6.813  23.592  54.278  1.00  0.00    -0.282 NA
HETATM   33  H   UNL     1       7.054  22.830  53.648  1.00  0.00     0.126 HD
HETATM   34  H   UNL     1       7.590  23.891  54.861  1.00  0.00     0.126 HD
ENDBRANCH   5  32
BRANCH  12  35
HETATM   35  C   UNL     1       4.226  29.024  51.118  1.00  0.00    -0.005 A 
HETATM   36  C   UNL     1       2.849  29.235  51.039  1.00  0.00     0.016 A 
HETATM   37  C   UNL     1       2.335  30.538  51.087  1.00  0.00     0.037 A 
HETATM   38  C   UNL     1       3.182  31.644  51.197  1.00  0.00     0.068 A 
HETATM   39  C   UNL     1       4.558  31.440  51.251  1.00  0.00     0.037 A 
HETATM   40  C   UNL     1       5.074  30.141  51.211  1.00  0.00     0.016 A 
BRANCH  38  41
HETATM   41  O   UNL     1       2.551  32.857  51.236  1.00  0.00    -0.356 OA
HETATM   42  C   UNL     1       2.918  33.738  52.291  1.00  0.00     0.210 C 
ENDBRANCH  38  41
ENDBRANCH  12  35
TORSDOF 8
ENDMDL
MODEL 7
REMARK VINA RESULT:      -7.3      2.461      7.718
REMARK  8 active torsions:
REMARK  status: ('A' for Active; 'I' for Inactive)
REMARK    1  A    between atoms: C_2  and  O_3 
REMARK    2  A    between atoms: O_3  and  C_4 
REMARK    3  A    between atoms: C_5  and  O_6 
REMARK    4  A    between atoms: O_6  and  C_7 
REMARK       I    between atoms: C_7  and  N_8 
REMARK    5  A    between atoms: C_18  and  C_19 
REMARK    6  A    between atoms: C_23  and  N_24 
REMARK    7  A    between atoms: C_31  and  C_32 
REMARK    8  A    between atoms: C_35  and  O_36 
ROOT
HETATM    1  C   UNL     1       5.643  32.820  59.728  1.00  0.00     0.105 C 
HETATM    2  C   UNL     1       5.777  32.498  61.221  1.00  0.00     0.067 C 
HETATM    3  C   UNL     1       6.968  31.668  61.670  1.00  0.00     0.020 C 
HETATM    4  N   UNL     1       7.955  30.979  62.043  1.00  0.00    -0.096 N 
HETATM    5  C   UNL     1       4.880  32.911  62.155  1.00  0.00     0.139 C 
HETATM    6  O   UNL     1       3.744  33.654  61.807  1.00  0.00    -0.279 OA
HETATM    7  C   UNL     1       3.517  33.812  60.510  1.00  0.00     0.175 A 
HETATM    8  C   UNL     1       4.304  33.439  59.445  1.00  0.00     0.040 A 
HETATM    9  N   UNL     1       2.390  34.365  60.007  1.00  0.00    -0.256 N 
HETATM   10  H   UNL     1       1.597  34.743  60.513  1.00  0.00     0.191 HD
HETATM   11  N   UNL     1       2.359  34.351  58.668  1.00  0.00    -0.172 NA
HETATM   12  C   UNL     1       3.524  33.783  58.294  1.00  0.00     0.099 A 
ENDROOT
BRANCH   1  13
HETATM   13  C   UNL     1       5.896  31.640  58.798  1.00  0.00    -0.040 C 
HETATM   14  C   UNL     1       4.892  30.821  58.257  1.00  0.00     0.030 C 
HETATM   15  C   UNL     1       5.201  29.895  57.254  1.00  0.00     0.048 C 
HETATM   16  C   UNL     1       6.527  29.714  56.855  1.00  0.00     0.131 C 
HETATM   17 BR   UNL     1       3.783  28.940  56.433  1.00  0.00    -0.048 Br
HETATM   18  C   UNL     1       7.567  30.376  57.517  1.00  0.00     0.104 C 
HETATM   19  C   UNL     1       7.239  31.365  58.444  1.00  0.00     0.048 C 
BRANCH  16  20
HETATM   20  O   UNL     1       6.813  28.828  55.805  1.00  0.00    -0.257 OA
BRANCH  20  21
HETATM   21  C   UNL     1       6.915  27.499  56.211  1.00  0.00     0.368 C 
HETATM   22  N   UNL     1       6.539  26.609  55.218  1.00  0.00    -0.324 N 
HETATM   23  C   UNL     1       6.501  26.955  53.800  1.00  0.00     0.154 C 
HETATM   24  C   UNL     1       6.606  25.174  55.472  1.00  0.00     0.154 C 
HETATM   25  C   UNL     1       7.684  26.289  53.080  1.00  0.00     0.187 C 
HETATM   26  O   UNL     1       7.694  24.867  53.303  1.00  0.00    -0.388 OA
HETATM   27  C   UNL     1       7.785  24.564  54.709  1.00  0.00     0.187 C 
HETATM   28  O   UNL     1       7.291  27.129  57.321  1.00  0.00    -0.238 OA
ENDBRANCH  20  21
ENDBRANCH  16  20
BRANCH  18  29
HETATM   29  O   UNL     1       8.842  30.033  57.157  1.00  0.00    -0.349 OA
BRANCH  29  30
HETATM   30  C   UNL     1       9.924  30.422  58.001  1.00  0.00     0.171 C 
HETATM   31  C   UNL     1      11.265  30.021  57.409  1.00  0.00     0.034 C 
ENDBRANCH  29  30
ENDBRANCH  18  29
ENDBRANCH   1  13
BRANCH   5  32
HETATM   32  N   UNL     1       4.960  32.669  63.507  1.00  0.00    -0.282 NA
HETATM   33  H   UNL     1       5.835  32.923  63.959  1.00  0.00     0.126 HD
HETATM   34  H   UNL     1       4.139  32.999  64.009  1.00  0.00     0.126 HD
ENDBRANCH   5  32
BRANCH  12  35
HETATM   35  C   UNL     1       3.766  33.527  56.873  1.00  0.00    -0.005 A 
HETATM   36  C   UNL     1       4.903  33.994  56.211  1.00  0.00     0.016 A 
HETATM   37  C   UNL     1       5.124  33.653  54.870  1.00  0.00     0.037 A 
HETATM   38  C   UNL     1       4.213  32.860  54.168  1.00  0.00     0.068 A 
HETATM   39  C   UNL     1       3.065  32.412  54.816  1.00  0.00     0.037 A 
HETATM   40  C   UNL     1       2.845  32.744  56.156  1.00  0.00     0.016 A 
BRANCH  38  41
HETATM   41  O   UNL     1       4.551  32.600  52.868  1.00  0.00    -0.356 OA
HETATM   42  C   UNL     1       5.092  33.680  52.118  1.00  0.00     0.210 C 
ENDBRANCH  38  41
ENDBRANCH  12  35
TORSDOF 8
ENDMDL
MODEL 8
REMARK VINA RESULT:      -7.3      2.438      4.087
REMARK  8 active torsions:
REMARK  status: ('A' for Active; 'I' for Inactive)
REMARK    1  A    between atoms: C_2  and  O_3 
REMARK    2  A    between atoms: O_3  and  C_4 
REMARK    3  A    between atoms: C_5  and  O_6 
REMARK    4  A    between atoms: O_6  and  C_7 
REMARK       I    between atoms: C_7  and  N_8 
REMARK    5  A    between atoms: C_18  and  C_19 
REMARK    6  A    between atoms: C_23  and  N_24 
REMARK    7  A    between atoms: C_31  and  C_32 
REMARK    8  A    between atoms: C_35  and  O_36 
ROOT
HETATM    1  C   UNL     1       4.533  27.974  55.060  1.00  0.00     0.105 C 
HETATM    2  C   UNL     1       5.050  26.596  54.632  1.00  0.00     0.067 C 
HETATM    3  C   UNL     1       5.649  25.692  55.698  1.00  0.00     0.020 C 
HETATM    4  N   UNL     1       6.146  24.943  56.582  1.00  0.00    -0.096 N 
HETATM    5  C   UNL     1       5.005  26.149  53.349  1.00  0.00     0.139 C 
HETATM    6  O   UNL     1       4.493  26.940  52.312  1.00  0.00    -0.279 OA
HETATM    7  C   UNL     1       4.187  28.193  52.622  1.00  0.00     0.175 A 
HETATM    8  C   UNL     1       4.197  28.804  53.855  1.00  0.00     0.040 A 
HETATM    9  N   UNL     1       3.831  29.126  51.710  1.00  0.00    -0.256 N 
HETATM   10  H   UNL     1       3.729  29.017  50.707  1.00  0.00     0.191 HD
HETATM   11  N   UNL     1       3.639  30.335  52.254  1.00  0.00    -0.172 NA
HETATM   12  C   UNL     1       3.861  30.167  53.574  1.00  0.00     0.099 A 
ENDROOT
BRANCH   1  13
HETATM   13  C   UNL     1       5.461  28.738  55.996  1.00  0.00    -0.040 C 
HETATM   14  C   UNL     1       6.863  28.736  55.907  1.00  0.00     0.030 C 
HETATM   15  C   UNL     1       7.619  29.626  56.676  1.00  0.00     0.048 C 
HETATM   16  C   UNL     1       6.991  30.455  57.608  1.00  0.00     0.131 C 
HETATM   17 BR   UNL     1       9.493  29.707  56.390  1.00  0.00    -0.048 Br
HETATM   18  C   UNL     1       5.618  30.335  57.855  1.00  0.00     0.104 C 
HETATM   19  C   UNL     1       4.862  29.516  57.016  1.00  0.00     0.048 C 
BRANCH  16  20
HETATM   20  O   UNL     1       7.756  31.386  58.326  1.00  0.00    -0.257 OA
BRANCH  20  21
HETATM   21  C   UNL     1       8.303  30.869  59.499  1.00  0.00     0.368 C 
HETATM   22  N   UNL     1       8.415  31.822  60.499  1.00  0.00    -0.324 N 
HETATM   23  C   UNL     1       7.644  33.062  60.518  1.00  0.00     0.154 C 
HETATM   24  C   UNL     1       8.951  31.441  61.801  1.00  0.00     0.154 C 
HETATM   25  C   UNL     1       6.552  32.968  61.594  1.00  0.00     0.187 C 
HETATM   26  O   UNL     1       7.115  32.645  62.880  1.00  0.00    -0.388 OA
HETATM   27  C   UNL     1       7.822  31.390  62.835  1.00  0.00     0.187 C 
HETATM   28  O   UNL     1       8.657  29.703  59.656  1.00  0.00    -0.238 OA
ENDBRANCH  20  21
ENDBRANCH  16  20
BRANCH  18  29
HETATM   29  O   UNL     1       5.110  31.083  58.882  1.00  0.00    -0.349 OA
BRANCH  29  30
HETATM   30  C   UNL     1       3.708  31.338  58.921  1.00  0.00     0.171 C 
HETATM   31  C   UNL     1       3.395  32.628  59.661  1.00  0.00     0.034 C 
ENDBRANCH  29  30
ENDBRANCH  18  29
ENDBRANCH   1  13
BRANCH   5  32
HETATM   32  N   UNL     1       5.435  24.917  52.912  1.00  0.00    -0.282 NA
HETATM   33  H   UNL     1       4.916  24.112  53.254  1.00  0.00     0.126 HD
HETATM   34  H   UNL     1       5.592  24.896  51.908  1.00  0.00     0.126 HD
ENDBRANCH   5  32
BRANCH  12  35
HETATM   35  C   UNL     1       3.825  31.336  54.455  1.00  0.00    -0.005 A 
HETATM   36  C   UNL     1       4.948  32.131  54.690  1.00  0.00     0.016 A 
HETATM   37  C   UNL     1       4.838  33.283  55.479  1.00  0.00     0.037 A 
HETATM   38  C   UNL     1       3.619  33.650  56.056  1.00  0.00     0.068 A 
HETATM   39  C   UNL     1       2.502  32.847  55.845  1.00  0.00     0.037 A 
HETATM   40  C   UNL     1       2.606  31.700  55.052  1.00  0.00     0.016 A 
BRANCH  38  41
HETATM   41  O   UNL     1       3.650  34.798  56.800  1.00  0.00    -0.356 OA
HETATM   42  C   UNL     1       4.736  35.686  56.563  1.00  0.00     0.210 C 
ENDBRANCH  38  41
ENDBRANCH  12  35
TORSDOF 8
ENDMDL
MODEL 9
REMARK VINA RESULT:      -7.2      2.215      5.147
REMARK  8 active torsions:
REMARK  status: ('A' for Active; 'I' for Inactive)
REMARK    1  A    between atoms: C_2  and  O_3 
REMARK    2  A    between atoms: O_3  and  C_4 
REMARK    3  A    between atoms: C_5  and  O_6 
REMARK    4  A    between atoms: O_6  and  C_7 
REMARK       I    between atoms: C_7  and  N_8 
REMARK    5  A    between atoms: C_18  and  C_19 
REMARK    6  A    between atoms: C_23  and  N_24 
REMARK    7  A    between atoms: C_31  and  C_32 
REMARK    8  A    between atoms: C_35  and  O_36 
ROOT
HETATM    1  C   UNL     1       5.251  28.505  52.011  1.00  0.00     0.105 C 
HETATM    2  C   UNL     1       4.147  28.342  50.961  1.00  0.00     0.067 C 
HETATM    3  C   UNL     1       3.062  29.404  50.891  1.00  0.00     0.020 C 
HETATM    4  N   UNL     1       2.162  30.284  50.832  1.00  0.00    -0.096 N 
HETATM    5  C   UNL     1       4.089  27.292  50.098  1.00  0.00     0.139 C 
HETATM    6  O   UNL     1       5.039  26.263  50.127  1.00  0.00    -0.279 OA
HETATM    7  C   UNL     1       5.912  26.294  51.125  1.00  0.00     0.175 A 
HETATM    8  C   UNL     1       6.089  27.261  52.087  1.00  0.00     0.040 A 
HETATM    9  N   UNL     1       6.790  25.298  51.385  1.00  0.00    -0.256 N 
HETATM   10  H   UNL     1       6.925  24.431  50.877  1.00  0.00     0.191 HD
HETATM   11  N   UNL     1       7.519  25.524  52.486  1.00  0.00    -0.172 NA
HETATM   12  C   UNL     1       7.106  26.726  52.941  1.00  0.00     0.099 A 
ENDROOT
BRANCH   1  13
HETATM   13  C   UNL     1       4.757  28.904  53.396  1.00  0.00    -0.040 C 
HETATM   14  C   UNL     1       4.620  28.021  54.479  1.00  0.00     0.030 C 
HETATM   15  C   UNL     1       4.357  28.514  55.762  1.00  0.00     0.048 C 
HETATM   16  C   UNL     1       4.135  29.879  55.955  1.00  0.00     0.131 C 
HETATM   17 BR   UNL     1       4.357  27.299  57.219  1.00  0.00    -0.048 Br
HETATM   18  C   UNL     1       4.072  30.751  54.862  1.00  0.00     0.104 C 
HETATM   19  C   UNL     1       4.430  30.267  53.604  1.00  0.00     0.048 C 
BRANCH  16  20
HETATM   20  O   UNL     1       3.936  30.366  57.255  1.00  0.00    -0.257 OA
BRANCH  20  21
HETATM   21  C   UNL     1       5.088  30.902  57.830  1.00  0.00     0.368 C 
HETATM   22  N   UNL     1       4.824  32.021  58.604  1.00  0.00    -0.324 N 
HETATM   23  C   UNL     1       3.505  32.330  59.148  1.00  0.00     0.154 C 
HETATM   24  C   UNL     1       5.919  32.693  59.295  1.00  0.00     0.154 C 
HETATM   25  C   UNL     1       3.499  32.055  60.659  1.00  0.00     0.187 C 
HETATM   26  O   UNL     1       4.555  32.774  61.323  1.00  0.00    -0.388 OA
HETATM   27  C   UNL     1       5.844  32.404  60.797  1.00  0.00     0.187 C 
HETATM   28  O   UNL     1       6.222  30.454  57.682  1.00  0.00    -0.238 OA
ENDBRANCH  20  21
ENDBRANCH  16  20
BRANCH  18  29
HETATM   29  O   UNL     1       3.709  32.044  55.127  1.00  0.00    -0.349 OA
BRANCH  29  30
HETATM   30  C   UNL     1       4.536  33.104  54.649  1.00  0.00     0.171 C 
HETATM   31  C   UNL     1       4.883  34.084  55.756  1.00  0.00     0.034 C 
ENDBRANCH  29  30
ENDBRANCH  18  29
ENDBRANCH   1  13
BRANCH   5  32
HETATM   32  N   UNL     1       3.135  27.105  49.125  1.00  0.00    -0.282 NA
HETATM   33  H   UNL     1       3.118  26.190  48.681  1.00  0.00     0.126 HD
HETATM   34  H   UNL     1       2.215  27.424  49.418  1.00  0.00     0.126 HD
ENDBRANCH   5  32
BRANCH  12  35
HETATM   35  C   UNL     1       7.646  27.231  54.205  1.00  0.00    -0.005 A 
HETATM   36  C   UNL     1       8.194  28.509  54.328  1.00  0.00     0.016 A 
HETATM   37  C   UNL     1       8.624  28.970  55.579  1.00  0.00     0.037 A 
HETATM   38  C   UNL     1       8.529  28.164  56.717  1.00  0.00     0.068 A 
HETATM   39  C   UNL     1       8.007  26.880  56.595  1.00  0.00     0.037 A 
HETATM   40  C   UNL     1       7.570  26.419  55.350  1.00  0.00     0.016 A 
BRANCH  38  41
HETATM   41  O   UNL     1       8.982  28.738  57.874  1.00  0.00    -0.356 OA
HETATM   42  C   UNL     1       9.790  29.901  57.740  1.00  0.00     0.210 C 
ENDBRANCH  38  41
ENDBRANCH  12  35
TORSDOF 8
ENDMDL
MODEL 10
REMARK VINA RESULT:      -7.0      3.322      8.856
REMARK  8 active torsions:
REMARK  status: ('A' for Active; 'I' for Inactive)
REMARK    1  A    between atoms: C_2  and  O_3 
REMARK    2  A    between atoms: O_3  and  C_4 
REMARK    3  A    between atoms: C_5  and  O_6 
REMARK    4  A    between atoms: O_6  and  C_7 
REMARK       I    between atoms: C_7  and  N_8 
REMARK    5  A    between atoms: C_18  and  C_19 
REMARK    6  A    between atoms: C_23  and  N_24 
REMARK    7  A    between atoms: C_31  and  C_32 
REMARK    8  A    between atoms: C_35  and  O_36 
ROOT
HETATM    1  C   UNL     1       5.225  34.113  61.707  1.00  0.00     0.105 C 
HETATM    2  C   UNL     1       5.366  33.632  63.156  1.00  0.00     0.067 C 
HETATM    3  C   UNL     1       6.615  32.853  63.534  1.00  0.00     0.020 C 
HETATM    4  N   UNL     1       7.650  32.207  63.848  1.00  0.00    -0.096 N 
HETATM    5  C   UNL     1       4.426  33.862  64.111  1.00  0.00     0.139 C 
HETATM    6  O   UNL     1       3.238  34.548  63.824  1.00  0.00    -0.279 OA
HETATM    7  C   UNL     1       3.016  34.835  62.549  1.00  0.00     0.175 A 
HETATM    8  C   UNL     1       3.844  34.652  61.466  1.00  0.00     0.040 A 
HETATM    9  N   UNL     1       1.854  35.352  62.088  1.00  0.00    -0.256 N 
HETATM   10  H   UNL     1       1.026  35.605  62.615  1.00  0.00     0.191 HD
HETATM   11  N   UNL     1       1.841  35.490  60.756  1.00  0.00    -0.172 NA
HETATM   12  C   UNL     1       3.054  35.063  60.346  1.00  0.00     0.099 A 
ENDROOT
BRANCH   1  13
HETATM   13  C   UNL     1       5.586  33.072  60.654  1.00  0.00    -0.040 C 
HETATM   14  C   UNL     1       4.658  32.259  59.985  1.00  0.00     0.030 C 
HETATM   15  C   UNL     1       5.059  31.483  58.893  1.00  0.00     0.048 C 
HETATM   16  C   UNL     1       6.404  31.439  58.522  1.00  0.00     0.131 C 
HETATM   17 BR   UNL     1       3.734  30.540  57.915  1.00  0.00    -0.048 Br
HETATM   18  C   UNL     1       7.376  32.085  59.294  1.00  0.00     0.104 C 
HETATM   19  C   UNL     1       6.955  32.932  60.319  1.00  0.00     0.048 C 
BRANCH  16  20
HETATM   20  O   UNL     1       6.780  30.707  57.386  1.00  0.00    -0.257 OA
BRANCH  20  21
HETATM   21  C   UNL     1       7.032  29.361  57.651  1.00  0.00     0.368 C 
HETATM   22  N   UNL     1       6.408  28.516  56.746  1.00  0.00    -0.324 N 
HETATM   23  C   UNL     1       5.951  28.945  55.428  1.00  0.00     0.154 C 
HETATM   24  C   UNL     1       6.586  27.073  56.869  1.00  0.00     0.154 C 
HETATM   25  C   UNL     1       6.892  28.379  54.353  1.00  0.00     0.187 C 
HETATM   26  O   UNL     1       7.005  26.948  54.462  1.00  0.00    -0.388 OA
HETATM   27  C   UNL     1       7.509  26.566  55.757  1.00  0.00     0.187 C 
HETATM   28  O   UNL     1       7.724  28.944  58.576  1.00  0.00    -0.238 OA
ENDBRANCH  20  21
ENDBRANCH  16  20
BRANCH  18  29
HETATM   29  O   UNL     1       8.682  31.874  58.941  1.00  0.00    -0.349 OA
BRANCH  29  30
HETATM   30  C   UNL     1       9.678  31.865  59.962  1.00  0.00     0.171 C 
HETATM   31  C   UNL     1       9.426  30.764  60.978  1.00  0.00     0.034 C 
ENDBRANCH  29  30
ENDBRANCH  18  29
ENDBRANCH   1  13
BRANCH   5  32
HETATM   32  N   UNL     1       4.508  33.472  65.428  1.00  0.00    -0.282 NA
HETATM   33  H   UNL     1       5.353  33.742  65.926  1.00  0.00     0.126 HD
HETATM   34  H   UNL     1       3.656  33.676  65.946  1.00  0.00     0.126 HD
ENDBRANCH   5  32
BRANCH  12  35
HETATM   35  C   UNL     1       3.335  34.994  58.910  1.00  0.00    -0.005 A 
HETATM   36  C   UNL     1       2.532  34.274  58.024  1.00  0.00     0.016 A 
HETATM   37  C   UNL     1       2.802  34.306  56.649  1.00  0.00     0.037 A 
HETATM   38  C   UNL     1       3.878  35.039  56.141  1.00  0.00     0.068 A 
HETATM   39  C   UNL     1       4.697  35.738  57.023  1.00  0.00     0.037 A 
HETATM   40  C   UNL     1       4.427  35.714  58.395  1.00  0.00     0.016 A 
BRANCH  38  41
HETATM   41  O   UNL     1       4.026  34.987  54.782  1.00  0.00    -0.356 OA
HETATM   42  C   UNL     1       5.322  35.268  54.267  1.00  0.00     0.210 C 
ENDBRANCH  38  41
ENDBRANCH  12  35
TORSDOF 8
ENDMDL
