MODEL 1
REMARK VINA RESULT:      -9.3      0.000      0.000
REMARK  9 active torsions:
REMARK  status: ('A' for Active; 'I' for Inactive)
REMARK    1  A    between atoms: C_3  and  C_4 
REMARK       I    between atoms: C_4  and  N_5 
REMARK    2  A    between atoms: N_5  and  N_6 
REMARK    3  A    between atoms: N_6  and  C_7 
REMARK    4  A    between atoms: C_7  and  N_8 
REMARK    5  A    between atoms: N_8  and  C_9 
REMARK    6  A    between atoms: C_9  and  C_10 
REMARK    7  A    between atoms: C_18  and  C_19 
REMARK    8  A    between atoms: C_19  and  O_20 
REMARK    9  A    between atoms: O_20  and  C_21 
ROOT
HETATM    1  C   UNL     1       7.500  31.944  62.420  1.00  0.00     0.069 A 
HETATM    2  C   UNL     1       6.119  31.760  62.354  1.00  0.00     0.038 A 
HETATM    3  C   UNL     1       5.288  32.332  63.325  1.00  0.00     0.025 A 
HETATM    4  C   UNL     1       5.834  33.087  64.369  1.00  0.00     0.044 A 
HETATM    5  C   UNL     1       4.979  33.669  65.362  1.00  0.00     0.099 C 
HETATM    6  N   UNL     1       4.284  34.137  66.166  1.00  0.00    -0.191 NA
HETATM    7  C   UNL     1       7.217  33.269  64.437  1.00  0.00     0.025 A 
HETATM    8  C   UNL     1       8.042  32.700  63.464  1.00  0.00     0.038 A 
ENDROOT
BRANCH   1   9
HETATM    9  O   UNL     1       8.421  31.452  61.541  1.00  0.00    -0.347 OA
BRANCH   9  10
HETATM   10  C   UNL     1       8.733  32.246  60.399  1.00  0.00     0.214 C 
BRANCH  10  11
HETATM   11  C   UNL     1       9.125  31.301  59.289  1.00  0.00    -0.033 A 
HETATM   12  C   UNL     1       8.338  30.168  59.018  1.00  0.00     0.026 A 
HETATM   13  C   UNL     1       8.658  29.312  57.956  1.00  0.00     0.034 A 
HETATM   14  C   UNL     1       9.791  29.585  57.178  1.00  0.00     0.017 A 
HETATM   15  C   UNL     1      10.576  30.708  57.439  1.00  0.00     0.002 A 
HETATM   16  C   UNL     1      10.240  31.569  58.483  1.00  0.00     0.009 A 
BRANCH  13  17
HETATM   17  C   UNL     1       7.841  28.113  57.602  1.00  0.00     0.270 C 
HETATM   18  N   UNL     1       6.494  28.313  57.374  1.00  0.00    -0.264 N 
HETATM   19  H   UNL     1       6.037  29.218  57.344  1.00  0.00     0.190 HD
HETATM   20  O   UNL     1       8.362  27.004  57.495  1.00  0.00    -0.266 OA
BRANCH  18  21
HETATM   21  N   UNL     1       5.731  27.222  56.938  1.00  0.00    -0.274 N 
HETATM   22  H   UNL     1       5.112  26.841  57.649  1.00  0.00     0.189 HD
BRANCH  21  23
HETATM   23  C   UNL     1       5.422  27.066  55.610  1.00  0.00     0.186 C 
HETATM   24  S   UNL     1       5.411  28.294  54.473  1.00  0.00    -0.040 SA
BRANCH  23  25
HETATM   25  N   UNL     1       5.172  25.790  55.196  1.00  0.00    -0.364 N 
HETATM   26  H   UNL     1       4.293  25.418  55.549  1.00  0.00     0.162 HD
BRANCH  25  27
HETATM   27  C   UNL     1       5.638  25.180  53.956  1.00  0.00     0.154 C 
BRANCH  27  28
HETATM   28  C   UNL     1       6.981  24.474  54.151  1.00  0.00     0.139 C 
HETATM   29  O   UNL     1       6.861  23.457  55.160  1.00  0.00    -0.384 OA
HETATM   30  C   UNL     1       7.937  22.541  54.940  1.00  0.00     0.168 C 
HETATM   31  C   UNL     1       8.213  22.544  53.450  1.00  0.00     0.029 C 
HETATM   32  C   UNL     1       7.455  23.740  52.910  1.00  0.00     0.035 C 
ENDBRANCH  27  28
ENDBRANCH  25  27
ENDBRANCH  23  25
ENDBRANCH  21  23
ENDBRANCH  18  21
ENDBRANCH  13  17
ENDBRANCH  10  11
ENDBRANCH   9  10
ENDBRANCH   1   9
TORSDOF 9
ENDMDL
MODEL 2
REMARK VINA RESULT:      -9.0      2.791     11.037
REMARK  9 active torsions:
REMARK  status: ('A' for Active; 'I' for Inactive)
REMARK    1  A    between atoms: C_3  and  C_4 
REMARK       I    between atoms: C_4  and  N_5 
REMARK    2  A    between atoms: N_5  and  N_6 
REMARK    3  A    between atoms: N_6  and  C_7 
REMARK    4  A    between atoms: C_7  and  N_8 
REMARK    5  A    between atoms: N_8  and  C_9 
REMARK    6  A    between atoms: C_9  and  C_10 
REMARK    7  A    between atoms: C_18  and  C_19 
REMARK    8  A    between atoms: C_19  and  O_20 
REMARK    9  A    between atoms: O_20  and  C_21 
ROOT
HETATM    1  C   UNL     1       6.706  24.812  54.501  1.00  0.00     0.069 A 
HETATM    2  C   UNL     1       7.085  23.933  55.515  1.00  0.00     0.038 A 
HETATM    3  C   UNL     1       7.613  22.676  55.194  1.00  0.00     0.025 A 
HETATM    4  C   UNL     1       7.761  22.290  53.857  1.00  0.00     0.044 A 
HETATM    5  C   UNL     1       8.300  21.002  53.533  1.00  0.00     0.099 C 
HETATM    6  N   UNL     1       8.735  19.957  53.274  1.00  0.00    -0.191 NA
HETATM    7  C   UNL     1       7.380  23.170  52.841  1.00  0.00     0.025 A 
HETATM    8  C   UNL     1       6.857  24.423  53.165  1.00  0.00     0.038 A 
ENDROOT
BRANCH   1   9
HETATM    9  O   UNL     1       6.187  26.063  54.671  1.00  0.00    -0.347 OA
BRANCH   9  10
HETATM   10  C   UNL     1       6.007  26.526  56.007  1.00  0.00     0.214 C 
BRANCH  10  11
HETATM   11  C   UNL     1       6.987  27.654  56.226  1.00  0.00    -0.033 A 
HETATM   12  C   UNL     1       6.963  28.384  57.427  1.00  0.00     0.026 A 
HETATM   13  C   UNL     1       7.901  29.397  57.668  1.00  0.00     0.034 A 
HETATM   14  C   UNL     1       8.853  29.693  56.683  1.00  0.00     0.017 A 
HETATM   15  C   UNL     1       8.884  28.972  55.488  1.00  0.00     0.002 A 
HETATM   16  C   UNL     1       7.963  27.951  55.265  1.00  0.00     0.009 A 
BRANCH  13  17
HETATM   17  C   UNL     1       7.944  30.182  58.937  1.00  0.00     0.270 C 
HETATM   18  N   UNL     1       6.862  30.995  59.213  1.00  0.00    -0.264 N 
HETATM   19  H   UNL     1       6.009  31.034  58.666  1.00  0.00     0.190 HD
HETATM   20  O   UNL     1       8.895  30.080  59.710  1.00  0.00    -0.266 OA
BRANCH  18  21
HETATM   21  N   UNL     1       6.834  31.657  60.447  1.00  0.00    -0.274 N 
HETATM   22  H   UNL     1       7.648  32.244  60.619  1.00  0.00     0.189 HD
BRANCH  21  23
HETATM   23  C   UNL     1       5.643  31.944  61.065  1.00  0.00     0.186 C 
HETATM   24  S   UNL     1       4.264  32.492  60.290  1.00  0.00    -0.040 SA
BRANCH  23  25
HETATM   25  N   UNL     1       5.584  31.695  62.405  1.00  0.00    -0.364 N 
HETATM   26  H   UNL     1       5.079  30.841  62.633  1.00  0.00     0.162 HD
BRANCH  25  27
HETATM   27  C   UNL     1       6.565  32.108  63.401  1.00  0.00     0.154 C 
BRANCH  27  28
HETATM   28  C   UNL     1       6.063  33.299  64.219  1.00  0.00     0.139 C 
HETATM   29  O   UNL     1       4.778  32.999  64.789  1.00  0.00    -0.384 OA
HETATM   30  C   UNL     1       4.610  33.888  65.897  1.00  0.00     0.168 C 
HETATM   31  C   UNL     1       5.994  34.152  66.456  1.00  0.00     0.029 C 
HETATM   32  C   UNL     1       6.951  33.624  65.407  1.00  0.00     0.035 C 
ENDBRANCH  27  28
ENDBRANCH  25  27
ENDBRANCH  23  25
ENDBRANCH  21  23
ENDBRANCH  18  21
ENDBRANCH  13  17
ENDBRANCH  10  11
ENDBRANCH   9  10
ENDBRANCH   1   9
TORSDOF 9
ENDMDL
MODEL 3
REMARK VINA RESULT:      -9.0      3.192     11.000
REMARK  9 active torsions:
REMARK  status: ('A' for Active; 'I' for Inactive)
REMARK    1  A    between atoms: C_3  and  C_4 
REMARK       I    between atoms: C_4  and  N_5 
REMARK    2  A    between atoms: N_5  and  N_6 
REMARK    3  A    between atoms: N_6  and  C_7 
REMARK    4  A    between atoms: C_7  and  N_8 
REMARK    5  A    between atoms: N_8  and  C_9 
REMARK    6  A    between atoms: C_9  and  C_10 
REMARK    7  A    between atoms: C_18  and  C_19 
REMARK    8  A    between atoms: C_19  and  O_20 
REMARK    9  A    between atoms: O_20  and  C_21 
ROOT
HETATM    1  C   UNL     1       6.684  24.753  54.570  1.00  0.00     0.069 A 
HETATM    2  C   UNL     1       6.967  24.474  53.233  1.00  0.00     0.038 A 
HETATM    3  C   UNL     1       7.510  23.234  52.875  1.00  0.00     0.025 A 
HETATM    4  C   UNL     1       7.775  22.268  53.852  1.00  0.00     0.044 A 
HETATM    5  C   UNL     1       8.332  21.000  53.481  1.00  0.00     0.099 C 
HETATM    6  N   UNL     1       8.785  19.975  53.176  1.00  0.00    -0.191 NA
HETATM    7  C   UNL     1       7.493  22.547  55.191  1.00  0.00     0.025 A 
HETATM    8  C   UNL     1       6.949  23.784  55.544  1.00  0.00     0.038 A 
ENDROOT
BRANCH   1   9
HETATM    9  O   UNL     1       6.150  25.912  55.056  1.00  0.00    -0.347 OA
BRANCH   9  10
HETATM   10  C   UNL     1       7.046  26.859  55.632  1.00  0.00     0.214 C 
BRANCH  10  11
HETATM   11  C   UNL     1       6.285  28.153  55.796  1.00  0.00    -0.033 A 
HETATM   12  C   UNL     1       6.603  29.029  56.849  1.00  0.00     0.026 A 
HETATM   13  C   UNL     1       5.943  30.258  56.981  1.00  0.00     0.034 A 
HETATM   14  C   UNL     1       4.941  30.596  56.062  1.00  0.00     0.017 A 
HETATM   15  C   UNL     1       4.620  29.734  55.013  1.00  0.00     0.002 A 
HETATM   16  C   UNL     1       5.296  28.523  54.874  1.00  0.00     0.009 A 
BRANCH  13  17
HETATM   17  C   UNL     1       6.262  31.241  58.059  1.00  0.00     0.270 C 
HETATM   18  N   UNL     1       6.990  30.779  59.138  1.00  0.00    -0.264 N 
HETATM   19  H   UNL     1       7.396  29.853  59.213  1.00  0.00     0.190 HD
HETATM   20  O   UNL     1       5.908  32.415  57.967  1.00  0.00    -0.266 OA
BRANCH  18  21
HETATM   21  N   UNL     1       7.390  31.708  60.107  1.00  0.00    -0.274 N 
HETATM   22  H   UNL     1       6.923  32.610  60.032  1.00  0.00     0.189 HD
BRANCH  21  23
HETATM   23  C   UNL     1       7.880  31.293  61.320  1.00  0.00     0.186 C 
HETATM   24  S   UNL     1       9.501  31.093  61.686  1.00  0.00    -0.040 SA
BRANCH  23  25
HETATM   25  N   UNL     1       6.958  31.098  62.307  1.00  0.00    -0.364 N 
HETATM   26  H   UNL     1       7.363  30.743  63.171  1.00  0.00     0.162 HD
BRANCH  25  27
HETATM   27  C   UNL     1       5.708  31.831  62.474  1.00  0.00     0.154 C 
BRANCH  27  28
HETATM   28  C   UNL     1       5.874  33.005  63.440  1.00  0.00     0.139 C 
HETATM   29  O   UNL     1       4.929  32.894  64.518  1.00  0.00    -0.384 OA
HETATM   30  C   UNL     1       5.449  33.681  65.594  1.00  0.00     0.168 C 
HETATM   31  C   UNL     1       6.960  33.623  65.483  1.00  0.00     0.029 C 
HETATM   32  C   UNL     1       7.234  33.035  64.114  1.00  0.00     0.035 C 
ENDBRANCH  27  28
ENDBRANCH  25  27
ENDBRANCH  23  25
ENDBRANCH  21  23
ENDBRANCH  18  21
ENDBRANCH  13  17
ENDBRANCH  10  11
ENDBRANCH   9  10
ENDBRANCH   1   9
TORSDOF 9
ENDMDL
MODEL 4
REMARK VINA RESULT:      -8.8      3.124     10.171
REMARK  9 active torsions:
REMARK  status: ('A' for Active; 'I' for Inactive)
REMARK    1  A    between atoms: C_3  and  C_4 
REMARK       I    between atoms: C_4  and  N_5 
REMARK    2  A    between atoms: N_5  and  N_6 
REMARK    3  A    between atoms: N_6  and  C_7 
REMARK    4  A    between atoms: C_7  and  N_8 
REMARK    5  A    between atoms: N_8  and  C_9 
REMARK    6  A    between atoms: C_9  and  C_10 
REMARK    7  A    between atoms: C_18  and  C_19 
REMARK    8  A    between atoms: C_19  and  O_20 
REMARK    9  A    between atoms: O_20  and  C_21 
ROOT
HETATM    1  C   UNL     1       6.801  24.825  54.433  1.00  0.00     0.069 A 
HETATM    2  C   UNL     1       7.032  23.906  55.456  1.00  0.00     0.038 A 
HETATM    3  C   UNL     1       7.543  22.637  55.157  1.00  0.00     0.025 A 
HETATM    4  C   UNL     1       7.822  22.279  53.833  1.00  0.00     0.044 A 
HETATM    5  C   UNL     1       8.343  20.978  53.532  1.00  0.00     0.099 C 
HETATM    6  N   UNL     1       8.763  19.923  53.292  1.00  0.00    -0.191 NA
HETATM    7  C   UNL     1       7.589  23.198  52.808  1.00  0.00     0.025 A 
HETATM    8  C   UNL     1       7.083  24.464  53.111  1.00  0.00     0.038 A 
ENDROOT
BRANCH   1   9
HETATM    9  O   UNL     1       6.315  26.093  54.582  1.00  0.00    -0.347 OA
BRANCH   9  10
HETATM   10  C   UNL     1       7.211  27.174  54.339  1.00  0.00     0.214 C 
BRANCH  10  11
HETATM   11  C   UNL     1       7.290  27.985  55.610  1.00  0.00    -0.033 A 
HETATM   12  C   UNL     1       6.204  28.786  56.003  1.00  0.00     0.026 A 
HETATM   13  C   UNL     1       6.241  29.501  57.208  1.00  0.00     0.034 A 
HETATM   14  C   UNL     1       7.388  29.428  58.009  1.00  0.00     0.017 A 
HETATM   15  C   UNL     1       8.470  28.634  57.627  1.00  0.00     0.002 A 
HETATM   16  C   UNL     1       8.418  27.908  56.439  1.00  0.00     0.009 A 
BRANCH  13  17
HETATM   17  C   UNL     1       5.105  30.341  57.691  1.00  0.00     0.270 C 
HETATM   18  N   UNL     1       5.415  31.417  58.500  1.00  0.00    -0.264 N 
HETATM   19  H   UNL     1       6.355  31.729  58.718  1.00  0.00     0.190 HD
HETATM   20  O   UNL     1       3.949  30.091  57.356  1.00  0.00    -0.266 OA
BRANCH  18  21
HETATM   21  N   UNL     1       4.376  32.278  58.876  1.00  0.00    -0.274 N 
HETATM   22  H   UNL     1       3.624  32.340  58.192  1.00  0.00     0.189 HD
BRANCH  21  23
HETATM   23  C   UNL     1       4.117  32.532  60.199  1.00  0.00     0.186 C 
HETATM   24  S   UNL     1       2.837  33.446  60.771  1.00  0.00    -0.040 SA
BRANCH  23  25
HETATM   25  N   UNL     1       4.944  31.929  61.101  1.00  0.00    -0.364 N 
HETATM   26  H   UNL     1       4.970  30.916  61.008  1.00  0.00     0.162 HD
BRANCH  25  27
HETATM   27  C   UNL     1       6.134  32.517  61.705  1.00  0.00     0.154 C 
BRANCH  27  28
HETATM   28  C   UNL     1       7.401  31.774  61.279  1.00  0.00     0.139 C 
HETATM   29  O   UNL     1       7.939  32.362  60.082  1.00  0.00    -0.384 OA
HETATM   30  C   UNL     1       9.318  31.986  60.032  1.00  0.00     0.168 C 
HETATM   31  C   UNL     1       9.787  31.859  61.468  1.00  0.00     0.029 C 
HETATM   32  C   UNL     1       8.521  31.870  62.299  1.00  0.00     0.035 C 
ENDBRANCH  27  28
ENDBRANCH  25  27
ENDBRANCH  23  25
ENDBRANCH  21  23
ENDBRANCH  18  21
ENDBRANCH  13  17
ENDBRANCH  10  11
ENDBRANCH   9  10
ENDBRANCH   1   9
TORSDOF 9
ENDMDL
MODEL 5
REMARK VINA RESULT:      -8.7      1.923      2.505
REMARK  9 active torsions:
REMARK  status: ('A' for Active; 'I' for Inactive)
REMARK    1  A    between atoms: C_3  and  C_4 
REMARK       I    between atoms: C_4  and  N_5 
REMARK    2  A    between atoms: N_5  and  N_6 
REMARK    3  A    between atoms: N_6  and  C_7 
REMARK    4  A    between atoms: C_7  and  N_8 
REMARK    5  A    between atoms: N_8  and  C_9 
REMARK    6  A    between atoms: C_9  and  C_10 
REMARK    7  A    between atoms: C_18  and  C_19 
REMARK    8  A    between atoms: C_19  and  O_20 
REMARK    9  A    between atoms: O_20  and  C_21 
ROOT
HETATM    1  C   UNL     1       7.872  31.901  61.789  1.00  0.00     0.069 A 
HETATM    2  C   UNL     1       6.505  31.927  61.518  1.00  0.00     0.038 A 
HETATM    3  C   UNL     1       5.607  32.399  62.484  1.00  0.00     0.025 A 
HETATM    4  C   UNL     1       6.071  32.843  63.726  1.00  0.00     0.044 A 
HETATM    5  C   UNL     1       5.149  33.324  64.712  1.00  0.00     0.099 C 
HETATM    6  N   UNL     1       4.398  33.710  65.509  1.00  0.00    -0.191 NA
HETATM    7  C   UNL     1       7.441  32.816  63.999  1.00  0.00     0.025 A 
HETATM    8  C   UNL     1       8.334  32.348  63.032  1.00  0.00     0.038 A 
ENDROOT
BRANCH   1   9
HETATM    9  O   UNL     1       8.854  31.476  60.941  1.00  0.00    -0.347 OA
BRANCH   9  10
HETATM   10  C   UNL     1       8.916  32.076  59.650  1.00  0.00     0.214 C 
BRANCH  10  11
HETATM   11  C   UNL     1       9.306  30.995  58.671  1.00  0.00    -0.033 A 
HETATM   12  C   UNL     1       8.505  29.848  58.533  1.00  0.00     0.026 A 
HETATM   13  C   UNL     1       8.824  28.861  57.589  1.00  0.00     0.034 A 
HETATM   14  C   UNL     1       9.970  29.020  56.799  1.00  0.00     0.017 A 
HETATM   15  C   UNL     1      10.769  30.156  56.929  1.00  0.00     0.002 A 
HETATM   16  C   UNL     1      10.434  31.144  57.853  1.00  0.00     0.009 A 
BRANCH  13  17
HETATM   17  C   UNL     1       7.993  27.640  57.376  1.00  0.00     0.270 C 
HETATM   18  N   UNL     1       7.558  27.389  56.090  1.00  0.00    -0.264 N 
HETATM   19  H   UNL     1       7.830  27.920  55.270  1.00  0.00     0.190 HD
HETATM   20  O   UNL     1       7.735  26.882  58.310  1.00  0.00    -0.266 OA
BRANCH  18  21
HETATM   21  N   UNL     1       6.868  26.194  55.850  1.00  0.00    -0.274 N 
HETATM   22  H   UNL     1       5.855  26.296  55.846  1.00  0.00     0.189 HD
BRANCH  21  23
HETATM   23  C   UNL     1       7.453  25.173  55.144  1.00  0.00     0.186 C 
HETATM   24  S   UNL     1       8.335  23.920  55.817  1.00  0.00    -0.040 SA
BRANCH  23  25
HETATM   25  N   UNL     1       7.228  25.165  53.799  1.00  0.00    -0.364 N 
HETATM   26  H   UNL     1       8.077  25.283  53.249  1.00  0.00     0.162 HD
BRANCH  25  27
HETATM   27  C   UNL     1       6.147  24.470  53.110  1.00  0.00     0.154 C 
BRANCH  27  28
HETATM   28  C   UNL     1       5.118  25.453  52.550  1.00  0.00     0.139 C 
HETATM   29  O   UNL     1       5.159  26.685  53.291  1.00  0.00    -0.384 OA
HETATM   30  C   UNL     1       4.583  27.684  52.445  1.00  0.00     0.168 C 
HETATM   31  C   UNL     1       4.899  27.281  51.019  1.00  0.00     0.029 C 
HETATM   32  C   UNL     1       5.394  25.853  51.113  1.00  0.00     0.035 C 
ENDBRANCH  27  28
ENDBRANCH  25  27
ENDBRANCH  23  25
ENDBRANCH  21  23
ENDBRANCH  18  21
ENDBRANCH  13  17
ENDBRANCH  10  11
ENDBRANCH   9  10
ENDBRANCH   1   9
TORSDOF 9
ENDMDL
MODEL 6
REMARK VINA RESULT:      -8.7      3.423      9.779
REMARK  9 active torsions:
REMARK  status: ('A' for Active; 'I' for Inactive)
REMARK    1  A    between atoms: C_3  and  C_4 
REMARK       I    between atoms: C_4  and  N_5 
REMARK    2  A    between atoms: N_5  and  N_6 
REMARK    3  A    between atoms: N_6  and  C_7 
REMARK    4  A    between atoms: C_7  and  N_8 
REMARK    5  A    between atoms: N_8  and  C_9 
REMARK    6  A    between atoms: C_9  and  C_10 
REMARK    7  A    between atoms: C_18  and  C_19 
REMARK    8  A    between atoms: C_19  and  O_20 
REMARK    9  A    between atoms: O_20  and  C_21 
ROOT
HETATM    1  C   UNL     1       7.326  25.680  55.116  1.00  0.00     0.069 A 
HETATM    2  C   UNL     1       6.963  25.268  53.834  1.00  0.00     0.038 A 
HETATM    3  C   UNL     1       7.126  23.930  53.454  1.00  0.00     0.025 A 
HETATM    4  C   UNL     1       7.656  22.998  54.353  1.00  0.00     0.044 A 
HETATM    5  C   UNL     1       7.823  21.629  53.960  1.00  0.00     0.099 C 
HETATM    6  N   UNL     1       7.958  20.522  53.637  1.00  0.00    -0.191 NA
HETATM    7  C   UNL     1       8.022  23.410  55.637  1.00  0.00     0.025 A 
HETATM    8  C   UNL     1       7.854  24.745  56.013  1.00  0.00     0.038 A 
ENDROOT
BRANCH   1   9
HETATM    9  O   UNL     1       7.215  26.945  55.618  1.00  0.00    -0.347 OA
BRANCH   9  10
HETATM   10  C   UNL     1       7.474  27.127  57.007  1.00  0.00     0.214 C 
BRANCH  10  11
HETATM   11  C   UNL     1       8.376  28.331  57.141  1.00  0.00    -0.033 A 
HETATM   12  C   UNL     1       8.272  29.168  58.266  1.00  0.00     0.026 A 
HETATM   13  C   UNL     1       9.138  30.257  58.430  1.00  0.00     0.034 A 
HETATM   14  C   UNL     1      10.099  30.519  57.444  1.00  0.00     0.017 A 
HETATM   15  C   UNL     1      10.210  29.692  56.325  1.00  0.00     0.002 A 
HETATM   16  C   UNL     1       9.360  28.598  56.179  1.00  0.00     0.009 A 
BRANCH  13  17
HETATM   17  C   UNL     1       9.095  31.159  59.619  1.00  0.00     0.270 C 
HETATM   18  N   UNL     1       8.809  30.580  60.840  1.00  0.00    -0.264 N 
HETATM   19  H   UNL     1       8.713  29.583  61.003  1.00  0.00     0.190 HD
HETATM   20  O   UNL     1       9.332  32.360  59.508  1.00  0.00    -0.266 OA
BRANCH  18  21
HETATM   21  N   UNL     1       8.869  31.389  61.982  1.00  0.00    -0.274 N 
HETATM   22  H   UNL     1       9.726  31.933  62.058  1.00  0.00     0.189 HD
BRANCH  21  23
HETATM   23  C   UNL     1       7.722  31.836  62.589  1.00  0.00     0.186 C 
HETATM   24  S   UNL     1       7.668  32.889  63.888  1.00  0.00    -0.040 SA
BRANCH  23  25
HETATM   25  N   UNL     1       6.547  31.426  62.030  1.00  0.00    -0.364 N 
HETATM   26  H   UNL     1       6.246  30.509  62.354  1.00  0.00     0.162 HD
BRANCH  25  27
HETATM   27  C   UNL     1       5.471  32.290  61.559  1.00  0.00     0.154 C 
BRANCH  27  28
HETATM   28  C   UNL     1       5.777  32.858  60.172  1.00  0.00     0.139 C 
HETATM   29  O   UNL     1       5.796  31.799  59.199  1.00  0.00    -0.384 OA
HETATM   30  C   UNL     1       5.580  32.416  57.927  1.00  0.00     0.168 C 
HETATM   31  C   UNL     1       4.705  33.628  58.174  1.00  0.00     0.029 C 
HETATM   32  C   UNL     1       4.718  33.825  59.676  1.00  0.00     0.035 C 
ENDBRANCH  27  28
ENDBRANCH  25  27
ENDBRANCH  23  25
ENDBRANCH  21  23
ENDBRANCH  18  21
ENDBRANCH  13  17
ENDBRANCH  10  11
ENDBRANCH   9  10
ENDBRANCH   1   9
TORSDOF 9
ENDMDL
MODEL 7
REMARK VINA RESULT:      -8.3      3.429     10.832
REMARK  9 active torsions:
REMARK  status: ('A' for Active; 'I' for Inactive)
REMARK    1  A    between atoms: C_3  and  C_4 
REMARK       I    between atoms: C_4  and  N_5 
REMARK    2  A    between atoms: N_5  and  N_6 
REMARK    3  A    between atoms: N_6  and  C_7 
REMARK    4  A    between atoms: C_7  and  N_8 
REMARK    5  A    between atoms: N_8  and  C_9 
REMARK    6  A    between atoms: C_9  and  C_10 
REMARK    7  A    between atoms: C_18  and  C_19 
REMARK    8  A    between atoms: C_19  and  O_20 
REMARK    9  A    between atoms: O_20  and  C_21 
ROOT
HETATM    1  C   UNL     1       7.559  25.383  54.338  1.00  0.00     0.069 A 
HETATM    2  C   UNL     1       7.605  24.993  53.000  1.00  0.00     0.038 A 
HETATM    3  C   UNL     1       7.788  23.644  52.668  1.00  0.00     0.025 A 
HETATM    4  C   UNL     1       7.932  22.681  53.672  1.00  0.00     0.044 A 
HETATM    5  C   UNL     1       8.121  21.302  53.328  1.00  0.00     0.099 C 
HETATM    6  N   UNL     1       8.277  20.187  53.045  1.00  0.00    -0.191 NA
HETATM    7  C   UNL     1       7.888  23.072  55.013  1.00  0.00     0.025 A 
HETATM    8  C   UNL     1       7.701  24.417  55.339  1.00  0.00     0.038 A 
ENDROOT
BRANCH   1   9
HETATM    9  O   UNL     1       7.380  26.655  54.800  1.00  0.00    -0.347 OA
BRANCH   9  10
HETATM   10  C   UNL     1       6.937  26.810  56.146  1.00  0.00     0.214 C 
BRANCH  10  11
HETATM   11  C   UNL     1       7.696  27.975  56.736  1.00  0.00    -0.033 A 
HETATM   12  C   UNL     1       7.001  29.020  57.369  1.00  0.00     0.026 A 
HETATM   13  C   UNL     1       7.695  30.080  57.969  1.00  0.00     0.034 A 
HETATM   14  C   UNL     1       9.095  30.100  57.909  1.00  0.00     0.017 A 
HETATM   15  C   UNL     1       9.792  29.065  57.284  1.00  0.00     0.002 A 
HETATM   16  C   UNL     1       9.097  28.002  56.709  1.00  0.00     0.009 A 
BRANCH  13  17
HETATM   17  C   UNL     1       7.011  31.199  58.683  1.00  0.00     0.270 C 
HETATM   18  N   UNL     1       7.096  31.213  60.062  1.00  0.00    -0.264 N 
HETATM   19  H   UNL     1       7.656  30.575  60.617  1.00  0.00     0.190 HD
HETATM   20  O   UNL     1       6.423  32.080  58.058  1.00  0.00    -0.266 OA
BRANCH  18  21
HETATM   21  N   UNL     1       6.553  32.310  60.743  1.00  0.00    -0.274 N 
HETATM   22  H   UNL     1       5.828  32.801  60.223  1.00  0.00     0.189 HD
BRANCH  21  23
HETATM   23  C   UNL     1       6.563  32.362  62.114  1.00  0.00     0.186 C 
HETATM   24  S   UNL     1       7.937  32.319  63.069  1.00  0.00    -0.040 SA
BRANCH  23  25
HETATM   25  N   UNL     1       5.351  32.526  62.719  1.00  0.00    -0.364 N 
HETATM   26  H   UNL     1       5.351  33.258  63.427  1.00  0.00     0.162 HD
BRANCH  25  27
HETATM   27  C   UNL     1       4.048  32.252  62.125  1.00  0.00     0.154 C 
BRANCH  27  28
HETATM   28  C   UNL     1       3.185  33.513  62.065  1.00  0.00     0.139 C 
HETATM   29  O   UNL     1       3.553  34.414  63.124  1.00  0.00    -0.384 OA
HETATM   30  C   UNL     1       3.104  35.712  62.725  1.00  0.00     0.168 C 
HETATM   31  C   UNL     1       3.177  35.751  61.211  1.00  0.00     0.029 C 
HETATM   32  C   UNL     1       3.381  34.311  60.788  1.00  0.00     0.035 C 
ENDBRANCH  27  28
ENDBRANCH  25  27
ENDBRANCH  23  25
ENDBRANCH  21  23
ENDBRANCH  18  21
ENDBRANCH  13  17
ENDBRANCH  10  11
ENDBRANCH   9  10
ENDBRANCH   1   9
TORSDOF 9
ENDMDL
MODEL 8
REMARK VINA RESULT:      -8.2      3.019     10.168
REMARK  9 active torsions:
REMARK  status: ('A' for Active; 'I' for Inactive)
REMARK    1  A    between atoms: C_3  and  C_4 
REMARK       I    between atoms: C_4  and  N_5 
REMARK    2  A    between atoms: N_5  and  N_6 
REMARK    3  A    between atoms: N_6  and  C_7 
REMARK    4  A    between atoms: C_7  and  N_8 
REMARK    5  A    between atoms: N_8  and  C_9 
REMARK    6  A    between atoms: C_9  and  C_10 
REMARK    7  A    between atoms: C_18  and  C_19 
REMARK    8  A    between atoms: C_19  and  O_20 
REMARK    9  A    between atoms: O_20  and  C_21 
ROOT
HETATM    1  C   UNL     1       7.245  24.389  55.865  1.00  0.00     0.069 A 
HETATM    2  C   UNL     1       7.163  24.510  54.478  1.00  0.00     0.038 A 
HETATM    3  C   UNL     1       7.443  23.408  53.660  1.00  0.00     0.025 A 
HETATM    4  C   UNL     1       7.810  22.182  54.225  1.00  0.00     0.044 A 
HETATM    5  C   UNL     1       8.097  21.057  53.383  1.00  0.00     0.099 C 
HETATM    6  N   UNL     1       8.332  20.150  52.698  1.00  0.00    -0.191 NA
HETATM    7  C   UNL     1       7.894  22.061  55.614  1.00  0.00     0.025 A 
HETATM    8  C   UNL     1       7.610  23.161  56.426  1.00  0.00     0.038 A 
ENDROOT
BRANCH   1   9
HETATM    9  O   UNL     1       6.993  25.374  56.776  1.00  0.00    -0.347 OA
BRANCH   9  10
HETATM   10  C   UNL     1       7.959  26.414  56.907  1.00  0.00     0.214 C 
BRANCH  10  11
HETATM   11  C   UNL     1       7.240  27.724  56.698  1.00  0.00    -0.033 A 
HETATM   12  C   UNL     1       7.372  28.759  57.640  1.00  0.00     0.026 A 
HETATM   13  C   UNL     1       6.754  30.000  57.433  1.00  0.00     0.034 A 
HETATM   14  C   UNL     1       5.979  30.191  56.281  1.00  0.00     0.017 A 
HETATM   15  C   UNL     1       5.845  29.170  55.339  1.00  0.00     0.002 A 
HETATM   16  C   UNL     1       6.480  27.945  55.541  1.00  0.00     0.009 A 
BRANCH  13  17
HETATM   17  C   UNL     1       6.887  31.144  58.382  1.00  0.00     0.270 C 
HETATM   18  N   UNL     1       5.759  31.510  59.090  1.00  0.00    -0.264 N 
HETATM   19  H   UNL     1       4.877  31.009  59.079  1.00  0.00     0.190 HD
HETATM   20  O   UNL     1       7.966  31.712  58.539  1.00  0.00    -0.266 OA
BRANCH  18  21
HETATM   21  N   UNL     1       5.889  32.510  60.063  1.00  0.00    -0.274 N 
HETATM   22  H   UNL     1       6.234  33.396  59.700  1.00  0.00     0.189 HD
BRANCH  21  23
HETATM   23  C   UNL     1       5.118  32.492  61.198  1.00  0.00     0.186 C 
HETATM   24  S   UNL     1       3.461  32.259  61.232  1.00  0.00    -0.040 SA
BRANCH  23  25
HETATM   25  N   UNL     1       5.786  32.610  62.382  1.00  0.00    -0.364 N 
HETATM   26  H   UNL     1       5.591  31.851  63.031  1.00  0.00     0.162 HD
BRANCH  25  27
HETATM   27  C   UNL     1       7.071  33.270  62.583  1.00  0.00     0.154 C 
BRANCH  27  28
HETATM   28  C   UNL     1       8.194  32.254  62.789  1.00  0.00     0.139 C 
HETATM   29  O   UNL     1       7.666  30.917  62.739  1.00  0.00    -0.384 OA
HETATM   30  C   UNL     1       8.768  30.058  62.433  1.00  0.00     0.168 C 
HETATM   31  C   UNL     1       9.723  30.865  61.577  1.00  0.00     0.029 C 
HETATM   32  C   UNL     1       9.248  32.298  61.697  1.00  0.00     0.035 C 
ENDBRANCH  27  28
ENDBRANCH  25  27
ENDBRANCH  23  25
ENDBRANCH  21  23
ENDBRANCH  18  21
ENDBRANCH  13  17
ENDBRANCH  10  11
ENDBRANCH   9  10
ENDBRANCH   1   9
TORSDOF 9
ENDMDL
MODEL 9
REMARK VINA RESULT:      -8.0      1.972      2.503
REMARK  9 active torsions:
REMARK  status: ('A' for Active; 'I' for Inactive)
REMARK    1  A    between atoms: C_3  and  C_4 
REMARK       I    between atoms: C_4  and  N_5 
REMARK    2  A    between atoms: N_5  and  N_6 
REMARK    3  A    between atoms: N_6  and  C_7 
REMARK    4  A    between atoms: C_7  and  N_8 
REMARK    5  A    between atoms: N_8  and  C_9 
REMARK    6  A    between atoms: C_9  and  C_10 
REMARK    7  A    between atoms: C_18  and  C_19 
REMARK    8  A    between atoms: C_19  and  O_20 
REMARK    9  A    between atoms: O_20  and  C_21 
ROOT
HETATM    1  C   UNL     1       6.679  32.910  61.718  1.00  0.00     0.069 A 
HETATM    2  C   UNL     1       7.497  33.081  62.835  1.00  0.00     0.038 A 
HETATM    3  C   UNL     1       6.928  33.315  64.092  1.00  0.00     0.025 A 
HETATM    4  C   UNL     1       5.538  33.384  64.239  1.00  0.00     0.044 A 
HETATM    5  C   UNL     1       4.959  33.626  65.528  1.00  0.00     0.099 C 
HETATM    6  N   UNL     1       4.495  33.824  66.574  1.00  0.00    -0.191 NA
HETATM    7  C   UNL     1       4.718  33.215  63.121  1.00  0.00     0.025 A 
HETATM    8  C   UNL     1       5.290  32.978  61.869  1.00  0.00     0.038 A 
ENDROOT
BRANCH   1   9
HETATM    9  O   UNL     1       7.098  32.669  60.441  1.00  0.00    -0.347 OA
BRANCH   9  10
HETATM   10  C   UNL     1       7.480  31.336  60.113  1.00  0.00     0.214 C 
BRANCH  10  11
HETATM   11  C   UNL     1       6.915  31.031  58.746  1.00  0.00    -0.033 A 
HETATM   12  C   UNL     1       7.362  29.904  58.035  1.00  0.00     0.026 A 
HETATM   13  C   UNL     1       6.808  29.577  56.790  1.00  0.00     0.034 A 
HETATM   14  C   UNL     1       5.816  30.405  56.247  1.00  0.00     0.017 A 
HETATM   15  C   UNL     1       5.366  31.524  56.947  1.00  0.00     0.002 A 
HETATM   16  C   UNL     1       5.905  31.831  58.196  1.00  0.00     0.009 A 
BRANCH  13  17
HETATM   17  C   UNL     1       7.221  28.376  56.006  1.00  0.00     0.270 C 
HETATM   18  N   UNL     1       7.225  28.492  54.629  1.00  0.00    -0.264 N 
HETATM   19  H   UNL     1       7.055  29.350  54.117  1.00  0.00     0.190 HD
HETATM   20  O   UNL     1       7.565  27.340  56.573  1.00  0.00    -0.266 OA
BRANCH  18  21
HETATM   21  N   UNL     1       7.710  27.412  53.880  1.00  0.00    -0.274 N 
HETATM   22  H   UNL     1       8.721  27.416  53.757  1.00  0.00     0.189 HD
BRANCH  21  23
HETATM   23  C   UNL     1       7.022  26.226  53.828  1.00  0.00     0.186 C 
HETATM   24  S   UNL     1       5.591  25.980  52.995  1.00  0.00    -0.040 SA
BRANCH  23  25
HETATM   25  N   UNL     1       7.602  25.164  54.458  1.00  0.00    -0.364 N 
HETATM   26  H   UNL     1       8.308  25.438  55.139  1.00  0.00     0.162 HD
BRANCH  25  27
HETATM   27  C   UNL     1       6.982  23.868  54.710  1.00  0.00     0.154 C 
BRANCH  27  28
HETATM   28  C   UNL     1       7.945  22.720  54.408  1.00  0.00     0.139 C 
HETATM   29  O   UNL     1       7.574  21.553  55.162  1.00  0.00    -0.384 OA
HETATM   30  C   UNL     1       8.154  20.434  54.486  1.00  0.00     0.168 C 
HETATM   31  C   UNL     1       8.196  20.790  53.013  1.00  0.00     0.029 C 
HETATM   32  C   UNL     1       7.909  22.276  52.957  1.00  0.00     0.035 C 
ENDBRANCH  27  28
ENDBRANCH  25  27
ENDBRANCH  23  25
ENDBRANCH  21  23
ENDBRANCH  18  21
ENDBRANCH  13  17
ENDBRANCH  10  11
ENDBRANCH   9  10
ENDBRANCH   1   9
TORSDOF 9
ENDMDL
MODEL 10
REMARK VINA RESULT:      -7.9      3.431     10.945
REMARK  9 active torsions:
REMARK  status: ('A' for Active; 'I' for Inactive)
REMARK    1  A    between atoms: C_3  and  C_4 
REMARK       I    between atoms: C_4  and  N_5 
REMARK    2  A    between atoms: N_5  and  N_6 
REMARK    3  A    between atoms: N_6  and  C_7 
REMARK    4  A    between atoms: C_7  and  N_8 
REMARK    5  A    between atoms: N_8  and  C_9 
REMARK    6  A    between atoms: C_9  and  C_10 
REMARK    7  A    between atoms: C_18  and  C_19 
REMARK    8  A    between atoms: C_19  and  O_20 
REMARK    9  A    between atoms: O_20  and  C_21 
ROOT
HETATM    1  C   UNL     1       7.128  24.746  54.880  1.00  0.00     0.069 A 
HETATM    2  C   UNL     1       7.241  23.640  55.721  1.00  0.00     0.038 A 
HETATM    3  C   UNL     1       7.629  22.399  55.200  1.00  0.00     0.025 A 
HETATM    4  C   UNL     1       7.902  22.258  53.835  1.00  0.00     0.044 A 
HETATM    5  C   UNL     1       8.297  20.986  53.306  1.00  0.00     0.099 C 
HETATM    6  N   UNL     1       8.614  19.953  52.881  1.00  0.00    -0.191 NA
HETATM    7  C   UNL     1       7.787  23.366  52.992  1.00  0.00     0.025 A 
HETATM    8  C   UNL     1       7.403  24.602  53.516  1.00  0.00     0.038 A 
ENDROOT
BRANCH   1   9
HETATM    9  O   UNL     1       6.769  26.010  55.254  1.00  0.00    -0.347 OA
BRANCH   9  10
HETATM   10  C   UNL     1       6.643  26.990  54.227  1.00  0.00     0.214 C 
BRANCH  10  11
HETATM   11  C   UNL     1       6.159  28.263  54.879  1.00  0.00    -0.033 A 
HETATM   12  C   UNL     1       6.768  28.724  56.060  1.00  0.00     0.026 A 
HETATM   13  C   UNL     1       6.367  29.932  56.647  1.00  0.00     0.034 A 
HETATM   14  C   UNL     1       5.330  30.667  56.055  1.00  0.00     0.017 A 
HETATM   15  C   UNL     1       4.723  30.217  54.882  1.00  0.00     0.002 A 
HETATM   16  C   UNL     1       5.142  29.026  54.291  1.00  0.00     0.009 A 
BRANCH  13  17
HETATM   17  C   UNL     1       6.998  30.486  57.881  1.00  0.00     0.270 C 
HETATM   18  N   UNL     1       6.155  30.847  58.914  1.00  0.00    -0.264 N 
HETATM   19  H   UNL     1       5.154  30.685  58.932  1.00  0.00     0.190 HD
HETATM   20  O   UNL     1       8.220  30.588  57.973  1.00  0.00    -0.266 OA
BRANCH  18  21
HETATM   21  N   UNL     1       6.733  31.268  60.118  1.00  0.00    -0.274 N 
HETATM   22  H   UNL     1       7.717  31.022  60.212  1.00  0.00     0.189 HD
BRANCH  21  23
HETATM   23  C   UNL     1       6.234  32.351  60.798  1.00  0.00     0.186 C 
HETATM   24  S   UNL     1       7.057  33.213  61.973  1.00  0.00    -0.040 SA
BRANCH  23  25
HETATM   25  N   UNL     1       4.994  32.778  60.422  1.00  0.00    -0.364 N 
HETATM   26  H   UNL     1       4.954  33.097  59.457  1.00  0.00     0.162 HD
BRANCH  25  27
HETATM   27  C   UNL     1       3.722  32.311  60.964  1.00  0.00     0.154 C 
BRANCH  27  28
HETATM   28  C   UNL     1       3.130  33.321  61.948  1.00  0.00     0.139 C 
HETATM   29  O   UNL     1       3.729  33.156  63.245  1.00  0.00    -0.384 OA
HETATM   30  C   UNL     1       3.531  34.389  63.942  1.00  0.00     0.168 C 
HETATM   31  C   UNL     1       3.530  35.485  62.894  1.00  0.00     0.029 C 
HETATM   32  C   UNL     1       3.416  34.763  61.568  1.00  0.00     0.035 C 
ENDBRANCH  27  28
ENDBRANCH  25  27
ENDBRANCH  23  25
ENDBRANCH  21  23
ENDBRANCH  18  21
ENDBRANCH  13  17
ENDBRANCH  10  11
ENDBRANCH   9  10
ENDBRANCH   1   9
TORSDOF 9
ENDMDL
