MODEL 1
REMARK VINA RESULT:     -10.3      0.000      0.000
REMARK  6 active torsions:
REMARK  status: ('A' for Active; 'I' for Inactive)
REMARK    1  A    between atoms: O_2  and  C_3 
REMARK    2  A    between atoms: C_3  and  C_4 
REMARK    3  A    between atoms: C_7  and  N_8 
REMARK       I    between atoms: N_8  and  C_9 
REMARK    4  A    between atoms: C_9  and  C_10 
REMARK    5  A    between atoms: C_10  and  O_11 
REMARK    6  A    between atoms: O_11  and  C_12 
ROOT
HETATM    1  C   UNL     1       8.494  28.922  56.220  1.00  0.00     0.278 C 
ENDROOT
BRANCH   1   2
HETATM    2  C   UNL     1       8.350  29.125  57.730  1.00  0.00     0.246 C 
HETATM    3  N   UNL     1       8.627  30.425  58.119  1.00  0.00    -0.325 N 
HETATM    4  H   UNL     1       9.025  31.014  57.392  1.00  0.00     0.169 HD
HETATM    5  O   UNL     1       7.938  28.216  58.448  1.00  0.00    -0.271 OA
BRANCH   3   6
HETATM    6  C   UNL     1       8.403  31.018  59.376  1.00  0.00     0.034 A 
HETATM    7  C   UNL     1       9.240  30.841  60.479  1.00  0.00     0.030 A 
HETATM    8  C   UNL     1       8.922  31.413  61.718  1.00  0.00     0.020 A 
HETATM    9  C   UNL     1       7.756  32.171  61.868  1.00  0.00     0.039 A 
HETATM   10  C   UNL     1       6.926  32.370  60.758  1.00  0.00     0.020 A 
HETATM   11  C   UNL     1       7.250  31.798  59.522  1.00  0.00     0.030 A 
BRANCH   9  12
HETATM   12  C   UNL     1       7.350  32.765  63.171  1.00  0.00     0.292 C 
HETATM   13  O   UNL     1       8.141  33.059  64.053  1.00  0.00    -0.259 OA
BRANCH  12  14
HETATM   14  O   UNL     1       6.007  32.954  63.212  1.00  0.00    -0.323 OA
HETATM   15  C   UNL     1       5.506  33.302  64.503  1.00  0.00     0.213 C 
ENDBRANCH  12  14
ENDBRANCH   9  12
ENDBRANCH   3   6
ENDBRANCH   1   2
BRANCH   1  16
HETATM   16  O   UNL     1       7.271  28.451  55.653  1.00  0.00    -0.342 OA
BRANCH  16  17
HETATM   17  C   UNL     1       7.352  27.199  55.095  1.00  0.00     0.071 A 
HETATM   18  C   UNL     1       7.310  26.131  55.998  1.00  0.00     0.067 A 
HETATM   19  C   UNL     1       7.455  24.833  55.486  1.00  0.00     0.046 A 
HETATM   20  C   UNL     1       7.654  24.577  54.131  1.00  0.00     0.003 A 
HETATM   21  N   UNL     1       7.446  23.615  56.127  1.00  0.00    -0.355 N 
HETATM   22  C   UNL     1       7.699  25.668  53.241  1.00  0.00     0.017 A 
HETATM   23  C   UNL     1       7.794  23.162  53.975  1.00  0.00     0.003 A 
HETATM   24  C   UNL     1       7.554  26.972  53.734  1.00  0.00     0.038 A 
HETATM   25  C   UNL     1       7.660  22.588  55.238  1.00  0.00     0.043 A 
HETATM   26  C   UNL     1       8.031  22.316  52.872  1.00  0.00     0.014 A 
HETATM   27  C   UNL     1       7.749  21.207  55.455  1.00  0.00     0.030 A 
HETATM   28  C   UNL     1       7.989  20.391  54.345  1.00  0.00     0.002 A 
HETATM   29  C   UNL     1       8.129  20.935  53.071  1.00  0.00     0.001 A 
HETATM   30  H   UNL     1       7.315  23.492  57.121  1.00  0.00     0.166 HD
ENDBRANCH  16  17
ENDBRANCH   1  16
TORSDOF 6
ENDMDL
MODEL 2
REMARK VINA RESULT:     -10.2      1.337      1.759
REMARK  6 active torsions:
REMARK  status: ('A' for Active; 'I' for Inactive)
REMARK    1  A    between atoms: O_2  and  C_3 
REMARK    2  A    between atoms: C_3  and  C_4 
REMARK    3  A    between atoms: C_7  and  N_8 
REMARK       I    between atoms: N_8  and  C_9 
REMARK    4  A    between atoms: C_9  and  C_10 
REMARK    5  A    between atoms: C_10  and  O_11 
REMARK    6  A    between atoms: O_11  and  C_12 
ROOT
HETATM    1  C   UNL     1       8.840  29.340  57.813  1.00  0.00     0.278 C 
ENDROOT
BRANCH   1   2
HETATM    2  C   UNL     1       8.804  30.528  58.779  1.00  0.00     0.246 C 
HETATM    3  N   UNL     1       7.847  30.375  59.769  1.00  0.00    -0.325 N 
HETATM    4  H   UNL     1       7.215  29.591  59.637  1.00  0.00     0.169 HD
HETATM    5  O   UNL     1       9.623  31.438  58.684  1.00  0.00    -0.271 OA
BRANCH   3   6
HETATM    6  C   UNL     1       7.671  31.155  60.927  1.00  0.00     0.034 A 
HETATM    7  C   UNL     1       8.553  31.155  62.009  1.00  0.00     0.030 A 
HETATM    8  C   UNL     1       8.281  31.912  63.156  1.00  0.00     0.020 A 
HETATM    9  C   UNL     1       7.115  32.682  63.234  1.00  0.00     0.039 A 
HETATM   10  C   UNL     1       6.240  32.704  62.142  1.00  0.00     0.020 A 
HETATM   11  C   UNL     1       6.518  31.947  60.998  1.00  0.00     0.030 A 
BRANCH   9  12
HETATM   12  C   UNL     1       6.758  33.471  64.445  1.00  0.00     0.292 C 
HETATM   13  O   UNL     1       7.554  34.166  65.055  1.00  0.00    -0.259 OA
BRANCH  12  14
HETATM   14  O   UNL     1       5.441  33.327  64.736  1.00  0.00    -0.323 OA
HETATM   15  C   UNL     1       5.031  33.998  65.929  1.00  0.00     0.213 C 
ENDBRANCH  12  14
ENDBRANCH   9  12
ENDBRANCH   3   6
ENDBRANCH   1   2
BRANCH   1  16
HETATM   16  O   UNL     1       7.885  28.349  58.194  1.00  0.00    -0.342 OA
BRANCH  16  17
HETATM   17  C   UNL     1       7.756  27.316  57.300  1.00  0.00     0.071 A 
HETATM   18  C   UNL     1       7.966  26.034  57.822  1.00  0.00     0.067 A 
HETATM   19  C   UNL     1       7.910  24.948  56.937  1.00  0.00     0.046 A 
HETATM   20  C   UNL     1       7.673  25.101  55.572  1.00  0.00     0.003 A 
HETATM   21  N   UNL     1       8.066  23.601  57.168  1.00  0.00    -0.355 N 
HETATM   22  C   UNL     1       7.471  26.401  55.067  1.00  0.00     0.017 A 
HETATM   23  C   UNL     1       7.719  23.801  54.978  1.00  0.00     0.003 A 
HETATM   24  C   UNL     1       7.521  27.499  55.938  1.00  0.00     0.038 A 
HETATM   25  C   UNL     1       7.967  22.884  55.998  1.00  0.00     0.043 A 
HETATM   26  C   UNL     1       7.582  23.321  53.659  1.00  0.00     0.014 A 
HETATM   27  C   UNL     1       8.081  21.507  55.767  1.00  0.00     0.030 A 
HETATM   28  C   UNL     1       7.944  21.057  54.450  1.00  0.00     0.002 A 
HETATM   29  C   UNL     1       7.699  21.949  53.409  1.00  0.00     0.001 A 
HETATM   30  H   UNL     1       8.245  23.191  58.074  1.00  0.00     0.166 HD
ENDBRANCH  16  17
ENDBRANCH   1  16
TORSDOF 6
ENDMDL
MODEL 3
REMARK VINA RESULT:     -10.1      1.862      3.132
REMARK  6 active torsions:
REMARK  status: ('A' for Active; 'I' for Inactive)
REMARK    1  A    between atoms: O_2  and  C_3 
REMARK    2  A    between atoms: C_3  and  C_4 
REMARK    3  A    between atoms: C_7  and  N_8 
REMARK       I    between atoms: N_8  and  C_9 
REMARK    4  A    between atoms: C_9  and  C_10 
REMARK    5  A    between atoms: C_10  and  O_11 
REMARK    6  A    between atoms: O_11  and  C_12 
ROOT
HETATM    1  C   UNL     1       8.633  30.260  58.539  1.00  0.00     0.278 C 
ENDROOT
BRANCH   1   2
HETATM    2  C   UNL     1       8.299  31.398  59.508  1.00  0.00     0.246 C 
HETATM    3  N   UNL     1       7.620  30.955  60.631  1.00  0.00    -0.325 N 
HETATM    4  H   UNL     1       7.309  29.988  60.590  1.00  0.00     0.169 HD
HETATM    5  O   UNL     1       8.701  32.539  59.296  1.00  0.00    -0.271 OA
BRANCH   3   6
HETATM    6  C   UNL     1       7.335  31.673  61.807  1.00  0.00     0.034 A 
HETATM    7  C   UNL     1       8.311  32.149  62.685  1.00  0.00     0.030 A 
HETATM    8  C   UNL     1       7.951  32.803  63.870  1.00  0.00     0.020 A 
HETATM    9  C   UNL     1       6.602  32.989  64.193  1.00  0.00     0.039 A 
HETATM   10  C   UNL     1       5.621  32.535  63.305  1.00  0.00     0.020 A 
HETATM   11  C   UNL     1       5.986  31.884  62.120  1.00  0.00     0.030 A 
BRANCH   9  12
HETATM   12  C   UNL     1       6.166  33.640  65.459  1.00  0.00     0.292 C 
HETATM   13  O   UNL     1       6.939  34.125  66.268  1.00  0.00    -0.259 OA
BRANCH  12  14
HETATM   14  O   UNL     1       4.812  33.641  65.552  1.00  0.00    -0.323 OA
HETATM   15  C   UNL     1       4.307  34.355  66.682  1.00  0.00     0.213 C 
ENDBRANCH  12  14
ENDBRANCH   9  12
ENDBRANCH   3   6
ENDBRANCH   1   2
BRANCH   1  16
HETATM   16  O   UNL     1       7.511  29.957  57.709  1.00  0.00    -0.342 OA
BRANCH  16  17
HETATM   17  C   UNL     1       7.570  28.725  57.108  1.00  0.00     0.071 A 
HETATM   18  C   UNL     1       7.654  28.736  55.711  1.00  0.00     0.067 A 
HETATM   19  C   UNL     1       7.650  27.503  55.043  1.00  0.00     0.046 A 
HETATM   20  C   UNL     1       7.550  26.285  55.713  1.00  0.00     0.003 A 
HETATM   21  N   UNL     1       7.729  27.216  53.700  1.00  0.00    -0.355 N 
HETATM   22  C   UNL     1       7.459  26.298  57.119  1.00  0.00     0.017 A 
HETATM   23  C   UNL     1       7.541  25.249  54.726  1.00  0.00     0.003 A 
HETATM   24  C   UNL     1       7.463  27.521  57.803  1.00  0.00     0.038 A 
HETATM   25  C   UNL     1       7.654  25.861  53.479  1.00  0.00     0.043 A 
HETATM   26  C   UNL     1       7.439  23.844  54.782  1.00  0.00     0.014 A 
HETATM   27  C   UNL     1       7.673  25.136  52.280  1.00  0.00     0.030 A 
HETATM   28  C   UNL     1       7.566  23.744  52.363  1.00  0.00     0.002 A 
HETATM   29  C   UNL     1       7.450  23.105  53.594  1.00  0.00     0.001 A 
HETATM   30  H   UNL     1       7.815  27.909  52.970  1.00  0.00     0.166 HD
ENDBRANCH  16  17
ENDBRANCH   1  16
TORSDOF 6
ENDMDL
MODEL 4
REMARK VINA RESULT:      -9.9      5.877      9.584
REMARK  6 active torsions:
REMARK  status: ('A' for Active; 'I' for Inactive)
REMARK    1  A    between atoms: O_2  and  C_3 
REMARK    2  A    between atoms: C_3  and  C_4 
REMARK    3  A    between atoms: C_7  and  N_8 
REMARK       I    between atoms: N_8  and  C_9 
REMARK    4  A    between atoms: C_9  and  C_10 
REMARK    5  A    between atoms: C_10  and  O_11 
REMARK    6  A    between atoms: O_11  and  C_12 
ROOT
HETATM    1  C   UNL     1       6.089  28.339  54.098  1.00  0.00     0.278 C 
ENDROOT
BRANCH   1   2
HETATM    2  C   UNL     1       4.948  27.969  53.147  1.00  0.00     0.246 C 
HETATM    3  N   UNL     1       5.294  28.135  51.816  1.00  0.00    -0.325 N 
HETATM    4  H   UNL     1       6.178  28.611  51.659  1.00  0.00     0.169 HD
HETATM    5  O   UNL     1       3.901  27.494  53.580  1.00  0.00    -0.271 OA
BRANCH   3   6
HETATM    6  C   UNL     1       4.582  27.709  50.679  1.00  0.00     0.034 A 
HETATM    7  C   UNL     1       4.827  26.507  50.013  1.00  0.00     0.030 A 
HETATM    8  C   UNL     1       4.119  26.176  48.849  1.00  0.00     0.020 A 
HETATM    9  C   UNL     1       3.154  27.049  48.337  1.00  0.00     0.039 A 
HETATM   10  C   UNL     1       2.889  28.245  49.015  1.00  0.00     0.020 A 
HETATM   11  C   UNL     1       3.597  28.569  50.178  1.00  0.00     0.030 A 
BRANCH   9  12
HETATM   12  C   UNL     1       2.405  26.765  47.082  1.00  0.00     0.292 C 
HETATM   13  O   UNL     1       2.527  25.733  46.443  1.00  0.00    -0.259 OA
BRANCH  12  14
HETATM   14  O   UNL     1       1.563  27.788  46.788  1.00  0.00    -0.323 OA
HETATM   15  C   UNL     1       0.324  27.374  46.210  1.00  0.00     0.213 C 
ENDBRANCH  12  14
ENDBRANCH   9  12
ENDBRANCH   3   6
ENDBRANCH   1   2
BRANCH   1  16
HETATM   16  O   UNL     1       7.342  27.878  53.589  1.00  0.00    -0.342 OA
BRANCH  16  17
HETATM   17  C   UNL     1       7.496  26.514  53.619  1.00  0.00     0.071 A 
HETATM   18  C   UNL     1       7.457  25.929  54.890  1.00  0.00     0.067 A 
HETATM   19  C   UNL     1       7.675  24.547  54.982  1.00  0.00     0.046 A 
HETATM   20  C   UNL     1       7.942  23.751  53.870  1.00  0.00     0.003 A 
HETATM   21  N   UNL     1       7.687  23.718  56.080  1.00  0.00    -0.355 N 
HETATM   22  C   UNL     1       7.984  24.363  52.601  1.00  0.00     0.017 A 
HETATM   23  C   UNL     1       8.145  22.413  54.335  1.00  0.00     0.003 A 
HETATM   24  C   UNL     1       7.766  25.743  52.489  1.00  0.00     0.038 A 
HETATM   25  C   UNL     1       7.979  22.424  55.719  1.00  0.00     0.043 A 
HETATM   26  C   UNL     1       8.463  21.194  53.702  1.00  0.00     0.014 A 
HETATM   27  C   UNL     1       8.113  21.272  56.505  1.00  0.00     0.030 A 
HETATM   28  C   UNL     1       8.433  20.076  55.854  1.00  0.00     0.002 A 
HETATM   29  C   UNL     1       8.607  20.035  54.473  1.00  0.00     0.001 A 
HETATM   30  H   UNL     1       7.517  24.020  57.029  1.00  0.00     0.166 HD
ENDBRANCH  16  17
ENDBRANCH   1  16
TORSDOF 6
ENDMDL
MODEL 5
REMARK VINA RESULT:      -9.8      2.472     10.968
REMARK  6 active torsions:
REMARK  status: ('A' for Active; 'I' for Inactive)
REMARK    1  A    between atoms: O_2  and  C_3 
REMARK    2  A    between atoms: C_3  and  C_4 
REMARK    3  A    between atoms: C_7  and  N_8 
REMARK       I    between atoms: N_8  and  C_9 
REMARK    4  A    between atoms: C_9  and  C_10 
REMARK    5  A    between atoms: C_10  and  O_11 
REMARK    6  A    between atoms: O_11  and  C_12 
ROOT
HETATM    1  C   UNL     1       7.761  29.719  57.947  1.00  0.00     0.278 C 
ENDROOT
BRANCH   1   2
HETATM    2  C   UNL     1       8.313  28.396  57.408  1.00  0.00     0.246 C 
HETATM    3  N   UNL     1       7.375  27.377  57.447  1.00  0.00    -0.325 N 
HETATM    4  H   UNL     1       6.523  27.598  57.953  1.00  0.00     0.169 HD
HETATM    5  O   UNL     1       9.441  28.339  56.924  1.00  0.00    -0.271 OA
BRANCH   3   6
HETATM    6  C   UNL     1       7.461  26.102  56.857  1.00  0.00     0.034 A 
HETATM    7  C   UNL     1       6.710  25.705  55.749  1.00  0.00     0.030 A 
HETATM    8  C   UNL     1       6.802  24.397  55.253  1.00  0.00     0.020 A 
HETATM    9  C   UNL     1       7.652  23.468  55.863  1.00  0.00     0.039 A 
HETATM   10  C   UNL     1       8.425  23.869  56.959  1.00  0.00     0.020 A 
HETATM   11  C   UNL     1       8.330  25.177  57.450  1.00  0.00     0.030 A 
BRANCH   9  12
HETATM   12  C   UNL     1       7.756  22.057  55.401  1.00  0.00     0.292 C 
HETATM   13  O   UNL     1       7.723  21.098  56.154  1.00  0.00    -0.259 OA
BRANCH  12  14
HETATM   14  O   UNL     1       7.855  22.003  54.049  1.00  0.00    -0.323 OA
HETATM   15  C   UNL     1       8.136  20.700  53.536  1.00  0.00     0.213 C 
ENDBRANCH  12  14
ENDBRANCH   9  12
ENDBRANCH   3   6
ENDBRANCH   1   2
BRANCH   1  16
HETATM   16  O   UNL     1       8.816  30.540  58.448  1.00  0.00    -0.342 OA
BRANCH  16  17
HETATM   17  C   UNL     1       8.593  31.044  59.705  1.00  0.00     0.071 A 
HETATM   18  C   UNL     1       7.249  31.173  60.075  1.00  0.00     0.067 A 
HETATM   19  C   UNL     1       6.965  31.743  61.324  1.00  0.00     0.046 A 
HETATM   20  C   UNL     1       7.959  32.194  62.190  1.00  0.00     0.003 A 
HETATM   21  N   UNL     1       5.758  31.982  61.941  1.00  0.00    -0.355 N 
HETATM   22  C   UNL     1       9.305  32.060  61.794  1.00  0.00     0.017 A 
HETATM   23  C   UNL     1       7.313  32.742  63.342  1.00  0.00     0.003 A 
HETATM   24  C   UNL     1       9.609  31.491  60.549  1.00  0.00     0.038 A 
HETATM   25  C   UNL     1       5.940  32.596  63.159  1.00  0.00     0.043 A 
HETATM   26  C   UNL     1       7.774  33.358  64.524  1.00  0.00     0.014 A 
HETATM   27  C   UNL     1       4.999  33.033  64.101  1.00  0.00     0.030 A 
HETATM   28  C   UNL     1       5.482  33.644  65.263  1.00  0.00     0.002 A 
HETATM   29  C   UNL     1       6.849  33.807  65.473  1.00  0.00     0.001 A 
HETATM   30  H   UNL     1       4.858  31.752  61.548  1.00  0.00     0.166 HD
ENDBRANCH  16  17
ENDBRANCH   1  16
TORSDOF 6
ENDMDL
MODEL 6
REMARK VINA RESULT:      -9.5      1.826      2.711
REMARK  6 active torsions:
REMARK  status: ('A' for Active; 'I' for Inactive)
REMARK    1  A    between atoms: O_2  and  C_3 
REMARK    2  A    between atoms: C_3  and  C_4 
REMARK    3  A    between atoms: C_7  and  N_8 
REMARK       I    between atoms: N_8  and  C_9 
REMARK    4  A    between atoms: C_9  and  C_10 
REMARK    5  A    between atoms: C_10  and  O_11 
REMARK    6  A    between atoms: O_11  and  C_12 
ROOT
HETATM    1  C   UNL     1       5.043  27.892  54.073  1.00  0.00     0.278 C 
ENDROOT
BRANCH   1   2
HETATM    2  C   UNL     1       5.153  28.351  55.530  1.00  0.00     0.246 C 
HETATM    3  N   UNL     1       6.339  29.019  55.786  1.00  0.00    -0.325 N 
HETATM    4  H   UNL     1       7.022  28.983  55.034  1.00  0.00     0.169 HD
HETATM    5  O   UNL     1       4.216  28.193  56.309  1.00  0.00    -0.271 OA
BRANCH   3   6
HETATM    6  C   UNL     1       6.688  29.747  56.939  1.00  0.00     0.034 A 
HETATM    7  C   UNL     1       6.095  30.956  57.306  1.00  0.00     0.030 A 
HETATM    8  C   UNL     1       6.538  31.657  58.436  1.00  0.00     0.020 A 
HETATM    9  C   UNL     1       7.584  31.153  59.215  1.00  0.00     0.039 A 
HETATM   10  C   UNL     1       8.166  29.929  58.864  1.00  0.00     0.020 A 
HETATM   11  C   UNL     1       7.719  29.232  57.735  1.00  0.00     0.030 A 
BRANCH   9  12
HETATM   12  C   UNL     1       8.120  31.877  60.400  1.00  0.00     0.292 C 
HETATM   13  O   UNL     1       8.982  32.738  60.330  1.00  0.00    -0.259 OA
BRANCH  12  14
HETATM   14  O   UNL     1       7.493  31.468  61.532  1.00  0.00    -0.323 OA
HETATM   15  C   UNL     1       6.750  32.496  62.190  1.00  0.00     0.213 C 
ENDBRANCH  12  14
ENDBRANCH   9  12
ENDBRANCH   3   6
ENDBRANCH   1   2
BRANCH   1  16
HETATM   16  O   UNL     1       6.339  27.680  53.511  1.00  0.00    -0.342 OA
BRANCH  16  17
HETATM   17  C   UNL     1       6.710  26.361  53.428  1.00  0.00     0.071 A 
HETATM   18  C   UNL     1       6.627  25.633  54.620  1.00  0.00     0.067 A 
HETATM   19  C   UNL     1       7.056  24.299  54.605  1.00  0.00     0.046 A 
HETATM   20  C   UNL     1       7.572  23.687  53.464  1.00  0.00     0.003 A 
HETATM   21  N   UNL     1       7.081  23.359  55.610  1.00  0.00    -0.355 N 
HETATM   22  C   UNL     1       7.653  24.441  52.277  1.00  0.00     0.017 A 
HETATM   23  C   UNL     1       7.937  22.350  53.819  1.00  0.00     0.003 A 
HETATM   24  C   UNL     1       7.226  25.776  52.272  1.00  0.00     0.038 A 
HETATM   25  C   UNL     1       7.620  22.174  55.164  1.00  0.00     0.043 A 
HETATM   26  C   UNL     1       8.519  21.275  53.116  1.00  0.00     0.014 A 
HETATM   27  C   UNL     1       7.853  20.972  55.846  1.00  0.00     0.030 A 
HETATM   28  C   UNL     1       8.434  19.922  55.127  1.00  0.00     0.002 A 
HETATM   29  C   UNL     1       8.765  20.069  53.783  1.00  0.00     0.001 A 
HETATM   30  H   UNL     1       6.761  23.520  56.553  1.00  0.00     0.166 HD
ENDBRANCH  16  17
ENDBRANCH   1  16
TORSDOF 6
ENDMDL
MODEL 7
REMARK VINA RESULT:      -9.5      1.634      2.473
REMARK  6 active torsions:
REMARK  status: ('A' for Active; 'I' for Inactive)
REMARK    1  A    between atoms: O_2  and  C_3 
REMARK    2  A    between atoms: C_3  and  C_4 
REMARK    3  A    between atoms: C_7  and  N_8 
REMARK       I    between atoms: N_8  and  C_9 
REMARK    4  A    between atoms: C_9  and  C_10 
REMARK    5  A    between atoms: C_10  and  O_11 
REMARK    6  A    between atoms: O_11  and  C_12 
ROOT
HETATM    1  C   UNL     1       5.706  28.344  54.711  1.00  0.00     0.278 C 
ENDROOT
BRANCH   1   2
HETATM    2  C   UNL     1       6.756  29.037  55.583  1.00  0.00     0.246 C 
HETATM    3  N   UNL     1       6.197  29.679  56.676  1.00  0.00    -0.325 N 
HETATM    4  H   UNL     1       5.182  29.731  56.669  1.00  0.00     0.169 HD
HETATM    5  O   UNL     1       7.954  28.917  55.336  1.00  0.00    -0.271 OA
BRANCH   3   6
HETATM    6  C   UNL     1       6.862  30.237  57.784  1.00  0.00     0.034 A 
HETATM    7  C   UNL     1       7.906  29.607  58.463  1.00  0.00     0.030 A 
HETATM    8  C   UNL     1       8.481  30.196  59.598  1.00  0.00     0.020 A 
HETATM    9  C   UNL     1       8.014  31.427  60.068  1.00  0.00     0.039 A 
HETATM   10  C   UNL     1       6.982  32.073  59.376  1.00  0.00     0.020 A 
HETATM   11  C   UNL     1       6.413  31.482  58.242  1.00  0.00     0.030 A 
BRANCH   9  12
HETATM   12  C   UNL     1       8.560  32.075  61.291  1.00  0.00     0.292 C 
HETATM   13  O   UNL     1       9.707  31.924  61.679  1.00  0.00    -0.259 OA
BRANCH  12  14
HETATM   14  O   UNL     1       7.622  32.865  61.873  1.00  0.00    -0.323 OA
HETATM   15  C   UNL     1       7.283  32.481  63.206  1.00  0.00     0.213 C 
ENDBRANCH  12  14
ENDBRANCH   9  12
ENDBRANCH   3   6
ENDBRANCH   1   2
BRANCH   1  16
HETATM   16  O   UNL     1       5.052  27.303  55.438  1.00  0.00    -0.342 OA
BRANCH  16  17
HETATM   17  C   UNL     1       5.759  26.129  55.502  1.00  0.00     0.071 A 
HETATM   18  C   UNL     1       5.981  25.488  54.278  1.00  0.00     0.067 A 
HETATM   19  C   UNL     1       6.642  24.252  54.295  1.00  0.00     0.046 A 
HETATM   20  C   UNL     1       7.064  23.640  55.474  1.00  0.00     0.003 A 
HETATM   21  N   UNL     1       6.996  23.415  53.261  1.00  0.00    -0.355 N 
HETATM   22  C   UNL     1       6.824  24.300  56.695  1.00  0.00     0.017 A 
HETATM   23  C   UNL     1       7.662  22.389  55.122  1.00  0.00     0.003 A 
HETATM   24  C   UNL     1       6.167  25.538  56.698  1.00  0.00     0.038 A 
HETATM   25  C   UNL     1       7.604  22.276  53.734  1.00  0.00     0.043 A 
HETATM   26  C   UNL     1       8.240  21.337  55.861  1.00  0.00     0.014 A 
HETATM   27  C   UNL     1       8.100  21.162  53.044  1.00  0.00     0.030 A 
HETATM   28  C   UNL     1       8.665  20.130  53.801  1.00  0.00     0.002 A 
HETATM   29  C   UNL     1       8.734  20.213  55.189  1.00  0.00     0.001 A 
HETATM   30  H   UNL     1       6.820  23.604  52.285  1.00  0.00     0.166 HD
ENDBRANCH  16  17
ENDBRANCH   1  16
TORSDOF 6
ENDMDL
MODEL 8
REMARK VINA RESULT:      -8.9      2.779     10.490
REMARK  6 active torsions:
REMARK  status: ('A' for Active; 'I' for Inactive)
REMARK    1  A    between atoms: O_2  and  C_3 
REMARK    2  A    between atoms: C_3  and  C_4 
REMARK    3  A    between atoms: C_7  and  N_8 
REMARK       I    between atoms: N_8  and  C_9 
REMARK    4  A    between atoms: C_9  and  C_10 
REMARK    5  A    between atoms: C_10  and  O_11 
REMARK    6  A    between atoms: O_11  and  C_12 
ROOT
HETATM    1  C   UNL     1       5.108  29.377  56.226  1.00  0.00     0.278 C 
ENDROOT
BRANCH   1   2
HETATM    2  C   UNL     1       6.116  28.322  55.760  1.00  0.00     0.246 C 
HETATM    3  N   UNL     1       5.736  27.037  56.109  1.00  0.00    -0.325 N 
HETATM    4  H   UNL     1       4.942  26.982  56.742  1.00  0.00     0.169 HD
HETATM    5  O   UNL     1       7.084  28.641  55.074  1.00  0.00    -0.271 OA
BRANCH   3   6
HETATM    6  C   UNL     1       6.301  25.822  55.679  1.00  0.00     0.034 A 
HETATM    7  C   UNL     1       7.312  25.147  56.366  1.00  0.00     0.030 A 
HETATM    8  C   UNL     1       7.870  23.972  55.845  1.00  0.00     0.020 A 
HETATM    9  C   UNL     1       7.421  23.457  54.624  1.00  0.00     0.039 A 
HETATM   10  C   UNL     1       6.392  24.118  53.944  1.00  0.00     0.020 A 
HETATM   11  C   UNL     1       5.836  25.290  54.470  1.00  0.00     0.030 A 
BRANCH   9  12
HETATM   12  C   UNL     1       8.009  22.237  54.007  1.00  0.00     0.292 C 
HETATM   13  O   UNL     1       7.880  21.950  52.828  1.00  0.00    -0.259 OA
BRANCH  12  14
HETATM   14  O   UNL     1       8.719  21.533  54.924  1.00  0.00    -0.323 OA
HETATM   15  C   UNL     1       8.745  20.125  54.685  1.00  0.00     0.213 C 
ENDBRANCH  12  14
ENDBRANCH   9  12
ENDBRANCH   3   6
ENDBRANCH   1   2
BRANCH   1  16
HETATM   16  O   UNL     1       5.662  30.689  56.115  1.00  0.00    -0.342 OA
BRANCH  16  17
HETATM   17  C   UNL     1       5.858  31.323  57.316  1.00  0.00     0.071 A 
HETATM   18  C   UNL     1       6.765  30.705  58.186  1.00  0.00     0.067 A 
HETATM   19  C   UNL     1       6.953  31.276  59.452  1.00  0.00     0.046 A 
HETATM   20  C   UNL     1       6.265  32.412  59.875  1.00  0.00     0.003 A 
HETATM   21  N   UNL     1       7.772  30.895  60.490  1.00  0.00    -0.355 N 
HETATM   22  C   UNL     1       5.352  33.014  58.986  1.00  0.00     0.017 A 
HETATM   23  C   UNL     1       6.674  32.690  61.217  1.00  0.00     0.003 A 
HETATM   24  C   UNL     1       5.153  32.458  57.715  1.00  0.00     0.038 A 
HETATM   25  C   UNL     1       7.615  31.726  61.574  1.00  0.00     0.043 A 
HETATM   26  C   UNL     1       6.321  33.673  62.165  1.00  0.00     0.014 A 
HETATM   27  C   UNL     1       8.226  31.695  62.835  1.00  0.00     0.030 A 
HETATM   28  C   UNL     1       7.856  32.679  63.758  1.00  0.00     0.002 A 
HETATM   29  C   UNL     1       6.917  33.653  63.432  1.00  0.00     0.001 A 
HETATM   30  H   UNL     1       8.395  30.101  60.466  1.00  0.00     0.166 HD
ENDBRANCH  16  17
ENDBRANCH   1  16
TORSDOF 6
ENDMDL
MODEL 9
REMARK VINA RESULT:      -8.8      6.949     11.032
REMARK  6 active torsions:
REMARK  status: ('A' for Active; 'I' for Inactive)
REMARK    1  A    between atoms: O_2  and  C_3 
REMARK    2  A    between atoms: C_3  and  C_4 
REMARK    3  A    between atoms: C_7  and  N_8 
REMARK       I    between atoms: N_8  and  C_9 
REMARK    4  A    between atoms: C_9  and  C_10 
REMARK    5  A    between atoms: C_10  and  O_11 
REMARK    6  A    between atoms: O_11  and  C_12 
ROOT
HETATM    1  C   UNL     1       5.313  26.062  50.763  1.00  0.00     0.278 C 
ENDROOT
BRANCH   1   2
HETATM    2  C   UNL     1       4.588  27.094  49.895  1.00  0.00     0.246 C 
HETATM    3  N   UNL     1       3.563  26.533  49.151  1.00  0.00    -0.325 N 
HETATM    4  H   UNL     1       3.530  25.517  49.166  1.00  0.00     0.169 HD
HETATM    5  O   UNL     1       4.873  28.287  49.970  1.00  0.00    -0.271 OA
BRANCH   3   6
HETATM    6  C   UNL     1       2.569  27.199  48.410  1.00  0.00     0.034 A 
HETATM    7  C   UNL     1       2.126  28.493  48.689  1.00  0.00     0.030 A 
HETATM    8  C   UNL     1       1.088  29.070  47.945  1.00  0.00     0.020 A 
HETATM    9  C   UNL     1       0.478  28.355  46.910  1.00  0.00     0.039 A 
HETATM   10  C   UNL     1       0.935  27.066  46.612  1.00  0.00     0.020 A 
HETATM   11  C   UNL     1       1.974  26.494  47.356  1.00  0.00     0.030 A 
BRANCH   9  12
HETATM   12  C   UNL     1      -0.656  28.905  46.117  1.00  0.00     0.292 C 
HETATM   13  O   UNL     1      -1.379  28.221  45.412  1.00  0.00    -0.259 OA
BRANCH  12  14
HETATM   14  O   UNL     1      -0.778  30.241  46.324  1.00  0.00    -0.323 OA
HETATM   15  C   UNL     1      -0.700  31.024  45.131  1.00  0.00     0.213 C 
ENDBRANCH  12  14
ENDBRANCH   9  12
ENDBRANCH   3   6
ENDBRANCH   1   2
BRANCH   1  16
HETATM   16  O   UNL     1       5.570  26.588  52.066  1.00  0.00    -0.342 OA
BRANCH  16  17
HETATM   17  C   UNL     1       6.130  25.689  52.938  1.00  0.00     0.071 A 
HETATM   18  C   UNL     1       6.642  24.522  52.359  1.00  0.00     0.067 A 
HETATM   19  C   UNL     1       7.167  23.542  53.212  1.00  0.00     0.046 A 
HETATM   20  C   UNL     1       7.179  23.679  54.599  1.00  0.00     0.003 A 
HETATM   21  N   UNL     1       7.734  22.321  52.926  1.00  0.00    -0.355 N 
HETATM   22  C   UNL     1       6.652  24.858  55.161  1.00  0.00     0.017 A 
HETATM   23  C   UNL     1       7.749  22.486  55.146  1.00  0.00     0.003 A 
HETATM   24  C   UNL     1       6.125  25.851  54.323  1.00  0.00     0.038 A 
HETATM   25  C   UNL     1       8.085  21.657  54.078  1.00  0.00     0.043 A 
HETATM   26  C   UNL     1       8.000  22.033  56.458  1.00  0.00     0.014 A 
HETATM   27  C   UNL     1       8.665  20.394  54.254  1.00  0.00     0.030 A 
HETATM   28  C   UNL     1       8.902  19.966  55.565  1.00  0.00     0.002 A 
HETATM   29  C   UNL     1       8.574  20.772  56.652  1.00  0.00     0.001 A 
HETATM   30  H   UNL     1       7.863  21.953  51.994  1.00  0.00     0.166 HD
ENDBRANCH  16  17
ENDBRANCH   1  16
TORSDOF 6
ENDMDL
MODEL 10
REMARK VINA RESULT:      -8.7      1.973      2.422
REMARK  6 active torsions:
REMARK  status: ('A' for Active; 'I' for Inactive)
REMARK    1  A    between atoms: O_2  and  C_3 
REMARK    2  A    between atoms: C_3  and  C_4 
REMARK    3  A    between atoms: C_7  and  N_8 
REMARK       I    between atoms: N_8  and  C_9 
REMARK    4  A    between atoms: C_9  and  C_10 
REMARK    5  A    between atoms: C_10  and  O_11 
REMARK    6  A    between atoms: O_11  and  C_12 
ROOT
HETATM    1  C   UNL     1       7.371  28.963  56.769  1.00  0.00     0.278 C 
ENDROOT
BRANCH   1   2
HETATM    2  C   UNL     1       6.390  29.731  57.659  1.00  0.00     0.246 C 
HETATM    3  N   UNL     1       6.990  30.792  58.316  1.00  0.00    -0.325 N 
HETATM    4  H   UNL     1       8.003  30.824  58.241  1.00  0.00     0.169 HD
HETATM    5  O   UNL     1       5.195  29.442  57.668  1.00  0.00    -0.271 OA
BRANCH   3   6
HETATM    6  C   UNL     1       6.366  31.822  59.044  1.00  0.00     0.034 A 
HETATM    7  C   UNL     1       6.640  32.106  60.383  1.00  0.00     0.030 A 
HETATM    8  C   UNL     1       5.934  33.108  61.062  1.00  0.00     0.020 A 
HETATM    9  C   UNL     1       4.939  33.840  60.406  1.00  0.00     0.039 A 
HETATM   10  C   UNL     1       4.677  33.575  59.057  1.00  0.00     0.020 A 
HETATM   11  C   UNL     1       5.387  32.574  58.382  1.00  0.00     0.030 A 
BRANCH   9  12
HETATM   12  C   UNL     1       4.132  34.885  61.092  1.00  0.00     0.292 C 
HETATM   13  O   UNL     1       4.547  36.007  61.334  1.00  0.00    -0.259 OA
BRANCH  12  14
HETATM   14  O   UNL     1       2.887  34.422  61.367  1.00  0.00    -0.323 OA
HETATM   15  C   UNL     1       2.738  33.901  62.689  1.00  0.00     0.213 C 
ENDBRANCH  12  14
ENDBRANCH   9  12
ENDBRANCH   3   6
ENDBRANCH   1   2
BRANCH   1  16
HETATM   16  O   UNL     1       7.772  27.743  57.394  1.00  0.00    -0.342 OA
BRANCH  16  17
HETATM   17  C   UNL     1       7.712  26.643  56.575  1.00  0.00     0.071 A 
HETATM   18  C   UNL     1       8.000  25.417  57.187  1.00  0.00     0.067 A 
HETATM   19  C   UNL     1       8.017  24.270  56.381  1.00  0.00     0.046 A 
HETATM   20  C   UNL     1       7.778  24.310  55.009  1.00  0.00     0.003 A 
HETATM   21  N   UNL     1       8.257  22.955  56.707  1.00  0.00    -0.355 N 
HETATM   22  C   UNL     1       7.496  25.556  54.413  1.00  0.00     0.017 A 
HETATM   23  C   UNL     1       7.909  22.977  54.508  1.00  0.00     0.003 A 
HETATM   24  C   UNL     1       7.473  26.714  55.203  1.00  0.00     0.038 A 
HETATM   25  C   UNL     1       8.209  22.153  55.591  1.00  0.00     0.043 A 
HETATM   26  C   UNL     1       7.807  22.398  53.226  1.00  0.00     0.014 A 
HETATM   27  C   UNL     1       8.411  20.773  55.458  1.00  0.00     0.030 A 
HETATM   28  C   UNL     1       8.308  20.223  54.175  1.00  0.00     0.002 A 
HETATM   29  C   UNL     1       8.012  21.022  53.074  1.00  0.00     0.001 A 
HETATM   30  H   UNL     1       8.457  22.623  57.639  1.00  0.00     0.166 HD
ENDBRANCH  16  17
ENDBRANCH   1  16
TORSDOF 6
ENDMDL
