MODEL 1
REMARK VINA RESULT:      -8.8      0.000      0.000
REMARK  7 active torsions:
REMARK  status: ('A' for Active; 'I' for Inactive)
REMARK    1  A    between atoms: C_2  and  C_3 
REMARK    2  A    between atoms: C_3  and  O_4 
REMARK    3  A    between atoms: O_4  and  C_5 
REMARK    4  A    between atoms: C_8  and  C_9 
REMARK    5  A    between atoms: C_15  and  C_16 
REMARK    6  A    between atoms: C_19  and  N_20 
REMARK       I    between atoms: N_20  and  C_21 
REMARK    7  A    between atoms: C_29  and  N_30 
ROOT
HETATM    1  C   UNL     1       5.115  26.832  53.666  1.00  0.00     0.072 A 
HETATM    2  N   UNL     1       4.717  26.938  52.349  1.00  0.00    -0.274 N 
HETATM    3  H   UNL     1       4.919  26.295  51.591  1.00  0.00     0.189 HD
HETATM    4  N   UNL     1       3.980  28.033  52.079  1.00  0.00    -0.148 NA
HETATM    5  C   UNL     1       3.905  28.621  53.266  1.00  0.00     0.199 A 
HETATM    6  C   UNL     1       4.570  27.943  54.291  1.00  0.00     0.040 A 
HETATM    7  C   UNL     1       4.573  28.492  55.675  1.00  0.00     0.106 A 
HETATM    8  C   UNL     1       3.804  29.807  55.750  1.00  0.00     0.081 A 
HETATM    9  C   UNL     1       3.691  30.407  57.038  1.00  0.00     0.100 C 
HETATM   10  N   UNL     1       3.601  30.890  58.090  1.00  0.00    -0.191 NA
HETATM   11  C   UNL     1       3.200  30.370  54.671  1.00  0.00     0.140 A 
HETATM   12  O   UNL     1       3.246  29.785  53.399  1.00  0.00    -0.277 OA
ENDROOT
BRANCH   7  13
HETATM   13  C   UNL     1       6.030  28.623  56.103  1.00  0.00    -0.044 A 
HETATM   14  C   UNL     1       6.465  28.359  57.411  1.00  0.00     0.010 A 
HETATM   15  C   UNL     1       7.816  28.483  57.760  1.00  0.00     0.030 A 
HETATM   16  C   UNL     1       8.764  28.859  56.808  1.00  0.00     0.034 A 
HETATM   17  C   UNL     1       8.340  29.104  55.498  1.00  0.00     0.030 A 
HETATM   18  C   UNL     1       6.992  28.984  55.148  1.00  0.00     0.010 A 
BRANCH  16  19
HETATM   19  N   UNL     1      10.140  29.008  57.074  1.00  0.00    -0.328 N 
HETATM   20  C   UNL     1      10.815  30.167  57.410  1.00  0.00     0.218 C 
HETATM   21  C   UNL     1      12.286  29.920  57.636  1.00  0.00     0.117 C 
HETATM   22  O   UNL     1      10.338  31.286  57.550  1.00  0.00    -0.274 OA
HETATM   23  H   UNL     1      10.693  28.163  57.011  1.00  0.00     0.169 HD
ENDBRANCH  16  19
ENDBRANCH   7  13
BRANCH  11  24
HETATM   24  N   UNL     1       2.486  31.549  54.686  1.00  0.00    -0.282 NA
HETATM   25  H   UNL     1       1.645  31.561  54.114  1.00  0.00     0.126 HD
HETATM   26  H   UNL     1       2.323  31.879  55.635  1.00  0.00     0.126 HD
ENDBRANCH  11  24
BRANCH   1  27
HETATM   27  C   UNL     1       5.970  25.753  54.146  1.00  0.00    -0.007 A 
HETATM   28  C   UNL     1       7.078  25.343  53.393  1.00  0.00     0.016 A 
HETATM   29  C   UNL     1       7.935  24.340  53.862  1.00  0.00     0.037 A 
HETATM   30  C   UNL     1       7.699  23.737  55.096  1.00  0.00     0.068 A 
HETATM   31  C   UNL     1       6.587  24.133  55.844  1.00  0.00     0.037 A 
HETATM   32  C   UNL     1       5.726  25.131  55.374  1.00  0.00     0.016 A 
BRANCH  30  33
HETATM   33  O   UNL     1       8.470  22.772  55.679  1.00  0.00    -0.351 OA
BRANCH  33  34
HETATM   34  C   UNL     1       9.151  21.871  54.804  1.00  0.00     0.175 C 
BRANCH  34  35
HETATM   35  C   UNL     1       8.218  20.700  54.511  1.00  0.00     0.022 C 
HETATM   36  C   UNL     1       7.943  20.558  53.025  1.00  0.00     0.007 C 
ENDBRANCH  34  35
ENDBRANCH  33  34
ENDBRANCH  30  33
ENDBRANCH   1  27
TORSDOF 7
ENDMDL
MODEL 2
REMARK VINA RESULT:      -8.7      4.263      8.190
REMARK  7 active torsions:
REMARK  status: ('A' for Active; 'I' for Inactive)
REMARK    1  A    between atoms: C_2  and  C_3 
REMARK    2  A    between atoms: C_3  and  O_4 
REMARK    3  A    between atoms: O_4  and  C_5 
REMARK    4  A    between atoms: C_8  and  C_9 
REMARK    5  A    between atoms: C_15  and  C_16 
REMARK    6  A    between atoms: C_19  and  N_20 
REMARK       I    between atoms: N_20  and  C_21 
REMARK    7  A    between atoms: C_29  and  N_30 
ROOT
HETATM    1  C   UNL     1       6.156  32.095  61.491  1.00  0.00     0.072 A 
HETATM    2  N   UNL     1       6.071  31.396  62.678  1.00  0.00    -0.274 N 
HETATM    3  H   UNL     1       6.740  30.731  63.050  1.00  0.00     0.189 HD
HETATM    4  N   UNL     1       4.958  31.652  63.394  1.00  0.00    -0.148 NA
HETATM    5  C   UNL     1       4.337  32.547  62.638  1.00  0.00     0.199 A 
HETATM    6  C   UNL     1       5.011  32.876  61.457  1.00  0.00     0.040 A 
HETATM    7  C   UNL     1       4.426  33.865  60.510  1.00  0.00     0.106 A 
HETATM    8  C   UNL     1       3.085  34.386  61.014  1.00  0.00     0.081 A 
HETATM    9  C   UNL     1       2.447  35.381  60.216  1.00  0.00     0.100 C 
HETATM   10  N   UNL     1       1.934  36.193  59.563  1.00  0.00    -0.191 NA
HETATM   11  C   UNL     1       2.529  33.982  62.186  1.00  0.00     0.140 A 
HETATM   12  O   UNL     1       3.148  33.044  63.022  1.00  0.00    -0.277 OA
ENDROOT
BRANCH   7  13
HETATM   13  C   UNL     1       4.334  33.183  59.151  1.00  0.00    -0.044 A 
HETATM   14  C   UNL     1       4.946  33.700  57.998  1.00  0.00     0.010 A 
HETATM   15  C   UNL     1       4.843  33.036  56.768  1.00  0.00     0.030 A 
HETATM   16  C   UNL     1       4.141  31.835  56.666  1.00  0.00     0.034 A 
HETATM   17  C   UNL     1       3.547  31.304  57.815  1.00  0.00     0.030 A 
HETATM   18  C   UNL     1       3.644  31.966  59.042  1.00  0.00     0.010 A 
BRANCH  16  19
HETATM   19  N   UNL     1       3.989  31.104  55.470  1.00  0.00    -0.328 N 
HETATM   20  C   UNL     1       4.701  29.989  55.065  1.00  0.00     0.218 C 
HETATM   21  C   UNL     1       4.235  29.477  53.725  1.00  0.00     0.117 C 
HETATM   22  O   UNL     1       5.595  29.419  55.679  1.00  0.00    -0.274 OA
HETATM   23  H   UNL     1       3.274  31.439  54.839  1.00  0.00     0.169 HD
ENDBRANCH  16  19
ENDBRANCH   7  13
BRANCH  11  24
HETATM   24  N   UNL     1       1.327  34.428  62.691  1.00  0.00    -0.282 NA
HETATM   25  H   UNL     1       0.717  34.899  62.025  1.00  0.00     0.126 HD
HETATM   26  H   UNL     1       0.848  33.703  63.220  1.00  0.00     0.126 HD
ENDBRANCH  11  24
BRANCH   1  27
HETATM   27  C   UNL     1       7.251  31.912  60.546  1.00  0.00    -0.007 A 
HETATM   28  C   UNL     1       8.500  32.496  60.790  1.00  0.00     0.016 A 
HETATM   29  C   UNL     1       9.574  32.292  59.916  1.00  0.00     0.037 A 
HETATM   30  C   UNL     1       9.414  31.491  58.786  1.00  0.00     0.068 A 
HETATM   31  C   UNL     1       8.166  30.918  58.530  1.00  0.00     0.037 A 
HETATM   32  C   UNL     1       7.090  31.127  59.400  1.00  0.00     0.016 A 
BRANCH  30  33
HETATM   33  O   UNL     1      10.384  31.190  57.872  1.00  0.00    -0.351 OA
BRANCH  33  34
HETATM   34  C   UNL     1      10.475  29.828  57.450  1.00  0.00     0.175 C 
BRANCH  34  35
HETATM   35  C   UNL     1      10.304  29.790  55.935  1.00  0.00     0.022 C 
HETATM   36  C   UNL     1       9.014  29.098  55.532  1.00  0.00     0.007 C 
ENDBRANCH  34  35
ENDBRANCH  33  34
ENDBRANCH  30  33
ENDBRANCH   1  27
TORSDOF 7
ENDMDL
MODEL 3
REMARK VINA RESULT:      -8.6      1.350      1.669
REMARK  7 active torsions:
REMARK  status: ('A' for Active; 'I' for Inactive)
REMARK    1  A    between atoms: C_2  and  C_3 
REMARK    2  A    between atoms: C_3  and  O_4 
REMARK    3  A    between atoms: O_4  and  C_5 
REMARK    4  A    between atoms: C_8  and  C_9 
REMARK    5  A    between atoms: C_15  and  C_16 
REMARK    6  A    between atoms: C_19  and  N_20 
REMARK       I    between atoms: N_20  and  C_21 
REMARK    7  A    between atoms: C_29  and  N_30 
ROOT
HETATM    1  C   UNL     1       5.728  26.032  52.287  1.00  0.00     0.072 A 
HETATM    2  N   UNL     1       5.598  25.966  50.915  1.00  0.00    -0.274 N 
HETATM    3  H   UNL     1       5.980  25.263  50.293  1.00  0.00     0.189 HD
HETATM    4  N   UNL     1       4.876  26.970  50.378  1.00  0.00    -0.148 NA
HETATM    5  C   UNL     1       4.535  27.675  51.449  1.00  0.00     0.199 A 
HETATM    6  C   UNL     1       5.014  27.161  52.657  1.00  0.00     0.040 A 
HETATM    7  C   UNL     1       4.711  27.854  53.940  1.00  0.00     0.106 A 
HETATM    8  C   UNL     1       3.878  29.109  53.707  1.00  0.00     0.081 A 
HETATM    9  C   UNL     1       3.478  29.835  54.867  1.00  0.00     0.100 C 
HETATM   10  N   UNL     1       3.155  30.420  55.816  1.00  0.00    -0.191 NA
HETATM   11  C   UNL     1       3.475  29.508  52.472  1.00  0.00     0.140 A 
HETATM   12  O   UNL     1       3.805  28.795  51.312  1.00  0.00    -0.277 OA
ENDROOT
BRANCH   7  13
HETATM   13  C   UNL     1       6.044  28.137  54.623  1.00  0.00    -0.044 A 
HETATM   14  C   UNL     1       6.220  28.049  56.012  1.00  0.00     0.010 A 
HETATM   15  C   UNL     1       7.466  28.309  56.599  1.00  0.00     0.030 A 
HETATM   16  C   UNL     1       8.566  28.646  55.810  1.00  0.00     0.034 A 
HETATM   17  C   UNL     1       8.402  28.715  54.423  1.00  0.00     0.030 A 
HETATM   18  C   UNL     1       7.160  28.460  53.835  1.00  0.00     0.010 A 
BRANCH  16  19
HETATM   19  N   UNL     1       9.851  28.922  56.318  1.00  0.00    -0.328 N 
HETATM   20  C   UNL     1      10.215  29.928  57.195  1.00  0.00     0.218 C 
HETATM   21  C   UNL     1      11.688  29.892  57.519  1.00  0.00     0.117 C 
HETATM   22  O   UNL     1       9.481  30.766  57.705  1.00  0.00    -0.274 OA
HETATM   23  H   UNL     1      10.591  28.309  56.000  1.00  0.00     0.169 HD
ENDBRANCH  16  19
ENDBRANCH   7  13
BRANCH  11  24
HETATM   24  N   UNL     1       2.714  30.626  52.207  1.00  0.00    -0.282 NA
HETATM   25  H   UNL     1       3.150  31.325  51.610  1.00  0.00     0.126 HD
HETATM   26  H   UNL     1       1.774  30.379  51.904  1.00  0.00     0.126 HD
ENDBRANCH  11  24
BRANCH   1  27
HETATM   27  C   UNL     1       6.523  25.076  53.049  1.00  0.00    -0.007 A 
HETATM   28  C   UNL     1       7.627  24.447  52.459  1.00  0.00     0.016 A 
HETATM   29  C   UNL     1       8.427  23.562  53.191  1.00  0.00     0.037 A 
HETATM   30  C   UNL     1       8.138  23.299  54.529  1.00  0.00     0.068 A 
HETATM   31  C   UNL     1       7.030  23.913  55.118  1.00  0.00     0.037 A 
HETATM   32  C   UNL     1       6.226  24.793  54.385  1.00  0.00     0.016 A 
BRANCH  30  33
HETATM   33  O   UNL     1       8.853  22.482  55.359  1.00  0.00    -0.351 OA
BRANCH  33  34
HETATM   34  C   UNL     1       8.144  21.884  56.445  1.00  0.00     0.175 C 
BRANCH  34  35
HETATM   35  C   UNL     1       7.902  20.417  56.101  1.00  0.00     0.022 C 
HETATM   36  C   UNL     1       8.751  19.968  54.925  1.00  0.00     0.007 C 
ENDBRANCH  34  35
ENDBRANCH  33  34
ENDBRANCH  30  33
ENDBRANCH   1  27
TORSDOF 7
ENDMDL
MODEL 4
REMARK VINA RESULT:      -8.0      9.662     13.065
REMARK  7 active torsions:
REMARK  status: ('A' for Active; 'I' for Inactive)
REMARK    1  A    between atoms: C_2  and  C_3 
REMARK    2  A    between atoms: C_3  and  O_4 
REMARK    3  A    between atoms: O_4  and  C_5 
REMARK    4  A    between atoms: C_8  and  C_9 
REMARK    5  A    between atoms: C_15  and  C_16 
REMARK    6  A    between atoms: C_19  and  N_20 
REMARK       I    between atoms: N_20  and  C_21 
REMARK    7  A    between atoms: C_29  and  N_30 
ROOT
HETATM    1  C   UNL     1       5.631  33.230  63.421  1.00  0.00     0.072 A 
HETATM    2  N   UNL     1       6.338  32.157  62.920  1.00  0.00    -0.274 N 
HETATM    3  H   UNL     1       6.883  31.480  63.443  1.00  0.00     0.189 HD
HETATM    4  N   UNL     1       6.273  32.026  61.580  1.00  0.00    -0.148 NA
HETATM    5  C   UNL     1       5.491  33.041  61.237  1.00  0.00     0.199 A 
HETATM    6  C   UNL     1       5.052  33.823  62.309  1.00  0.00     0.040 A 
HETATM    7  C   UNL     1       4.171  35.000  62.069  1.00  0.00     0.106 A 
HETATM    8  C   UNL     1       3.882  35.179  60.583  1.00  0.00     0.081 A 
HETATM    9  C   UNL     1       3.005  36.246  60.228  1.00  0.00     0.100 C 
HETATM   10  N   UNL     1       2.289  37.115  59.946  1.00  0.00    -0.191 NA
HETATM   11  C   UNL     1       4.377  34.347  59.629  1.00  0.00     0.140 A 
HETATM   12  O   UNL     1       5.201  33.259  59.942  1.00  0.00    -0.277 OA
ENDROOT
BRANCH   7  13
HETATM   13  C   UNL     1       4.855  36.207  62.698  1.00  0.00    -0.044 A 
HETATM   14  C   UNL     1       5.876  36.923  62.055  1.00  0.00     0.010 A 
HETATM   15  C   UNL     1       6.473  38.034  62.666  1.00  0.00     0.030 A 
HETATM   16  C   UNL     1       6.052  38.464  63.924  1.00  0.00     0.034 A 
HETATM   17  C   UNL     1       5.021  37.767  64.562  1.00  0.00     0.030 A 
HETATM   18  C   UNL     1       4.427  36.656  63.957  1.00  0.00     0.010 A 
BRANCH  16  19
HETATM   19  N   UNL     1       6.598  39.569  64.609  1.00  0.00    -0.328 N 
HETATM   20  C   UNL     1       6.278  40.905  64.447  1.00  0.00     0.218 C 
HETATM   21  C   UNL     1       7.068  41.792  65.376  1.00  0.00     0.117 C 
HETATM   22  O   UNL     1       5.448  41.379  63.680  1.00  0.00    -0.274 OA
HETATM   23  H   UNL     1       7.306  39.352  65.298  1.00  0.00     0.169 HD
ENDBRANCH  16  19
ENDBRANCH   7  13
BRANCH  11  24
HETATM   24  N   UNL     1       4.138  34.459  58.276  1.00  0.00    -0.282 NA
HETATM   25  H   UNL     1       4.921  34.224  57.670  1.00  0.00     0.126 HD
HETATM   26  H   UNL     1       3.275  33.992  58.006  1.00  0.00     0.126 HD
ENDBRANCH  11  24
BRANCH   1  27
HETATM   27  C   UNL     1       5.627  33.579  64.837  1.00  0.00    -0.007 A 
HETATM   28  C   UNL     1       6.833  33.816  65.508  1.00  0.00     0.016 A 
HETATM   29  C   UNL     1       6.844  34.196  66.856  1.00  0.00     0.037 A 
HETATM   30  C   UNL     1       5.645  34.353  67.548  1.00  0.00     0.068 A 
HETATM   31  C   UNL     1       4.440  34.104  66.887  1.00  0.00     0.037 A 
HETATM   32  C   UNL     1       4.428  33.718  65.542  1.00  0.00     0.016 A 
BRANCH  30  33
HETATM   33  O   UNL     1       5.516  34.746  68.851  1.00  0.00    -0.351 OA
BRANCH  33  34
HETATM   34  C   UNL     1       6.335  34.078  69.813  1.00  0.00     0.175 C 
BRANCH  34  35
HETATM   35  C   UNL     1       7.299  35.102  70.404  1.00  0.00     0.022 C 
HETATM   36  C   UNL     1       8.734  34.609  70.368  1.00  0.00     0.007 C 
ENDBRANCH  34  35
ENDBRANCH  33  34
ENDBRANCH  30  33
ENDBRANCH   1  27
TORSDOF 7
ENDMDL
MODEL 5
REMARK VINA RESULT:      -7.9      4.560      8.915
REMARK  7 active torsions:
REMARK  status: ('A' for Active; 'I' for Inactive)
REMARK    1  A    between atoms: C_2  and  C_3 
REMARK    2  A    between atoms: C_3  and  O_4 
REMARK    3  A    between atoms: O_4  and  C_5 
REMARK    4  A    between atoms: C_8  and  C_9 
REMARK    5  A    between atoms: C_15  and  C_16 
REMARK    6  A    between atoms: C_19  and  N_20 
REMARK       I    between atoms: N_20  and  C_21 
REMARK    7  A    between atoms: C_29  and  N_30 
ROOT
HETATM    1  C   UNL     1       8.752  30.727  58.756  1.00  0.00     0.072 A 
HETATM    2  N   UNL     1      10.067  30.881  58.365  1.00  0.00    -0.274 N 
HETATM    3  H   UNL     1      10.817  31.322  58.887  1.00  0.00     0.189 HD
HETATM    4  N   UNL     1      10.346  30.378  57.146  1.00  0.00    -0.148 NA
HETATM    5  C   UNL     1       9.174  29.884  56.771  1.00  0.00     0.199 A 
HETATM    6  C   UNL     1       8.148  30.052  57.706  1.00  0.00     0.040 A 
HETATM    7  C   UNL     1       6.777  29.549  57.414  1.00  0.00     0.106 A 
HETATM    8  C   UNL     1       6.709  28.896  56.038  1.00  0.00     0.081 A 
HETATM    9  C   UNL     1       5.457  28.327  55.663  1.00  0.00     0.100 C 
HETATM   10  N   UNL     1       4.435  27.865  55.364  1.00  0.00    -0.191 NA
HETATM   11  C   UNL     1       7.786  28.797  55.214  1.00  0.00     0.140 A 
HETATM   12  O   UNL     1       9.045  29.299  55.567  1.00  0.00    -0.277 OA
ENDROOT
BRANCH   7  13
HETATM   13  C   UNL     1       5.825  30.729  57.566  1.00  0.00    -0.044 A 
HETATM   14  C   UNL     1       5.903  31.877  56.763  1.00  0.00     0.010 A 
HETATM   15  C   UNL     1       5.001  32.937  56.930  1.00  0.00     0.030 A 
HETATM   16  C   UNL     1       3.993  32.866  57.891  1.00  0.00     0.034 A 
HETATM   17  C   UNL     1       3.897  31.716  58.681  1.00  0.00     0.030 A 
HETATM   18  C   UNL     1       4.797  30.659  58.519  1.00  0.00     0.010 A 
BRANCH  16  19
HETATM   19  N   UNL     1       3.046  33.884  58.125  1.00  0.00    -0.328 N 
HETATM   20  C   UNL     1       3.071  34.849  59.115  1.00  0.00     0.218 C 
HETATM   21  C   UNL     1       1.885  35.777  59.030  1.00  0.00     0.117 C 
HETATM   22  O   UNL     1       3.931  35.006  59.974  1.00  0.00    -0.274 OA
HETATM   23  H   UNL     1       2.259  33.906  57.489  1.00  0.00     0.169 HD
ENDBRANCH  16  19
ENDBRANCH   7  13
BRANCH  11  24
HETATM   24  N   UNL     1       7.781  28.209  53.968  1.00  0.00    -0.282 NA
HETATM   25  H   UNL     1       8.643  27.738  53.700  1.00  0.00     0.126 HD
HETATM   26  H   UNL     1       6.955  27.631  53.827  1.00  0.00     0.126 HD
ENDBRANCH  11  24
BRANCH   1  27
HETATM   27  C   UNL     1       8.236  31.258  60.012  1.00  0.00    -0.007 A 
HETATM   28  C   UNL     1       7.374  32.362  60.009  1.00  0.00     0.016 A 
HETATM   29  C   UNL     1       6.834  32.855  61.203  1.00  0.00     0.037 A 
HETATM   30  C   UNL     1       7.143  32.244  62.417  1.00  0.00     0.068 A 
HETATM   31  C   UNL     1       8.013  31.152  62.425  1.00  0.00     0.037 A 
HETATM   32  C   UNL     1       8.560  30.662  61.234  1.00  0.00     0.016 A 
BRANCH  30  33
HETATM   33  O   UNL     1       6.663  32.607  63.644  1.00  0.00    -0.351 OA
BRANCH  33  34
HETATM   34  C   UNL     1       7.555  33.317  64.504  1.00  0.00     0.175 C 
BRANCH  34  35
HETATM   35  C   UNL     1       6.762  33.798  65.715  1.00  0.00     0.022 C 
HETATM   36  C   UNL     1       5.265  33.732  65.469  1.00  0.00     0.007 C 
ENDBRANCH  34  35
ENDBRANCH  33  34
ENDBRANCH  30  33
ENDBRANCH   1  27
TORSDOF 7
ENDMDL
MODEL 6
REMARK VINA RESULT:      -7.8      3.253      6.099
REMARK  7 active torsions:
REMARK  status: ('A' for Active; 'I' for Inactive)
REMARK    1  A    between atoms: C_2  and  C_3 
REMARK    2  A    between atoms: C_3  and  O_4 
REMARK    3  A    between atoms: O_4  and  C_5 
REMARK    4  A    between atoms: C_8  and  C_9 
REMARK    5  A    between atoms: C_15  and  C_16 
REMARK    6  A    between atoms: C_19  and  N_20 
REMARK       I    between atoms: N_20  and  C_21 
REMARK    7  A    between atoms: C_29  and  N_30 
ROOT
HETATM    1  C   UNL     1       4.637  28.275  54.754  1.00  0.00     0.072 A 
HETATM    2  N   UNL     1       4.028  28.180  55.989  1.00  0.00    -0.274 N 
HETATM    3  H   UNL     1       4.017  27.379  56.610  1.00  0.00     0.189 HD
HETATM    4  N   UNL     1       3.383  29.298  56.377  1.00  0.00    -0.148 NA
HETATM    5  C   UNL     1       3.608  30.120  55.360  1.00  0.00     0.199 A 
HETATM    6  C   UNL     1       4.374  29.569  54.329  1.00  0.00     0.040 A 
HETATM    7  C   UNL     1       4.700  30.377  53.121  1.00  0.00     0.106 A 
HETATM    8  C   UNL     1       4.089  31.772  53.209  1.00  0.00     0.081 A 
HETATM    9  C   UNL     1       4.375  32.662  52.133  1.00  0.00     0.100 C 
HETATM   10  N   UNL     1       4.612  33.382  51.254  1.00  0.00    -0.191 NA
HETATM   11  C   UNL     1       3.354  32.190  54.273  1.00  0.00     0.140 A 
HETATM   12  O   UNL     1       3.094  31.362  55.373  1.00  0.00    -0.277 OA
ENDROOT
BRANCH   7  13
HETATM   13  C   UNL     1       4.221  29.587  51.910  1.00  0.00    -0.044 A 
HETATM   14  C   UNL     1       2.863  29.342  51.651  1.00  0.00     0.010 A 
HETATM   15  C   UNL     1       2.465  28.617  50.519  1.00  0.00     0.030 A 
HETATM   16  C   UNL     1       3.411  28.137  49.614  1.00  0.00     0.034 A 
HETATM   17  C   UNL     1       4.764  28.396  49.856  1.00  0.00     0.030 A 
HETATM   18  C   UNL     1       5.165  29.115  50.985  1.00  0.00     0.010 A 
BRANCH  16  19
HETATM   19  N   UNL     1       3.097  27.401  48.454  1.00  0.00    -0.328 N 
HETATM   20  C   UNL     1       3.243  26.041  48.250  1.00  0.00     0.218 C 
HETATM   21  C   UNL     1       2.780  25.621  46.878  1.00  0.00     0.117 C 
HETATM   22  O   UNL     1       3.667  25.215  49.050  1.00  0.00    -0.274 OA
HETATM   23  H   UNL     1       2.720  27.937  47.683  1.00  0.00     0.169 HD
ENDBRANCH  16  19
ENDBRANCH   7  13
BRANCH  11  24
HETATM   24  N   UNL     1       2.790  33.440  54.406  1.00  0.00    -0.282 NA
HETATM   25  H   UNL     1       1.773  33.467  54.399  1.00  0.00     0.126 HD
HETATM   26  H   UNL     1       3.193  33.954  55.187  1.00  0.00     0.126 HD
ENDBRANCH  11  24
BRANCH   1  27
HETATM   27  C   UNL     1       5.330  27.155  54.130  1.00  0.00    -0.007 A 
HETATM   28  C   UNL     1       4.628  26.255  53.318  1.00  0.00     0.016 A 
HETATM   29  C   UNL     1       5.288  25.201  52.675  1.00  0.00     0.037 A 
HETATM   30  C   UNL     1       6.664  25.038  52.829  1.00  0.00     0.068 A 
HETATM   31  C   UNL     1       7.365  25.925  53.649  1.00  0.00     0.037 A 
HETATM   32  C   UNL     1       6.706  26.975  54.298  1.00  0.00     0.016 A 
BRANCH  30  33
HETATM   33  O   UNL     1       7.430  24.074  52.236  1.00  0.00    -0.351 OA
BRANCH  33  34
HETATM   34  C   UNL     1       8.346  23.369  53.075  1.00  0.00     0.175 C 
BRANCH  34  35
HETATM   35  C   UNL     1       7.653  22.107  53.578  1.00  0.00     0.022 C 
HETATM   36  C   UNL     1       8.237  20.855  52.949  1.00  0.00     0.007 C 
ENDBRANCH  34  35
ENDBRANCH  33  34
ENDBRANCH  30  33
ENDBRANCH   1  27
TORSDOF 7
ENDMDL
MODEL 7
REMARK VINA RESULT:      -7.7      2.072      2.529
REMARK  7 active torsions:
REMARK  status: ('A' for Active; 'I' for Inactive)
REMARK    1  A    between atoms: C_2  and  C_3 
REMARK    2  A    between atoms: C_3  and  O_4 
REMARK    3  A    between atoms: O_4  and  C_5 
REMARK    4  A    between atoms: C_8  and  C_9 
REMARK    5  A    between atoms: C_15  and  C_16 
REMARK    6  A    between atoms: C_19  and  N_20 
REMARK       I    between atoms: N_20  and  C_21 
REMARK    7  A    between atoms: C_29  and  N_30 
ROOT
HETATM    1  C   UNL     1       5.416  28.375  52.544  1.00  0.00     0.072 A 
HETATM    2  N   UNL     1       5.905  28.673  51.288  1.00  0.00    -0.274 N 
HETATM    3  H   UNL     1       6.512  28.101  50.711  1.00  0.00     0.189 HD
HETATM    4  N   UNL     1       5.509  29.868  50.808  1.00  0.00    -0.148 NA
HETATM    5  C   UNL     1       4.740  30.324  51.788  1.00  0.00     0.199 A 
HETATM    6  C   UNL     1       4.629  29.463  52.885  1.00  0.00     0.040 A 
HETATM    7  C   UNL     1       3.800  29.849  54.060  1.00  0.00     0.106 A 
HETATM    8  C   UNL     1       3.173  31.226  53.867  1.00  0.00     0.081 A 
HETATM    9  C   UNL     1       2.313  31.686  54.906  1.00  0.00     0.100 C 
HETATM   10  N   UNL     1       1.612  32.055  55.754  1.00  0.00    -0.191 NA
HETATM   11  C   UNL     1       3.364  31.972  52.747  1.00  0.00     0.140 A 
HETATM   12  O   UNL     1       4.162  31.533  51.683  1.00  0.00    -0.277 OA
ENDROOT
BRANCH   7  13
HETATM   13  C   UNL     1       4.698  29.765  55.288  1.00  0.00    -0.044 A 
HETATM   14  C   UNL     1       4.593  28.737  56.238  1.00  0.00     0.010 A 
HETATM   15  C   UNL     1       5.445  28.693  57.350  1.00  0.00     0.030 A 
HETATM   16  C   UNL     1       6.430  29.664  57.528  1.00  0.00     0.034 A 
HETATM   17  C   UNL     1       6.554  30.679  56.575  1.00  0.00     0.030 A 
HETATM   18  C   UNL     1       5.703  30.729  55.467  1.00  0.00     0.010 A 
BRANCH  16  19
HETATM   19  N   UNL     1       7.327  29.693  58.615  1.00  0.00    -0.328 N 
HETATM   20  C   UNL     1       7.857  30.806  59.243  1.00  0.00     0.218 C 
HETATM   21  C   UNL     1       8.771  30.431  60.384  1.00  0.00     0.117 C 
HETATM   22  O   UNL     1       7.637  31.981  58.976  1.00  0.00    -0.274 OA
HETATM   23  H   UNL     1       7.612  28.791  58.974  1.00  0.00     0.169 HD
ENDBRANCH  16  19
ENDBRANCH   7  13
BRANCH  11  24
HETATM   24  N   UNL     1       2.814  33.215  52.518  1.00  0.00    -0.282 NA
HETATM   25  H   UNL     1       3.213  33.737  51.741  1.00  0.00     0.126 HD
HETATM   26  H   UNL     1       1.797  33.178  52.488  1.00  0.00     0.126 HD
ENDBRANCH  11  24
BRANCH   1  27
HETATM   27  C   UNL     1       5.779  27.159  53.262  1.00  0.00    -0.007 A 
HETATM   28  C   UNL     1       4.925  26.048  53.245  1.00  0.00     0.016 A 
HETATM   29  C   UNL     1       5.280  24.858  53.891  1.00  0.00     0.037 A 
HETATM   30  C   UNL     1       6.500  24.760  54.558  1.00  0.00     0.068 A 
HETATM   31  C   UNL     1       7.348  25.869  54.589  1.00  0.00     0.037 A 
HETATM   32  C   UNL     1       6.992  27.061  53.949  1.00  0.00     0.016 A 
BRANCH  30  33
HETATM   33  O   UNL     1       6.977  23.652  55.201  1.00  0.00    -0.351 OA
BRANCH  33  34
HETATM   34  C   UNL     1       8.395  23.493  55.250  1.00  0.00     0.175 C 
BRANCH  34  35
HETATM   35  C   UNL     1       8.731  22.094  54.743  1.00  0.00     0.022 C 
HETATM   36  C   UNL     1       8.239  21.876  53.323  1.00  0.00     0.007 C 
ENDBRANCH  34  35
ENDBRANCH  33  34
ENDBRANCH  30  33
ENDBRANCH   1  27
TORSDOF 7
ENDMDL
MODEL 8
REMARK VINA RESULT:      -7.7      4.427      9.709
REMARK  7 active torsions:
REMARK  status: ('A' for Active; 'I' for Inactive)
REMARK    1  A    between atoms: C_2  and  C_3 
REMARK    2  A    between atoms: C_3  and  O_4 
REMARK    3  A    between atoms: O_4  and  C_5 
REMARK    4  A    between atoms: C_8  and  C_9 
REMARK    5  A    between atoms: C_15  and  C_16 
REMARK    6  A    between atoms: C_19  and  N_20 
REMARK       I    between atoms: N_20  and  C_21 
REMARK    7  A    between atoms: C_29  and  N_30 
ROOT
HETATM    1  C   UNL     1       7.670  31.933  60.042  1.00  0.00     0.072 A 
HETATM    2  N   UNL     1       8.818  32.671  60.245  1.00  0.00    -0.274 N 
HETATM    3  H   UNL     1       8.967  33.402  60.932  1.00  0.00     0.189 HD
HETATM    4  N   UNL     1       9.833  32.358  59.415  1.00  0.00    -0.148 NA
HETATM    5  C   UNL     1       9.306  31.387  58.681  1.00  0.00     0.199 A 
HETATM    6  C   UNL     1       7.986  31.064  59.009  1.00  0.00     0.040 A 
HETATM    7  C   UNL     1       7.268  29.994  58.262  1.00  0.00     0.106 A 
HETATM    8  C   UNL     1       8.151  29.390  57.176  1.00  0.00     0.081 A 
HETATM    9  C   UNL     1       7.592  28.316  56.423  1.00  0.00     0.100 C 
HETATM   10  N   UNL     1       7.132  27.441  55.815  1.00  0.00    -0.191 NA
HETATM   11  C   UNL     1       9.428  29.797  56.952  1.00  0.00     0.140 A 
HETATM   12  O   UNL     1      10.030  30.815  57.703  1.00  0.00    -0.277 OA
ENDROOT
BRANCH   7  13
HETATM   13  C   UNL     1       5.984  30.610  57.719  1.00  0.00    -0.044 A 
HETATM   14  C   UNL     1       4.710  30.118  58.042  1.00  0.00     0.010 A 
HETATM   15  C   UNL     1       3.554  30.720  57.527  1.00  0.00     0.030 A 
HETATM   16  C   UNL     1       3.645  31.835  56.694  1.00  0.00     0.034 A 
HETATM   17  C   UNL     1       4.911  32.343  56.386  1.00  0.00     0.030 A 
HETATM   18  C   UNL     1       6.066  31.742  56.894  1.00  0.00     0.010 A 
BRANCH  16  19
HETATM   19  N   UNL     1       2.534  32.500  56.134  1.00  0.00    -0.328 N 
HETATM   20  C   UNL     1       2.106  32.470  54.820  1.00  0.00     0.218 C 
HETATM   21  C   UNL     1       0.864  33.300  54.610  1.00  0.00     0.117 C 
HETATM   22  O   UNL     1       2.609  31.847  53.892  1.00  0.00    -0.274 OA
HETATM   23  H   UNL     1       1.991  33.064  56.776  1.00  0.00     0.169 HD
ENDBRANCH  16  19
ENDBRANCH   7  13
BRANCH  11  24
HETATM   24  N   UNL     1      10.270  29.279  55.992  1.00  0.00    -0.282 NA
HETATM   25  H   UNL     1      10.896  28.541  56.307  1.00  0.00     0.126 HD
HETATM   26  H   UNL     1       9.767  29.034  55.142  1.00  0.00     0.126 HD
ENDBRANCH  11  24
BRANCH   1  27
HETATM   27  C   UNL     1       6.442  32.163  60.794  1.00  0.00    -0.007 A 
HETATM   28  C   UNL     1       6.295  31.634  62.083  1.00  0.00     0.016 A 
HETATM   29  C   UNL     1       5.141  31.884  62.835  1.00  0.00     0.037 A 
HETATM   30  C   UNL     1       4.121  32.675  62.310  1.00  0.00     0.068 A 
HETATM   31  C   UNL     1       4.257  33.192  61.020  1.00  0.00     0.037 A 
HETATM   32  C   UNL     1       5.407  32.938  60.264  1.00  0.00     0.016 A 
BRANCH  30  33
HETATM   33  O   UNL     1       2.961  33.018  62.948  1.00  0.00    -0.351 OA
BRANCH  33  34
HETATM   34  C   UNL     1       2.812  34.386  63.329  1.00  0.00     0.175 C 
BRANCH  34  35
HETATM   35  C   UNL     1       3.431  34.562  64.713  1.00  0.00     0.022 C 
HETATM   36  C   UNL     1       3.981  35.963  64.909  1.00  0.00     0.007 C 
ENDBRANCH  34  35
ENDBRANCH  33  34
ENDBRANCH  30  33
ENDBRANCH   1  27
TORSDOF 7
ENDMDL
MODEL 9
REMARK VINA RESULT:      -7.5      9.011     12.338
REMARK  7 active torsions:
REMARK  status: ('A' for Active; 'I' for Inactive)
REMARK    1  A    between atoms: C_2  and  C_3 
REMARK    2  A    between atoms: C_3  and  O_4 
REMARK    3  A    between atoms: O_4  and  C_5 
REMARK    4  A    between atoms: C_8  and  C_9 
REMARK    5  A    between atoms: C_15  and  C_16 
REMARK    6  A    between atoms: C_19  and  N_20 
REMARK       I    between atoms: N_20  and  C_21 
REMARK    7  A    between atoms: C_29  and  N_30 
ROOT
HETATM    1  C   UNL     1       5.549  33.396  61.835  1.00  0.00     0.072 A 
HETATM    2  N   UNL     1       6.133  32.431  61.040  1.00  0.00    -0.274 N 
HETATM    3  H   UNL     1       6.757  31.687  61.332  1.00  0.00     0.189 HD
HETATM    4  N   UNL     1       5.815  32.522  59.734  1.00  0.00    -0.148 NA
HETATM    5  C   UNL     1       4.998  33.567  59.715  1.00  0.00     0.199 A 
HETATM    6  C   UNL     1       4.780  34.153  60.965  1.00  0.00     0.040 A 
HETATM    7  C   UNL     1       3.888  35.339  61.093  1.00  0.00     0.106 A 
HETATM    8  C   UNL     1       3.326  35.756  59.738  1.00  0.00     0.081 A 
HETATM    9  C   UNL     1       2.414  36.851  59.735  1.00  0.00     0.100 C 
HETATM   10  N   UNL     1       1.671  37.743  59.740  1.00  0.00    -0.191 NA
HETATM   11  C   UNL     1       3.620  35.101  58.584  1.00  0.00     0.140 A 
HETATM   12  O   UNL     1       4.472  33.989  58.552  1.00  0.00    -0.277 OA
ENDROOT
BRANCH   7  13
HETATM   13  C   UNL     1       4.696  36.437  61.772  1.00  0.00    -0.044 A 
HETATM   14  C   UNL     1       5.674  37.187  61.101  1.00  0.00     0.010 A 
HETATM   15  C   UNL     1       6.389  38.195  61.762  1.00  0.00     0.030 A 
HETATM   16  C   UNL     1       6.131  38.487  63.101  1.00  0.00     0.034 A 
HETATM   17  C   UNL     1       5.143  37.758  63.770  1.00  0.00     0.030 A 
HETATM   18  C   UNL     1       4.431  36.749  63.115  1.00  0.00     0.010 A 
BRANCH  16  19
HETATM   19  N   UNL     1       6.802  39.483  63.839  1.00  0.00    -0.328 N 
HETATM   20  C   UNL     1       6.445  40.811  63.987  1.00  0.00     0.218 C 
HETATM   21  C   UNL     1       7.410  41.562  64.871  1.00  0.00     0.117 C 
HETATM   22  O   UNL     1       5.467  41.371  63.508  1.00  0.00    -0.274 OA
HETATM   23  H   UNL     1       7.644  39.184  64.315  1.00  0.00     0.169 HD
ENDBRANCH  16  19
ENDBRANCH   7  13
BRANCH  11  24
HETATM   24  N   UNL     1       3.133  35.430  57.337  1.00  0.00    -0.282 NA
HETATM   25  H   UNL     1       2.135  35.285  57.203  1.00  0.00     0.126 HD
HETATM   26  H   UNL     1       3.441  36.355  57.044  1.00  0.00     0.126 HD
ENDBRANCH  11  24
BRANCH   1  27
HETATM   27  C   UNL     1       5.817  33.506  63.264  1.00  0.00    -0.007 A 
HETATM   28  C   UNL     1       7.124  33.713  63.723  1.00  0.00     0.016 A 
HETATM   29  C   UNL     1       7.392  33.867  65.088  1.00  0.00     0.037 A 
HETATM   30  C   UNL     1       6.351  33.824  66.015  1.00  0.00     0.068 A 
HETATM   31  C   UNL     1       5.048  33.605  65.563  1.00  0.00     0.037 A 
HETATM   32  C   UNL     1       4.780  33.444  64.199  1.00  0.00     0.016 A 
BRANCH  30  33
HETATM   33  O   UNL     1       6.472  33.988  67.366  1.00  0.00    -0.351 OA
BRANCH  33  34
HETATM   34  C   UNL     1       5.516  34.837  68.004  1.00  0.00     0.175 C 
BRANCH  34  35
HETATM   35  C   UNL     1       5.959  35.046  69.448  1.00  0.00     0.022 C 
HETATM   36  C   UNL     1       7.417  35.462  69.535  1.00  0.00     0.007 C 
ENDBRANCH  34  35
ENDBRANCH  33  34
ENDBRANCH  30  33
ENDBRANCH   1  27
TORSDOF 7
ENDMDL
MODEL 10
REMARK VINA RESULT:      -7.3      6.669     10.636
REMARK  7 active torsions:
REMARK  status: ('A' for Active; 'I' for Inactive)
REMARK    1  A    between atoms: C_2  and  C_3 
REMARK    2  A    between atoms: C_3  and  O_4 
REMARK    3  A    between atoms: O_4  and  C_5 
REMARK    4  A    between atoms: C_8  and  C_9 
REMARK    5  A    between atoms: C_15  and  C_16 
REMARK    6  A    between atoms: C_19  and  N_20 
REMARK       I    between atoms: N_20  and  C_21 
REMARK    7  A    between atoms: C_29  and  N_30 
ROOT
HETATM    1  C   UNL     1       3.797  36.996  60.780  1.00  0.00     0.072 A 
HETATM    2  N   UNL     1       4.076  38.346  60.730  1.00  0.00    -0.274 N 
HETATM    3  H   UNL     1       4.004  38.961  59.927  1.00  0.00     0.189 HD
HETATM    4  N   UNL     1       4.492  38.870  61.900  1.00  0.00    -0.148 NA
HETATM    5  C   UNL     1       4.458  37.818  62.707  1.00  0.00     0.199 A 
HETATM    6  C   UNL     1       4.036  36.633  62.097  1.00  0.00     0.040 A 
HETATM    7  C   UNL     1       3.955  35.372  62.884  1.00  0.00     0.106 A 
HETATM    8  C   UNL     1       4.388  35.593  64.329  1.00  0.00     0.081 A 
HETATM    9  C   UNL     1       4.304  34.467  65.199  1.00  0.00     0.100 C 
HETATM   10  N   UNL     1       4.233  33.546  65.903  1.00  0.00    -0.191 NA
HETATM   11  C   UNL     1       4.784  36.803  64.803  1.00  0.00     0.140 A 
HETATM   12  O   UNL     1       4.832  37.944  63.992  1.00  0.00    -0.277 OA
ENDROOT
BRANCH   7  13
HETATM   13  C   UNL     1       4.800  34.334  62.155  1.00  0.00    -0.044 A 
HETATM   14  C   UNL     1       6.201  34.308  62.228  1.00  0.00     0.010 A 
HETATM   15  C   UNL     1       6.941  33.330  61.550  1.00  0.00     0.030 A 
HETATM   16  C   UNL     1       6.296  32.348  60.798  1.00  0.00     0.034 A 
HETATM   17  C   UNL     1       4.899  32.355  60.737  1.00  0.00     0.030 A 
HETATM   18  C   UNL     1       4.159  33.332  61.410  1.00  0.00     0.010 A 
BRANCH  16  19
HETATM   19  N   UNL     1       6.962  31.330  60.085  1.00  0.00    -0.328 N 
HETATM   20  C   UNL     1       8.106  31.446  59.316  1.00  0.00     0.218 C 
HETATM   21  C   UNL     1       8.526  30.124  58.723  1.00  0.00     0.117 C 
HETATM   22  O   UNL     1       8.764  32.460  59.118  1.00  0.00    -0.274 OA
HETATM   23  H   UNL     1       6.550  30.408  60.148  1.00  0.00     0.169 HD
ENDBRANCH  16  19
ENDBRANCH   7  13
BRANCH  11  24
HETATM   24  N   UNL     1       5.175  37.058  66.100  1.00  0.00    -0.282 NA
HETATM   25  H   UNL     1       6.179  37.057  66.266  1.00  0.00     0.126 HD
HETATM   26  H   UNL     1       4.714  37.883  66.477  1.00  0.00     0.126 HD
ENDBRANCH  11  24
BRANCH   1  27
HETATM   27  C   UNL     1       3.395  36.231  59.606  1.00  0.00    -0.007 A 
HETATM   28  C   UNL     1       4.362  35.735  58.722  1.00  0.00     0.016 A 
HETATM   29  C   UNL     1       3.994  34.960  57.615  1.00  0.00     0.037 A 
HETATM   30  C   UNL     1       2.653  34.664  57.382  1.00  0.00     0.068 A 
HETATM   31  C   UNL     1       1.684  35.168  58.253  1.00  0.00     0.037 A 
HETATM   32  C   UNL     1       2.049  35.948  59.355  1.00  0.00     0.016 A 
BRANCH  30  33
HETATM   33  O   UNL     1       2.166  33.898  56.360  1.00  0.00    -0.351 OA
BRANCH  33  34
HETATM   34  C   UNL     1       3.116  33.141  55.609  1.00  0.00     0.175 C 
BRANCH  34  35
HETATM   35  C   UNL     1       2.701  31.674  55.665  1.00  0.00     0.022 C 
HETATM   36  C   UNL     1       3.228  30.988  56.913  1.00  0.00     0.007 C 
ENDBRANCH  34  35
ENDBRANCH  33  34
ENDBRANCH  30  33
ENDBRANCH   1  27
TORSDOF 7
ENDMDL
