MODEL 1
REMARK VINA RESULT:      -7.8      0.000      0.000
REMARK  5 active torsions:
REMARK  status: ('A' for Active; 'I' for Inactive)
REMARK    1  A    between atoms: C_2  and  C_3 
REMARK    2  A    between atoms: C_3  and  N_4 
REMARK    3  A    between atoms: C_3  and  C_14 
REMARK       I    between atoms: N_4  and  C_5 
REMARK    4  A    between atoms: C_5  and  C_6 
REMARK    5  A    between atoms: C_17  and  O_18 
ROOT
HETATM    1  C   UNL     1       6.730  25.372  53.414  1.00  0.00     0.117 C 
ENDROOT
BRANCH   1   2
HETATM    2  C   UNL     1       5.239  25.361  53.020  1.00  0.00     0.025 C 
HETATM    3  C   UNL     1       5.007  25.575  51.529  1.00  0.00     0.007 C 
ENDBRANCH   1   2
BRANCH   1   4
HETATM    4  N   UNL     1       6.984  26.257  54.546  1.00  0.00    -0.348 N 
HETATM    5  C   UNL     1       7.179  27.611  54.393  1.00  0.00     0.253 C 
HETATM    6  O   UNL     1       7.146  28.184  53.311  1.00  0.00    -0.268 OA
HETATM    7  H   UNL     1       7.180  25.814  55.431  1.00  0.00     0.163 HD
BRANCH   5   8
HETATM    8  C   UNL     1       7.469  28.384  55.624  1.00  0.00     0.050 A 
HETATM    9  C   UNL     1       6.460  28.531  56.571  1.00  0.00     0.133 A 
HETATM   10  N   UNL     1       6.603  29.218  57.733  1.00  0.00    -0.271 NA
HETATM   11  C   UNL     1       7.817  29.770  57.964  1.00  0.00     0.135 A 
HETATM   12  C   UNL     1       8.887  29.660  57.087  1.00  0.00     0.029 A 
HETATM   13 BR   UNL     1      10.551  30.449  57.497  1.00  0.00    -0.050 Br
HETATM   14  C   UNL     1       8.716  28.954  55.900  1.00  0.00     0.039 A 
ENDBRANCH   5   8
ENDBRANCH   1   4
BRANCH   1  15
HETATM   15  C   UNL     1       7.232  23.979  53.767  1.00  0.00    -0.035 A 
HETATM   16  C   UNL     1       7.246  23.563  55.105  1.00  0.00     0.012 A 
HETATM   17  C   UNL     1       7.673  22.277  55.446  1.00  0.00     0.037 A 
HETATM   18  C   UNL     1       8.082  21.377  54.462  1.00  0.00     0.068 A 
HETATM   19  C   UNL     1       8.069  21.778  53.127  1.00  0.00     0.037 A 
HETATM   20  C   UNL     1       7.646  23.067  52.782  1.00  0.00     0.012 A 
BRANCH  18  21
HETATM   21  O   UNL     1       8.466  20.151  54.931  1.00  0.00    -0.356 OA
HETATM   22  C   UNL     1       9.121  20.121  56.192  1.00  0.00     0.210 C 
ENDBRANCH  18  21
ENDBRANCH   1  15
TORSDOF 5
ENDMDL
MODEL 2
REMARK VINA RESULT:      -7.8      1.351      1.465
REMARK  5 active torsions:
REMARK  status: ('A' for Active; 'I' for Inactive)
REMARK    1  A    between atoms: C_2  and  C_3 
REMARK    2  A    between atoms: C_3  and  N_4 
REMARK    3  A    between atoms: C_3  and  C_14 
REMARK       I    between atoms: N_4  and  C_5 
REMARK    4  A    between atoms: C_5  and  C_6 
REMARK    5  A    between atoms: C_17  and  O_18 
ROOT
HETATM    1  C   UNL     1       6.777  25.628  53.376  1.00  0.00     0.117 C 
ENDROOT
BRANCH   1   2
HETATM    2  C   UNL     1       5.386  25.626  52.710  1.00  0.00     0.025 C 
HETATM    3  C   UNL     1       5.388  26.219  51.306  1.00  0.00     0.007 C 
ENDBRANCH   1   2
BRANCH   1   4
HETATM    4  N   UNL     1       6.805  26.464  54.571  1.00  0.00    -0.348 N 
HETATM    5  C   UNL     1       7.395  27.708  54.586  1.00  0.00     0.253 C 
HETATM    6  O   UNL     1       7.930  28.217  53.609  1.00  0.00    -0.268 OA
HETATM    7  H   UNL     1       6.523  26.027  55.435  1.00  0.00     0.163 HD
BRANCH   5   8
HETATM    8  C   UNL     1       7.387  28.432  55.879  1.00  0.00     0.050 A 
HETATM    9  C   UNL     1       8.204  27.968  56.906  1.00  0.00     0.133 A 
HETATM   10  N   UNL     1       8.281  28.543  58.133  1.00  0.00    -0.271 NA
HETATM   11  C   UNL     1       7.517  29.641  58.336  1.00  0.00     0.135 A 
HETATM   12  C   UNL     1       6.687  30.186  57.367  1.00  0.00     0.029 A 
HETATM   13 BR   UNL     1       5.668  31.730  57.731  1.00  0.00    -0.050 Br
HETATM   14  C   UNL     1       6.621  29.578  56.116  1.00  0.00     0.039 A 
ENDBRANCH   5   8
ENDBRANCH   1   4
BRANCH   1  15
HETATM   15  C   UNL     1       7.222  24.223  53.758  1.00  0.00    -0.035 A 
HETATM   16  C   UNL     1       7.124  23.802  55.091  1.00  0.00     0.012 A 
HETATM   17  C   UNL     1       7.498  22.505  55.457  1.00  0.00     0.037 A 
HETATM   18  C   UNL     1       7.964  21.601  54.501  1.00  0.00     0.068 A 
HETATM   19  C   UNL     1       8.063  22.008  53.172  1.00  0.00     0.037 A 
HETATM   20  C   UNL     1       7.693  23.307  52.803  1.00  0.00     0.012 A 
BRANCH  18  21
HETATM   21  O   UNL     1       8.286  20.366  54.992  1.00  0.00    -0.356 OA
HETATM   22  C   UNL     1       9.211  20.323  56.071  1.00  0.00     0.210 C 
ENDBRANCH  18  21
ENDBRANCH   1  15
TORSDOF 5
ENDMDL
MODEL 3
REMARK VINA RESULT:      -7.7      5.702     10.643
REMARK  5 active torsions:
REMARK  status: ('A' for Active; 'I' for Inactive)
REMARK    1  A    between atoms: C_2  and  C_3 
REMARK    2  A    between atoms: C_3  and  N_4 
REMARK    3  A    between atoms: C_3  and  C_14 
REMARK       I    between atoms: N_4  and  C_5 
REMARK    4  A    between atoms: C_5  and  C_6 
REMARK    5  A    between atoms: C_17  and  O_18 
ROOT
HETATM    1  C   UNL     1       8.240  32.165  61.172  1.00  0.00     0.117 C 
ENDROOT
BRANCH   1   2
HETATM    2  C   UNL     1       9.614  31.703  61.697  1.00  0.00     0.025 C 
HETATM    3  C   UNL     1       9.659  30.221  62.048  1.00  0.00     0.007 C 
ENDBRANCH   1   2
BRANCH   1   4
HETATM    4  N   UNL     1       7.615  31.153  60.328  1.00  0.00    -0.348 N 
HETATM    5  C   UNL     1       7.939  31.001  58.999  1.00  0.00     0.253 C 
HETATM    6  O   UNL     1       8.776  31.684  58.421  1.00  0.00    -0.268 OA
HETATM    7  H   UNL     1       6.812  30.678  60.710  1.00  0.00     0.163 HD
BRANCH   5   8
HETATM    8  C   UNL     1       7.196  29.961  58.248  1.00  0.00     0.050 A 
HETATM    9  C   UNL     1       5.974  30.300  57.674  1.00  0.00     0.133 A 
HETATM   10  N   UNL     1       5.202  29.436  56.968  1.00  0.00    -0.271 NA
HETATM   11  C   UNL     1       5.682  28.180  56.816  1.00  0.00     0.135 A 
HETATM   12  C   UNL     1       6.897  27.756  57.336  1.00  0.00     0.029 A 
HETATM   13 BR   UNL     1       7.496  25.989  57.063  1.00  0.00    -0.050 Br
HETATM   14  C   UNL     1       7.671  28.659  58.060  1.00  0.00     0.039 A 
ENDBRANCH   5   8
ENDBRANCH   1   4
BRANCH   1  15
HETATM   15  C   UNL     1       7.285  32.504  62.309  1.00  0.00    -0.035 A 
HETATM   16  C   UNL     1       5.908  32.310  62.140  1.00  0.00     0.012 A 
HETATM   17  C   UNL     1       5.017  32.585  63.182  1.00  0.00     0.037 A 
HETATM   18  C   UNL     1       5.483  33.046  64.414  1.00  0.00     0.068 A 
HETATM   19  C   UNL     1       6.851  33.240  64.595  1.00  0.00     0.037 A 
HETATM   20  C   UNL     1       7.745  32.969  63.552  1.00  0.00     0.012 A 
BRANCH  18  21
HETATM   21  O   UNL     1       4.508  33.266  65.348  1.00  0.00    -0.356 OA
HETATM   22  C   UNL     1       4.862  34.064  66.471  1.00  0.00     0.210 C 
ENDBRANCH  18  21
ENDBRANCH   1  15
TORSDOF 5
ENDMDL
MODEL 4
REMARK VINA RESULT:      -7.4      1.896      2.528
REMARK  5 active torsions:
REMARK  status: ('A' for Active; 'I' for Inactive)
REMARK    1  A    between atoms: C_2  and  C_3 
REMARK    2  A    between atoms: C_3  and  N_4 
REMARK    3  A    between atoms: C_3  and  C_14 
REMARK       I    between atoms: N_4  and  C_5 
REMARK    4  A    between atoms: C_5  and  C_6 
REMARK    5  A    between atoms: C_17  and  O_18 
ROOT
HETATM    1  C   UNL     1       6.840  26.521  54.656  1.00  0.00     0.117 C 
ENDROOT
BRANCH   1   2
HETATM    2  C   UNL     1       5.311  26.473  54.857  1.00  0.00     0.025 C 
HETATM    3  C   UNL     1       4.621  27.796  54.550  1.00  0.00     0.007 C 
ENDBRANCH   1   2
BRANCH   1   4
HETATM    4  N   UNL     1       7.480  27.443  55.588  1.00  0.00    -0.348 N 
HETATM    5  C   UNL     1       8.346  28.428  55.170  1.00  0.00     0.253 C 
HETATM    6  O   UNL     1       8.642  28.620  53.996  1.00  0.00    -0.268 OA
HETATM    7  H   UNL     1       7.396  27.227  56.569  1.00  0.00     0.163 HD
BRANCH   5   8
HETATM    8  C   UNL     1       8.958  29.269  56.227  1.00  0.00     0.050 A 
HETATM    9  C   UNL     1      10.249  29.750  56.030  1.00  0.00     0.133 A 
HETATM   10  N   UNL     1      10.915  30.524  56.924  1.00  0.00    -0.271 NA
HETATM   11  C   UNL     1      10.252  30.843  58.060  1.00  0.00     0.135 A 
HETATM   12  C   UNL     1       8.957  30.425  58.335  1.00  0.00     0.029 A 
HETATM   13 BR   UNL     1       8.103  30.930  59.938  1.00  0.00    -0.050 Br
HETATM   14  C   UNL     1       8.295  29.629  57.404  1.00  0.00     0.039 A 
ENDBRANCH   5   8
ENDBRANCH   1   4
BRANCH   1  15
HETATM   15  C   UNL     1       7.475  25.147  54.823  1.00  0.00    -0.035 A 
HETATM   16  C   UNL     1       7.650  24.323  53.703  1.00  0.00     0.012 A 
HETATM   17  C   UNL     1       8.259  23.071  53.830  1.00  0.00     0.037 A 
HETATM   18  C   UNL     1       8.717  22.623  55.069  1.00  0.00     0.068 A 
HETATM   19  C   UNL     1       8.551  23.436  56.189  1.00  0.00     0.037 A 
HETATM   20  C   UNL     1       7.938  24.688  56.067  1.00  0.00     0.012 A 
BRANCH  18  21
HETATM   21  O   UNL     1       9.301  21.386  55.051  1.00  0.00    -0.356 OA
HETATM   22  C   UNL     1       9.012  20.522  56.142  1.00  0.00     0.210 C 
ENDBRANCH  18  21
ENDBRANCH   1  15
TORSDOF 5
ENDMDL
MODEL 5
REMARK VINA RESULT:      -7.4      3.741      5.779
REMARK  5 active torsions:
REMARK  status: ('A' for Active; 'I' for Inactive)
REMARK    1  A    between atoms: C_2  and  C_3 
REMARK    2  A    between atoms: C_3  and  N_4 
REMARK    3  A    between atoms: C_3  and  C_14 
REMARK       I    between atoms: N_4  and  C_5 
REMARK    4  A    between atoms: C_5  and  C_6 
REMARK    5  A    between atoms: C_17  and  O_18 
ROOT
HETATM    1  C   UNL     1       6.520  25.917  53.832  1.00  0.00     0.117 C 
ENDROOT
BRANCH   1   2
HETATM    2  C   UNL     1       7.526  26.934  54.408  1.00  0.00     0.025 C 
HETATM    3  C   UNL     1       7.036  27.612  55.682  1.00  0.00     0.007 C 
ENDBRANCH   1   2
BRANCH   1   4
HETATM    4  N   UNL     1       6.221  26.186  52.429  1.00  0.00    -0.348 N 
HETATM    5  C   UNL     1       5.137  26.940  52.040  1.00  0.00     0.253 C 
HETATM    6  O   UNL     1       4.347  27.451  52.824  1.00  0.00    -0.268 OA
HETATM    7  H   UNL     1       6.742  25.659  51.746  1.00  0.00     0.163 HD
BRANCH   5   8
HETATM    8  C   UNL     1       4.928  27.099  50.581  1.00  0.00     0.050 A 
HETATM    9  C   UNL     1       5.503  28.194  49.942  1.00  0.00     0.133 A 
HETATM   10  N   UNL     1       5.380  28.449  48.615  1.00  0.00    -0.271 NA
HETATM   11  C   UNL     1       4.661  27.559  47.891  1.00  0.00     0.135 A 
HETATM   12  C   UNL     1       4.068  26.430  48.438  1.00  0.00     0.029 A 
HETATM   13 BR   UNL     1       3.096  25.234  47.351  1.00  0.00    -0.050 Br
HETATM   14  C   UNL     1       4.204  26.191  49.803  1.00  0.00     0.039 A 
ENDBRANCH   5   8
ENDBRANCH   1   4
BRANCH   1  15
HETATM   15  C   UNL     1       7.030  24.488  53.952  1.00  0.00    -0.035 A 
HETATM   16  C   UNL     1       7.043  23.858  55.204  1.00  0.00     0.012 A 
HETATM   17  C   UNL     1       7.478  22.535  55.331  1.00  0.00     0.037 A 
HETATM   18  C   UNL     1       7.894  21.812  54.213  1.00  0.00     0.068 A 
HETATM   19  C   UNL     1       7.882  22.426  52.962  1.00  0.00     0.037 A 
HETATM   20  C   UNL     1       7.451  23.752  52.832  1.00  0.00     0.012 A 
BRANCH  18  21
HETATM   21  O   UNL     1       8.285  20.527  54.475  1.00  0.00    -0.356 OA
HETATM   22  C   UNL     1       8.746  20.252  55.792  1.00  0.00     0.210 C 
ENDBRANCH  18  21
ENDBRANCH   1  15
TORSDOF 5
ENDMDL
MODEL 6
REMARK VINA RESULT:      -7.3      2.861      4.464
REMARK  5 active torsions:
REMARK  status: ('A' for Active; 'I' for Inactive)
REMARK    1  A    between atoms: C_2  and  C_3 
REMARK    2  A    between atoms: C_3  and  N_4 
REMARK    3  A    between atoms: C_3  and  C_14 
REMARK       I    between atoms: N_4  and  C_5 
REMARK    4  A    between atoms: C_5  and  C_6 
REMARK    5  A    between atoms: C_17  and  O_18 
ROOT
HETATM    1  C   UNL     1       7.022  25.554  56.279  1.00  0.00     0.117 C 
ENDROOT
BRANCH   1   2
HETATM    2  C   UNL     1       7.639  24.203  56.695  1.00  0.00     0.025 C 
HETATM    3  C   UNL     1       9.025  24.336  57.312  1.00  0.00     0.007 C 
ENDBRANCH   1   2
BRANCH   1   4
HETATM    4  N   UNL     1       7.903  26.672  56.597  1.00  0.00    -0.348 N 
HETATM    5  C   UNL     1       7.445  27.823  57.197  1.00  0.00     0.253 C 
HETATM    6  O   UNL     1       6.277  28.002  57.522  1.00  0.00    -0.268 OA
HETATM    7  H   UNL     1       8.833  26.641  56.207  1.00  0.00     0.163 HD
BRANCH   5   8
HETATM    8  C   UNL     1       8.441  28.897  57.424  1.00  0.00     0.050 A 
HETATM    9  C   UNL     1       9.439  29.089  56.473  1.00  0.00     0.133 A 
HETATM   10  N   UNL     1      10.408  30.035  56.571  1.00  0.00    -0.271 NA
HETATM   11  C   UNL     1      10.366  30.835  57.663  1.00  0.00     0.135 A 
HETATM   12  C   UNL     1       9.398  30.729  58.652  1.00  0.00     0.029 A 
HETATM   13 BR   UNL     1       9.406  31.896  60.133  1.00  0.00    -0.050 Br
HETATM   14  C   UNL     1       8.417  29.749  58.533  1.00  0.00     0.039 A 
ENDBRANCH   5   8
ENDBRANCH   1   4
BRANCH   1  15
HETATM   15  C   UNL     1       6.703  25.596  54.791  1.00  0.00    -0.035 A 
HETATM   16  C   UNL     1       5.456  26.068  54.361  1.00  0.00     0.012 A 
HETATM   17  C   UNL     1       5.155  26.144  52.998  1.00  0.00     0.037 A 
HETATM   18  C   UNL     1       6.094  25.765  52.038  1.00  0.00     0.068 A 
HETATM   19  C   UNL     1       7.339  25.297  52.454  1.00  0.00     0.037 A 
HETATM   20  C   UNL     1       7.642  25.216  53.819  1.00  0.00     0.012 A 
BRANCH  18  21
HETATM   21  O   UNL     1       5.675  25.898  50.743  1.00  0.00    -0.356 OA
HETATM   22  C   UNL     1       5.052  27.127  50.392  1.00  0.00     0.210 C 
ENDBRANCH  18  21
ENDBRANCH   1  15
TORSDOF 5
ENDMDL
MODEL 7
REMARK VINA RESULT:      -7.3      3.353      7.132
REMARK  5 active torsions:
REMARK  status: ('A' for Active; 'I' for Inactive)
REMARK    1  A    between atoms: C_2  and  C_3 
REMARK    2  A    between atoms: C_3  and  N_4 
REMARK    3  A    between atoms: C_3  and  C_14 
REMARK       I    between atoms: N_4  and  C_5 
REMARK    4  A    between atoms: C_5  and  C_6 
REMARK    5  A    between atoms: C_17  and  O_18 
ROOT
HETATM    1  C   UNL     1       6.880  27.429  54.980  1.00  0.00     0.117 C 
ENDROOT
BRANCH   1   2
HETATM    2  C   UNL     1       6.921  28.044  53.566  1.00  0.00     0.025 C 
HETATM    3  C   UNL     1       6.057  27.297  52.557  1.00  0.00     0.007 C 
ENDBRANCH   1   2
BRANCH   1   4
HETATM    4  N   UNL     1       7.390  26.062  54.991  1.00  0.00    -0.348 N 
HETATM    5  C   UNL     1       6.700  25.025  55.577  1.00  0.00     0.253 C 
HETATM    6  O   UNL     1       5.611  25.155  56.123  1.00  0.00    -0.268 OA
HETATM    7  H   UNL     1       8.347  25.933  54.701  1.00  0.00     0.163 HD
BRANCH   5   8
HETATM    8  C   UNL     1       7.354  23.694  55.553  1.00  0.00     0.050 A 
HETATM    9  C   UNL     1       7.885  23.193  56.738  1.00  0.00     0.133 A 
HETATM   10  N   UNL     1       8.509  21.992  56.841  1.00  0.00    -0.271 NA
HETATM   11  C   UNL     1       8.592  21.253  55.710  1.00  0.00     0.135 A 
HETATM   12  C   UNL     1       8.076  21.663  54.489  1.00  0.00     0.029 A 
HETATM   13 BR   UNL     1       8.222  20.561  52.965  1.00  0.00    -0.050 Br
HETATM   14  C   UNL     1       7.443  22.900  54.405  1.00  0.00     0.039 A 
ENDBRANCH   5   8
ENDBRANCH   1   4
BRANCH   1  15
HETATM   15  C   UNL     1       7.682  28.252  55.978  1.00  0.00    -0.035 A 
HETATM   16  C   UNL     1       8.827  28.937  55.551  1.00  0.00     0.012 A 
HETATM   17  C   UNL     1       9.560  29.725  56.445  1.00  0.00     0.037 A 
HETATM   18  C   UNL     1       9.159  29.855  57.775  1.00  0.00     0.068 A 
HETATM   19  C   UNL     1       8.019  29.181  58.209  1.00  0.00     0.037 A 
HETATM   20  C   UNL     1       7.286  28.388  57.319  1.00  0.00     0.012 A 
BRANCH  18  21
HETATM   21  O   UNL     1       9.958  30.661  58.538  1.00  0.00    -0.356 OA
HETATM   22  C   UNL     1       9.309  31.502  59.482  1.00  0.00     0.210 C 
ENDBRANCH  18  21
ENDBRANCH   1  15
TORSDOF 5
ENDMDL
MODEL 8
REMARK VINA RESULT:      -7.2      3.878      6.833
REMARK  5 active torsions:
REMARK  status: ('A' for Active; 'I' for Inactive)
REMARK    1  A    between atoms: C_2  and  C_3 
REMARK    2  A    between atoms: C_3  and  N_4 
REMARK    3  A    between atoms: C_3  and  C_14 
REMARK       I    between atoms: N_4  and  C_5 
REMARK    4  A    between atoms: C_5  and  C_6 
REMARK    5  A    between atoms: C_17  and  O_18 
ROOT
HETATM    1  C   UNL     1       5.820  28.037  52.031  1.00  0.00     0.117 C 
ENDROOT
BRANCH   1   2
HETATM    2  C   UNL     1       4.858  28.966  52.799  1.00  0.00     0.025 C 
HETATM    3  C   UNL     1       3.596  28.262  53.281  1.00  0.00     0.007 C 
ENDBRANCH   1   2
BRANCH   1   4
HETATM    4  N   UNL     1       6.042  26.781  52.739  1.00  0.00    -0.348 N 
HETATM    5  C   UNL     1       7.143  26.572  53.538  1.00  0.00     0.253 C 
HETATM    6  O   UNL     1       8.014  27.412  53.729  1.00  0.00    -0.268 OA
HETATM    7  H   UNL     1       5.445  26.008  52.489  1.00  0.00     0.163 HD
BRANCH   5   8
HETATM    8  C   UNL     1       7.265  25.234  54.165  1.00  0.00     0.050 A 
HETATM    9  C   UNL     1       7.039  25.118  55.534  1.00  0.00     0.133 A 
HETATM   10  N   UNL     1       7.124  23.951  56.221  1.00  0.00    -0.271 NA
HETATM   11  C   UNL     1       7.435  22.847  55.502  1.00  0.00     0.135 A 
HETATM   12  C   UNL     1       7.659  22.863  54.133  1.00  0.00     0.029 A 
HETATM   13 BR   UNL     1       8.072  21.272  53.208  1.00  0.00    -0.050 Br
HETATM   14  C   UNL     1       7.570  24.073  53.449  1.00  0.00     0.039 A 
ENDBRANCH   5   8
ENDBRANCH   1   4
BRANCH   1  15
HETATM   15  C   UNL     1       5.304  27.719  50.634  1.00  0.00    -0.035 A 
HETATM   16  C   UNL     1       4.847  26.428  50.339  1.00  0.00     0.012 A 
HETATM   17  C   UNL     1       4.340  26.124  49.072  1.00  0.00     0.037 A 
HETATM   18  C   UNL     1       4.266  27.103  48.081  1.00  0.00     0.068 A 
HETATM   19  C   UNL     1       4.714  28.392  48.363  1.00  0.00     0.037 A 
HETATM   20  C   UNL     1       5.227  28.698  49.630  1.00  0.00     0.012 A 
BRANCH  18  21
HETATM   21  O   UNL     1       3.741  26.675  46.892  1.00  0.00    -0.356 OA
HETATM   22  C   UNL     1       2.689  25.721  46.960  1.00  0.00     0.210 C 
ENDBRANCH  18  21
ENDBRANCH   1  15
TORSDOF 5
ENDMDL
MODEL 9
REMARK VINA RESULT:      -7.1      7.416     11.481
REMARK  5 active torsions:
REMARK  status: ('A' for Active; 'I' for Inactive)
REMARK    1  A    between atoms: C_2  and  C_3 
REMARK    2  A    between atoms: C_3  and  N_4 
REMARK    3  A    between atoms: C_3  and  C_14 
REMARK       I    between atoms: N_4  and  C_5 
REMARK    4  A    between atoms: C_5  and  C_6 
REMARK    5  A    between atoms: C_17  and  O_18 
ROOT
HETATM    1  C   UNL     1       7.599  32.003  61.999  1.00  0.00     0.117 C 
ENDROOT
BRANCH   1   2
HETATM    2  C   UNL     1       8.417  30.752  62.380  1.00  0.00     0.025 C 
HETATM    3  C   UNL     1       9.713  30.614  61.590  1.00  0.00     0.007 C 
ENDBRANCH   1   2
BRANCH   1   4
HETATM    4  N   UNL     1       6.572  31.698  61.009  1.00  0.00    -0.348 N 
HETATM    5  C   UNL     1       6.755  31.926  59.664  1.00  0.00     0.253 C 
HETATM    6  O   UNL     1       7.784  32.389  59.187  1.00  0.00    -0.268 OA
HETATM    7  H   UNL     1       5.656  31.469  61.364  1.00  0.00     0.163 HD
BRANCH   5   8
HETATM    8  C   UNL     1       5.612  31.609  58.774  1.00  0.00     0.050 A 
HETATM    9  C   UNL     1       4.482  32.419  58.830  1.00  0.00     0.133 A 
HETATM   10  N   UNL     1       3.374  32.228  58.069  1.00  0.00    -0.271 NA
HETATM   11  C   UNL     1       3.406  31.188  57.203  1.00  0.00     0.135 A 
HETATM   12  C   UNL     1       4.495  30.340  57.065  1.00  0.00     0.029 A 
HETATM   13 BR   UNL     1       4.459  28.923  55.821  1.00  0.00    -0.050 Br
HETATM   14  C   UNL     1       5.620  30.552  57.859  1.00  0.00     0.039 A 
ENDBRANCH   5   8
ENDBRANCH   1   4
BRANCH   1  15
HETATM   15  C   UNL     1       6.930  32.632  63.213  1.00  0.00    -0.035 A 
HETATM   16  C   UNL     1       7.717  33.156  64.247  1.00  0.00     0.012 A 
HETATM   17  C   UNL     1       7.123  33.765  65.356  1.00  0.00     0.037 A 
HETATM   18  C   UNL     1       5.735  33.875  65.450  1.00  0.00     0.068 A 
HETATM   19  C   UNL     1       4.942  33.361  64.426  1.00  0.00     0.037 A 
HETATM   20  C   UNL     1       5.533  32.746  63.317  1.00  0.00     0.012 A 
BRANCH  18  21
HETATM   21  O   UNL     1       5.286  34.501  66.580  1.00  0.00    -0.356 OA
HETATM   22  C   UNL     1       3.884  34.716  66.683  1.00  0.00     0.210 C 
ENDBRANCH  18  21
ENDBRANCH   1  15
TORSDOF 5
ENDMDL
MODEL 10
REMARK VINA RESULT:      -6.9      3.511      6.835
REMARK  5 active torsions:
REMARK  status: ('A' for Active; 'I' for Inactive)
REMARK    1  A    between atoms: C_2  and  C_3 
REMARK    2  A    between atoms: C_3  and  N_4 
REMARK    3  A    between atoms: C_3  and  C_14 
REMARK       I    between atoms: N_4  and  C_5 
REMARK    4  A    between atoms: C_5  and  C_6 
REMARK    5  A    between atoms: C_17  and  O_18 
ROOT
HETATM    1  C   UNL     1       6.363  26.711  54.963  1.00  0.00     0.117 C 
ENDROOT
BRANCH   1   2
HETATM    2  C   UNL     1       5.231  27.022  55.964  1.00  0.00     0.025 C 
HETATM    3  C   UNL     1       5.602  28.094  56.981  1.00  0.00     0.007 C 
ENDBRANCH   1   2
BRANCH   1   4
HETATM    4  N   UNL     1       6.742  25.303  54.995  1.00  0.00    -0.348 N 
HETATM    5  C   UNL     1       7.682  24.813  55.873  1.00  0.00     0.253 C 
HETATM    6  O   UNL     1       8.266  25.505  56.699  1.00  0.00    -0.268 OA
HETATM    7  H   UNL     1       6.413  24.728  54.234  1.00  0.00     0.163 HD
BRANCH   5   8
HETATM    8  C   UNL     1       8.002  23.369  55.768  1.00  0.00     0.050 A 
HETATM    9  C   UNL     1       8.232  22.652  56.939  1.00  0.00     0.133 A 
HETATM   10  N   UNL     1       8.536  21.330  56.971  1.00  0.00    -0.271 NA
HETATM   11  C   UNL     1       8.598  20.694  55.778  1.00  0.00     0.135 A 
HETATM   12  C   UNL     1       8.365  21.321  54.563  1.00  0.00     0.029 A 
HETATM   13 BR   UNL     1       8.457  20.352  52.947  1.00  0.00    -0.050 Br
HETATM   14  C   UNL     1       8.058  22.679  54.553  1.00  0.00     0.039 A 
ENDBRANCH   5   8
ENDBRANCH   1   4
BRANCH   1  15
HETATM   15  C   UNL     1       5.973  27.076  53.538  1.00  0.00    -0.035 A 
HETATM   16  C   UNL     1       5.549  26.073  52.656  1.00  0.00     0.012 A 
HETATM   17  C   UNL     1       5.157  26.391  51.352  1.00  0.00     0.037 A 
HETATM   18  C   UNL     1       5.167  27.713  50.907  1.00  0.00     0.068 A 
HETATM   19  C   UNL     1       5.584  28.719  51.776  1.00  0.00     0.037 A 
HETATM   20  C   UNL     1       5.982  28.404  53.081  1.00  0.00     0.012 A 
BRANCH  18  21
HETATM   21  O   UNL     1       4.751  27.886  49.615  1.00  0.00    -0.356 OA
HETATM   22  C   UNL     1       4.599  26.712  48.827  1.00  0.00     0.210 C 
ENDBRANCH  18  21
ENDBRANCH   1  15
TORSDOF 5
ENDMDL
