MODEL 1
REMARK VINA RESULT:     -10.1      0.000      0.000
REMARK  5 active torsions:
REMARK  status: ('A' for Active; 'I' for Inactive)
REMARK    1  A    between atoms: C_6  and  C_7 
REMARK    2  A    between atoms: C_7  and  C_8 
REMARK       I    between atoms: C_8  and  N_9 
REMARK    3  A    between atoms: N_9  and  N_10 
REMARK       I    between atoms: N_10  and  C_11 
REMARK    4  A    between atoms: C_11  and  C_12 
REMARK    5  A    between atoms: C_12  and  C_13 
ROOT
HETATM    1  C   UNL     1       7.860  28.097  57.147  1.00  0.00     0.243 C 
HETATM    2  N   UNL     1       8.257  27.300  56.097  1.00  0.00    -0.267 N 
HETATM    3  O   UNL     1       6.783  27.945  57.725  1.00  0.00    -0.271 OA
HETATM    4  H   UNL     1       9.199  27.344  55.697  1.00  0.00     0.190 HD
ENDROOT
BRANCH   1   5
HETATM    5  C   UNL     1       8.871  29.121  57.594  1.00  0.00     0.183 C 
BRANCH   5   6
HETATM    6  C   UNL     1       8.357  30.087  58.626  1.00  0.00     0.116 A 
HETATM    7  N   UNL     1       8.797  30.029  59.845  1.00  0.00    -0.227 NA
HETATM    8  C   UNL     1       8.250  30.941  60.691  1.00  0.00     0.116 A 
HETATM    9  C   UNL     1       7.280  31.873  60.390  1.00  0.00     0.075 A 
HETATM   10  S   UNL     1       8.734  31.041  62.317  1.00  0.00    -0.074 SA
HETATM   11  C   UNL     1       6.909  32.683  61.521  1.00  0.00    -0.031 A 
HETATM   12  C   UNL     1       6.789  31.897  59.026  1.00  0.00     0.260 A 
HETATM   13  C   UNL     1       5.869  33.758  61.486  1.00  0.00     0.050 C 
HETATM   14  C   UNL     1       7.641  32.317  62.644  1.00  0.00    -0.012 A 
HETATM   15  C   UNL     1       7.576  32.891  64.022  1.00  0.00     0.057 C 
HETATM   16  N   UNL     1       7.399  30.980  58.197  1.00  0.00    -0.310 N 
HETATM   17  O   UNL     1       5.907  32.645  58.615  1.00  0.00    -0.267 OA
HETATM   18  H   UNL     1       7.069  30.988  57.242  1.00  0.00     0.170 HD
ENDBRANCH   5   6
ENDBRANCH   1   5
BRANCH   2  19
HETATM   19  N   UNL     1       7.504  26.150  55.818  1.00  0.00    -0.267 N 
HETATM   20  C   UNL     1       7.961  24.956  56.351  1.00  0.00     0.240 C 
HETATM   21  O   UNL     1       9.075  24.841  56.860  1.00  0.00    -0.272 OA
HETATM   22  H   UNL     1       6.506  26.313  55.680  1.00  0.00     0.190 HD
BRANCH  20  23
HETATM   23  C   UNL     1       6.976  23.809  56.213  1.00  0.00     0.148 C 
BRANCH  23  24
HETATM   24  C   UNL     1       7.498  22.690  55.349  1.00  0.00     0.011 A 
HETATM   25  C   UNL     1       7.404  22.705  53.950  1.00  0.00     0.043 A 
HETATM   26 CL   UNL     1       6.709  24.043  53.104  1.00  0.00    -0.084 Cl
HETATM   27  C   UNL     1       7.882  21.632  53.187  1.00  0.00     0.024 A 
HETATM   28  C   UNL     1       8.458  20.526  53.812  1.00  0.00     0.005 A 
HETATM   29  C   UNL     1       8.555  20.495  55.200  1.00  0.00     0.043 A 
HETATM   30  C   UNL     1       8.075  21.566  55.950  1.00  0.00     0.124 A 
HETATM   31  F   UNL     1       8.189  21.509  57.285  1.00  0.00    -0.205 F 
ENDBRANCH  23  24
ENDBRANCH  20  23
ENDBRANCH   2  19
TORSDOF 5
ENDMDL
MODEL 2
REMARK VINA RESULT:     -10.0      1.397      1.662
REMARK  5 active torsions:
REMARK  status: ('A' for Active; 'I' for Inactive)
REMARK    1  A    between atoms: C_6  and  C_7 
REMARK    2  A    between atoms: C_7  and  C_8 
REMARK       I    between atoms: C_8  and  N_9 
REMARK    3  A    between atoms: N_9  and  N_10 
REMARK       I    between atoms: N_10  and  C_11 
REMARK    4  A    between atoms: C_11  and  C_12 
REMARK    5  A    between atoms: C_12  and  C_13 
ROOT
HETATM    1  C   UNL     1       7.875  28.249  57.265  1.00  0.00     0.243 C 
HETATM    2  N   UNL     1       8.340  27.395  56.291  1.00  0.00    -0.267 N 
HETATM    3  O   UNL     1       6.739  28.166  57.734  1.00  0.00    -0.271 OA
HETATM    4  H   UNL     1       9.318  27.383  55.988  1.00  0.00     0.190 HD
ENDROOT
BRANCH   1   5
HETATM    5  C   UNL     1       8.882  29.246  57.779  1.00  0.00     0.183 C 
BRANCH   5   6
HETATM    6  C   UNL     1       8.334  30.210  58.794  1.00  0.00     0.116 A 
HETATM    7  N   UNL     1       8.725  30.143  60.029  1.00  0.00    -0.227 NA
HETATM    8  C   UNL     1       8.151  31.055  60.857  1.00  0.00     0.116 A 
HETATM    9  C   UNL     1       7.200  31.996  60.523  1.00  0.00     0.075 A 
HETATM   10  S   UNL     1       8.571  31.143  62.502  1.00  0.00    -0.074 SA
HETATM   11  C   UNL     1       6.790  32.803  61.643  1.00  0.00    -0.031 A 
HETATM   12  C   UNL     1       6.764  32.029  59.141  1.00  0.00     0.260 A 
HETATM   13  C   UNL     1       5.760  33.885  61.572  1.00  0.00     0.050 C 
HETATM   14  C   UNL     1       7.475  32.426  62.792  1.00  0.00    -0.012 A 
HETATM   15  C   UNL     1       7.358  32.993  64.169  1.00  0.00     0.057 C 
HETATM   16  N   UNL     1       7.400  31.112  58.332  1.00  0.00    -0.310 N 
HETATM   17  O   UNL     1       5.905  32.786  58.699  1.00  0.00    -0.267 OA
HETATM   18  H   UNL     1       7.108  31.127  57.365  1.00  0.00     0.170 HD
ENDBRANCH   5   6
ENDBRANCH   1   5
BRANCH   2  19
HETATM   19  N   UNL     1       7.566  26.269  55.976  1.00  0.00    -0.267 N 
HETATM   20  C   UNL     1       7.981  25.055  56.501  1.00  0.00     0.240 C 
HETATM   21  O   UNL     1       9.078  24.906  57.036  1.00  0.00    -0.272 OA
HETATM   22  H   UNL     1       6.576  26.458  55.815  1.00  0.00     0.190 HD
BRANCH  20  23
HETATM   23  C   UNL     1       6.972  23.936  56.321  1.00  0.00     0.148 C 
BRANCH  23  24
HETATM   24  C   UNL     1       7.417  22.901  55.319  1.00  0.00     0.011 A 
HETATM   25  C   UNL     1       8.026  21.695  55.694  1.00  0.00     0.043 A 
HETATM   26 CL   UNL     1       8.277  21.287  57.355  1.00  0.00    -0.084 Cl
HETATM   27  C   UNL     1       8.445  20.773  54.728  1.00  0.00     0.024 A 
HETATM   28  C   UNL     1       8.266  21.043  53.371  1.00  0.00     0.005 A 
HETATM   29  C   UNL     1       7.666  22.238  52.983  1.00  0.00     0.043 A 
HETATM   30  C   UNL     1       7.254  23.150  53.952  1.00  0.00     0.124 A 
HETATM   31  F   UNL     1       6.674  24.289  53.546  1.00  0.00    -0.205 F 
ENDBRANCH  23  24
ENDBRANCH  20  23
ENDBRANCH   2  19
TORSDOF 5
ENDMDL
MODEL 3
REMARK VINA RESULT:      -9.7      2.007      2.534
REMARK  5 active torsions:
REMARK  status: ('A' for Active; 'I' for Inactive)
REMARK    1  A    between atoms: C_6  and  C_7 
REMARK    2  A    between atoms: C_7  and  C_8 
REMARK       I    between atoms: C_8  and  N_9 
REMARK    3  A    between atoms: N_9  and  N_10 
REMARK       I    between atoms: N_10  and  C_11 
REMARK    4  A    between atoms: C_11  and  C_12 
REMARK    5  A    between atoms: C_12  and  C_13 
ROOT
HETATM    1  C   UNL     1       7.460  28.341  57.746  1.00  0.00     0.243 C 
HETATM    2  N   UNL     1       6.220  28.349  57.148  1.00  0.00    -0.267 N 
HETATM    3  O   UNL     1       7.992  27.309  58.157  1.00  0.00    -0.271 OA
HETATM    4  H   UNL     1       5.830  29.182  56.697  1.00  0.00     0.190 HD
ENDROOT
BRANCH   1   5
HETATM    5  C   UNL     1       8.160  29.675  57.791  1.00  0.00     0.183 C 
BRANCH   5   6
HETATM    6  C   UNL     1       7.901  30.466  59.044  1.00  0.00     0.116 A 
HETATM    7  N   UNL     1       6.958  31.357  59.065  1.00  0.00    -0.227 NA
HETATM    8  C   UNL     1       6.827  32.018  60.245  1.00  0.00     0.116 A 
HETATM    9  C   UNL     1       7.599  31.856  61.376  1.00  0.00     0.075 A 
HETATM   10  S   UNL     1       5.619  33.192  60.472  1.00  0.00    -0.074 SA
HETATM   11  C   UNL     1       7.204  32.724  62.455  1.00  0.00    -0.031 A 
HETATM   12  C   UNL     1       8.662  30.872  61.313  1.00  0.00     0.260 A 
HETATM   13  C   UNL     1       7.878  32.773  63.789  1.00  0.00     0.050 C 
HETATM   14  C   UNL     1       6.123  33.511  62.077  1.00  0.00    -0.012 A 
HETATM   15  C   UNL     1       5.402  34.543  62.880  1.00  0.00     0.057 C 
HETATM   16  N   UNL     1       8.732  30.201  60.111  1.00  0.00    -0.310 N 
HETATM   17  O   UNL     1       9.450  30.636  62.224  1.00  0.00    -0.267 OA
HETATM   18  H   UNL     1       9.466  29.510  60.054  1.00  0.00     0.170 HD
ENDBRANCH   5   6
ENDBRANCH   1   5
BRANCH   2  19
HETATM   19  N   UNL     1       5.642  27.117  56.810  1.00  0.00    -0.267 N 
HETATM   20  C   UNL     1       5.869  26.647  55.527  1.00  0.00     0.240 C 
HETATM   21  O   UNL     1       6.362  27.347  54.643  1.00  0.00    -0.272 OA
HETATM   22  H   UNL     1       5.522  26.470  57.590  1.00  0.00     0.190 HD
BRANCH  20  23
HETATM   23  C   UNL     1       5.421  25.213  55.314  1.00  0.00     0.148 C 
BRANCH  23  24
HETATM   24  C   UNL     1       6.505  24.342  54.730  1.00  0.00     0.011 A 
HETATM   25  C   UNL     1       6.609  24.082  53.356  1.00  0.00     0.043 A 
HETATM   26 CL   UNL     1       5.513  24.781  52.216  1.00  0.00    -0.084 Cl
HETATM   27  C   UNL     1       7.619  23.248  52.860  1.00  0.00     0.024 A 
HETATM   28  C   UNL     1       8.536  22.658  53.729  1.00  0.00     0.005 A 
HETATM   29  C   UNL     1       8.443  22.904  55.096  1.00  0.00     0.043 A 
HETATM   30  C   UNL     1       7.435  23.734  55.580  1.00  0.00     0.124 A 
HETATM   31  F   UNL     1       7.375  23.957  56.902  1.00  0.00    -0.205 F 
ENDBRANCH  23  24
ENDBRANCH  20  23
ENDBRANCH   2  19
TORSDOF 5
ENDMDL
MODEL 4
REMARK VINA RESULT:      -9.3      3.982      9.943
REMARK  5 active torsions:
REMARK  status: ('A' for Active; 'I' for Inactive)
REMARK    1  A    between atoms: C_6  and  C_7 
REMARK    2  A    between atoms: C_7  and  C_8 
REMARK       I    between atoms: C_8  and  N_9 
REMARK    3  A    between atoms: N_9  and  N_10 
REMARK       I    between atoms: N_10  and  C_11 
REMARK    4  A    between atoms: C_11  and  C_12 
REMARK    5  A    between atoms: C_12  and  C_13 
ROOT
HETATM    1  C   UNL     1       5.477  28.161  56.825  1.00  0.00     0.243 C 
HETATM    2  N   UNL     1       5.139  29.037  57.831  1.00  0.00    -0.267 N 
HETATM    3  O   UNL     1       6.304  28.437  55.955  1.00  0.00    -0.271 OA
HETATM    4  H   UNL     1       4.547  28.767  58.622  1.00  0.00     0.190 HD
ENDROOT
BRANCH   1   5
HETATM    5  C   UNL     1       4.824  26.805  56.908  1.00  0.00     0.183 C 
BRANCH   5   6
HETATM    6  C   UNL     1       5.587  25.709  56.217  1.00  0.00     0.116 A 
HETATM    7  N   UNL     1       6.439  24.993  56.883  1.00  0.00    -0.227 NA
HETATM    8  C   UNL     1       7.079  24.043  56.151  1.00  0.00     0.116 A 
HETATM    9  C   UNL     1       6.932  23.797  54.802  1.00  0.00     0.075 A 
HETATM   10  S   UNL     1       8.201  22.984  56.864  1.00  0.00    -0.074 SA
HETATM   11  C   UNL     1       7.768  22.724  54.332  1.00  0.00    -0.031 A 
HETATM   12  C   UNL     1       5.990  24.631  54.079  1.00  0.00     0.260 A 
HETATM   13  C   UNL     1       7.826  22.258  52.912  1.00  0.00     0.050 C 
HETATM   14  C   UNL     1       8.518  22.197  55.377  1.00  0.00    -0.012 A 
HETATM   15  C   UNL     1       9.510  21.080  55.335  1.00  0.00     0.057 C 
HETATM   16  N   UNL     1       5.340  25.554  54.870  1.00  0.00    -0.310 N 
HETATM   17  O   UNL     1       5.774  24.554  52.874  1.00  0.00    -0.267 OA
HETATM   18  H   UNL     1       4.678  26.139  54.380  1.00  0.00     0.170 HD
ENDBRANCH   5   6
ENDBRANCH   1   5
BRANCH   2  19
HETATM   19  N   UNL     1       5.914  30.195  57.987  1.00  0.00    -0.267 N 
HETATM   20  C   UNL     1       5.278  31.311  58.509  1.00  0.00     0.240 C 
HETATM   21  O   UNL     1       4.057  31.378  58.635  1.00  0.00    -0.272 OA
HETATM   22  H   UNL     1       6.905  30.029  58.162  1.00  0.00     0.190 HD
BRANCH  20  23
HETATM   23  C   UNL     1       6.227  32.439  58.872  1.00  0.00     0.148 C 
BRANCH  23  24
HETATM   24  C   UNL     1       6.944  32.204  60.177  1.00  0.00     0.011 A 
HETATM   25  C   UNL     1       8.295  31.836  60.243  1.00  0.00     0.043 A 
HETATM   26 CL   UNL     1       9.256  31.659  58.816  1.00  0.00    -0.084 Cl
HETATM   27  C   UNL     1       8.916  31.605  61.477  1.00  0.00     0.024 A 
HETATM   28  C   UNL     1       8.194  31.736  62.663  1.00  0.00     0.005 A 
HETATM   29  C   UNL     1       6.852  32.098  62.613  1.00  0.00     0.043 A 
HETATM   30  C   UNL     1       6.242  32.324  61.381  1.00  0.00     0.124 A 
HETATM   31  F   UNL     1       4.949  32.677  61.367  1.00  0.00    -0.205 F 
ENDBRANCH  23  24
ENDBRANCH  20  23
ENDBRANCH   2  19
TORSDOF 5
ENDMDL
MODEL 5
REMARK VINA RESULT:      -9.2      6.271      8.805
REMARK  5 active torsions:
REMARK  status: ('A' for Active; 'I' for Inactive)
REMARK    1  A    between atoms: C_6  and  C_7 
REMARK    2  A    between atoms: C_7  and  C_8 
REMARK       I    between atoms: C_8  and  N_9 
REMARK    3  A    between atoms: N_9  and  N_10 
REMARK       I    between atoms: N_10  and  C_11 
REMARK    4  A    between atoms: C_11  and  C_12 
REMARK    5  A    between atoms: C_12  and  C_13 
ROOT
HETATM    1  C   UNL     1       5.194  27.717  54.421  1.00  0.00     0.243 C 
HETATM    2  N   UNL     1       5.089  26.411  54.844  1.00  0.00    -0.267 N 
HETATM    3  O   UNL     1       6.270  28.314  54.373  1.00  0.00    -0.271 OA
HETATM    4  H   UNL     1       4.219  25.875  54.769  1.00  0.00     0.190 HD
ENDROOT
BRANCH   1   5
HETATM    5  C   UNL     1       3.909  28.342  53.941  1.00  0.00     0.183 C 
BRANCH   5   6
HETATM    6  C   UNL     1       3.725  28.306  52.449  1.00  0.00     0.116 A 
HETATM    7  N   UNL     1       2.865  29.095  51.883  1.00  0.00    -0.227 NA
HETATM    8  C   UNL     1       2.774  28.964  50.534  1.00  0.00     0.116 A 
HETATM    9  C   UNL     1       3.469  28.076  49.739  1.00  0.00     0.075 A 
HETATM   10  S   UNL     1       1.730  29.942  49.617  1.00  0.00    -0.074 SA
HETATM   11  C   UNL     1       3.130  28.187  48.344  1.00  0.00    -0.031 A 
HETATM   12  C   UNL     1       4.404  27.189  50.403  1.00  0.00     0.260 A 
HETATM   13  C   UNL     1       3.715  27.335  47.263  1.00  0.00     0.050 C 
HETATM   14  C   UNL     1       2.179  29.181  48.151  1.00  0.00    -0.012 A 
HETATM   15  C   UNL     1       1.548  29.625  46.871  1.00  0.00     0.057 C 
HETATM   16  N   UNL     1       4.488  27.385  51.765  1.00  0.00    -0.310 N 
HETATM   17  O   UNL     1       5.069  26.327  49.838  1.00  0.00    -0.267 OA
HETATM   18  H   UNL     1       5.138  26.776  52.241  1.00  0.00     0.170 HD
ENDBRANCH   5   6
ENDBRANCH   1   5
BRANCH   2  19
HETATM   19  N   UNL     1       6.270  25.678  55.027  1.00  0.00    -0.267 N 
HETATM   20  C   UNL     1       6.667  24.857  53.984  1.00  0.00     0.240 C 
HETATM   21  O   UNL     1       5.936  24.598  53.030  1.00  0.00    -0.272 OA
HETATM   22  H   UNL     1       6.959  26.119  55.637  1.00  0.00     0.190 HD
BRANCH  20  23
HETATM   23  C   UNL     1       8.065  24.289  54.153  1.00  0.00     0.148 C 
BRANCH  23  24
HETATM   24  C   UNL     1       8.070  22.935  54.817  1.00  0.00     0.011 A 
HETATM   25  C   UNL     1       8.306  22.765  56.188  1.00  0.00     0.043 A 
HETATM   26 CL   UNL     1       8.573  24.115  57.235  1.00  0.00    -0.084 Cl
HETATM   27  C   UNL     1       8.324  21.486  56.759  1.00  0.00     0.024 A 
HETATM   28  C   UNL     1       8.110  20.359  55.967  1.00  0.00     0.005 A 
HETATM   29  C   UNL     1       7.879  20.512  54.604  1.00  0.00     0.043 A 
HETATM   30  C   UNL     1       7.863  21.787  54.044  1.00  0.00     0.124 A 
HETATM   31  F   UNL     1       7.631  21.902  52.728  1.00  0.00    -0.205 F 
ENDBRANCH  23  24
ENDBRANCH  20  23
ENDBRANCH   2  19
TORSDOF 5
ENDMDL
MODEL 6
REMARK VINA RESULT:      -9.2      2.700      3.337
REMARK  5 active torsions:
REMARK  status: ('A' for Active; 'I' for Inactive)
REMARK    1  A    between atoms: C_6  and  C_7 
REMARK    2  A    between atoms: C_7  and  C_8 
REMARK       I    between atoms: C_8  and  N_9 
REMARK    3  A    between atoms: N_9  and  N_10 
REMARK       I    between atoms: N_10  and  C_11 
REMARK    4  A    between atoms: C_11  and  C_12 
REMARK    5  A    between atoms: C_12  and  C_13 
ROOT
HETATM    1  C   UNL     1       4.280  29.381  56.017  1.00  0.00     0.243 C 
HETATM    2  N   UNL     1       4.528  28.467  57.017  1.00  0.00    -0.267 N 
HETATM    3  O   UNL     1       4.255  29.070  54.825  1.00  0.00    -0.271 OA
HETATM    4  H   UNL     1       4.428  28.696  58.010  1.00  0.00     0.190 HD
ENDROOT
BRANCH   1   5
HETATM    5  C   UNL     1       3.957  30.776  56.487  1.00  0.00     0.183 C 
BRANCH   5   6
HETATM    6  C   UNL     1       4.818  31.259  57.621  1.00  0.00     0.116 A 
HETATM    7  N   UNL     1       6.048  30.859  57.719  1.00  0.00    -0.227 NA
HETATM    8  C   UNL     1       6.723  31.350  58.791  1.00  0.00     0.116 A 
HETATM    9  C   UNL     1       6.228  32.185  59.771  1.00  0.00     0.075 A 
HETATM   10  S   UNL     1       8.356  30.966  59.060  1.00  0.00    -0.074 SA
HETATM   11  C   UNL     1       7.204  32.510  60.778  1.00  0.00    -0.031 A 
HETATM   12  C   UNL     1       4.842  32.595  59.649  1.00  0.00     0.260 A 
HETATM   13  C   UNL     1       6.935  33.379  61.965  1.00  0.00     0.050 C 
HETATM   14  C   UNL     1       8.418  31.895  60.497  1.00  0.00    -0.012 A 
HETATM   15  C   UNL     1       9.692  31.959  61.274  1.00  0.00     0.057 C 
HETATM   16  N   UNL     1       4.210  32.102  58.527  1.00  0.00    -0.310 N 
HETATM   17  O   UNL     1       4.252  33.307  60.455  1.00  0.00    -0.267 OA
HETATM   18  H   UNL     1       3.245  32.383  58.428  1.00  0.00     0.170 HD
ENDBRANCH   5   6
ENDBRANCH   1   5
BRANCH   2  19
HETATM   19  N   UNL     1       4.547  27.107  56.679  1.00  0.00    -0.267 N 
HETATM   20  C   UNL     1       5.782  26.479  56.671  1.00  0.00     0.240 C 
HETATM   21  O   UNL     1       6.841  27.101  56.739  1.00  0.00    -0.272 OA
HETATM   22  H   UNL     1       3.701  26.591  56.922  1.00  0.00     0.190 HD
BRANCH  20  23
HETATM   23  C   UNL     1       5.699  24.969  56.536  1.00  0.00     0.148 C 
BRANCH  23  24
HETATM   24  C   UNL     1       6.518  24.438  55.387  1.00  0.00     0.011 A 
HETATM   25  C   UNL     1       7.786  23.866  55.562  1.00  0.00     0.043 A 
HETATM   26 CL   UNL     1       8.493  23.693  57.130  1.00  0.00    -0.084 Cl
HETATM   27  C   UNL     1       8.523  23.406  54.463  1.00  0.00     0.024 A 
HETATM   28  C   UNL     1       8.004  23.514  53.173  1.00  0.00     0.005 A 
HETATM   29  C   UNL     1       6.748  24.082  52.983  1.00  0.00     0.043 A 
HETATM   30  C   UNL     1       6.023  24.538  54.082  1.00  0.00     0.124 A 
HETATM   31  F   UNL     1       4.814  25.075  53.867  1.00  0.00    -0.205 F 
ENDBRANCH  23  24
ENDBRANCH  20  23
ENDBRANCH   2  19
TORSDOF 5
ENDMDL
MODEL 7
REMARK VINA RESULT:      -9.0      5.580      8.173
REMARK  5 active torsions:
REMARK  status: ('A' for Active; 'I' for Inactive)
REMARK    1  A    between atoms: C_6  and  C_7 
REMARK    2  A    between atoms: C_7  and  C_8 
REMARK       I    between atoms: C_8  and  N_9 
REMARK    3  A    between atoms: N_9  and  N_10 
REMARK       I    between atoms: N_10  and  C_11 
REMARK    4  A    between atoms: C_11  and  C_12 
REMARK    5  A    between atoms: C_12  and  C_13 
ROOT
HETATM    1  C   UNL     1       6.739  28.013  54.756  1.00  0.00     0.243 C 
HETATM    2  N   UNL     1       6.668  27.206  55.869  1.00  0.00    -0.267 N 
HETATM    3  O   UNL     1       7.741  28.072  54.041  1.00  0.00    -0.271 OA
HETATM    4  H   UNL     1       5.800  27.063  56.392  1.00  0.00     0.190 HD
ENDROOT
BRANCH   1   5
HETATM    5  C   UNL     1       5.473  28.761  54.423  1.00  0.00     0.183 C 
BRANCH   5   6
HETATM    6  C   UNL     1       4.957  28.514  53.033  1.00  0.00     0.116 A 
HETATM    7  N   UNL     1       4.087  29.322  52.512  1.00  0.00    -0.227 NA
HETATM    8  C   UNL     1       3.683  28.991  51.258  1.00  0.00     0.116 A 
HETATM    9  C   UNL     1       4.078  27.893  50.522  1.00  0.00     0.075 A 
HETATM   10  S   UNL     1       2.576  29.955  50.400  1.00  0.00    -0.074 SA
HETATM   11  C   UNL     1       3.450  27.827  49.228  1.00  0.00    -0.031 A 
HETATM   12  C   UNL     1       5.032  26.994  51.142  1.00  0.00     0.260 A 
HETATM   13  C   UNL     1       3.680  26.735  48.233  1.00  0.00     0.050 C 
HETATM   14  C   UNL     1       2.597  28.909  49.045  1.00  0.00    -0.012 A 
HETATM   15  C   UNL     1       1.750  29.231  47.857  1.00  0.00     0.057 C 
HETATM   16  N   UNL     1       5.440  27.391  52.397  1.00  0.00    -0.310 N 
HETATM   17  O   UNL     1       5.453  25.962  50.629  1.00  0.00    -0.267 OA
HETATM   18  H   UNL     1       6.108  26.776  52.839  1.00  0.00     0.170 HD
ENDBRANCH   5   6
ENDBRANCH   1   5
BRANCH   2  19
HETATM   19  N   UNL     1       7.692  26.270  56.072  1.00  0.00    -0.267 N 
HETATM   20  C   UNL     1       7.327  24.933  56.084  1.00  0.00     0.240 C 
HETATM   21  O   UNL     1       6.153  24.568  56.133  1.00  0.00    -0.272 OA
HETATM   22  H   UNL     1       8.611  26.557  55.736  1.00  0.00     0.190 HD
BRANCH  20  23
HETATM   23  C   UNL     1       8.507  23.978  56.066  1.00  0.00     0.148 C 
BRANCH  23  24
HETATM   24  C   UNL     1       8.294  22.803  55.146  1.00  0.00     0.011 A 
HETATM   25  C   UNL     1       8.194  21.484  55.612  1.00  0.00     0.043 A 
HETATM   26 CL   UNL     1       8.269  21.113  57.299  1.00  0.00    -0.084 Cl
HETATM   27  C   UNL     1       8.019  20.419  54.719  1.00  0.00     0.024 A 
HETATM   28  C   UNL     1       7.947  20.656  53.347  1.00  0.00     0.005 A 
HETATM   29  C   UNL     1       8.049  21.959  52.869  1.00  0.00     0.043 A 
HETATM   30  C   UNL     1       8.223  23.012  53.764  1.00  0.00     0.124 A 
HETATM   31  F   UNL     1       8.311  24.257  53.273  1.00  0.00    -0.205 F 
ENDBRANCH  23  24
ENDBRANCH  20  23
ENDBRANCH   2  19
TORSDOF 5
ENDMDL
MODEL 8
REMARK VINA RESULT:      -8.9      4.899     10.877
REMARK  5 active torsions:
REMARK  status: ('A' for Active; 'I' for Inactive)
REMARK    1  A    between atoms: C_6  and  C_7 
REMARK    2  A    between atoms: C_7  and  C_8 
REMARK       I    between atoms: C_8  and  N_9 
REMARK    3  A    between atoms: N_9  and  N_10 
REMARK       I    between atoms: N_10  and  C_11 
REMARK    4  A    between atoms: C_11  and  C_12 
REMARK    5  A    between atoms: C_12  and  C_13 
ROOT
HETATM    1  C   UNL     1       7.582  31.216  59.416  1.00  0.00     0.243 C 
HETATM    2  N   UNL     1       7.181  31.320  60.729  1.00  0.00    -0.267 N 
HETATM    3  O   UNL     1       7.343  32.087  58.578  1.00  0.00    -0.271 OA
HETATM    4  H   UNL     1       7.483  30.661  61.452  1.00  0.00     0.190 HD
ENDROOT
BRANCH   1   5
HETATM    5  C   UNL     1       8.408  29.998  59.091  1.00  0.00     0.183 C 
BRANCH   5   6
HETATM    6  C   UNL     1       7.805  29.105  58.042  1.00  0.00     0.116 A 
HETATM    7  N   UNL     1       8.146  27.855  57.981  1.00  0.00    -0.227 NA
HETATM    8  C   UNL     1       7.548  27.150  56.985  1.00  0.00     0.116 A 
HETATM    9  C   UNL     1       6.662  27.633  56.044  1.00  0.00     0.075 A 
HETATM   10  S   UNL     1       7.842  25.490  56.776  1.00  0.00    -0.074 SA
HETATM   11  C   UNL     1       6.221  26.623  55.117  1.00  0.00    -0.031 A 
HETATM   12  C   UNL     1       6.320  29.040  56.123  1.00  0.00     0.260 A 
HETATM   13  C   UNL     1       5.277  26.872  53.985  1.00  0.00     0.050 C 
HETATM   14  C   UNL     1       6.805  25.399  55.416  1.00  0.00    -0.012 A 
HETATM   15  C   UNL     1       6.630  24.091  54.715  1.00  0.00     0.057 C 
HETATM   16  N   UNL     1       6.922  29.704  57.170  1.00  0.00    -0.310 N 
HETATM   17  O   UNL     1       5.573  29.621  55.341  1.00  0.00    -0.267 OA
HETATM   18  H   UNL     1       6.689  30.684  57.239  1.00  0.00     0.170 HD
ENDBRANCH   5   6
ENDBRANCH   1   5
BRANCH   2  19
HETATM   19  N   UNL     1       6.668  32.549  61.168  1.00  0.00    -0.267 N 
HETATM   20  C   UNL     1       5.999  32.553  62.381  1.00  0.00     0.240 C 
HETATM   21  O   UNL     1       5.669  31.518  62.958  1.00  0.00    -0.272 OA
HETATM   22  H   UNL     1       7.190  33.369  60.856  1.00  0.00     0.190 HD
BRANCH  20  23
HETATM   23  C   UNL     1       5.688  33.945  62.902  1.00  0.00     0.148 C 
BRANCH  23  24
HETATM   24  C   UNL     1       5.605  34.002  64.406  1.00  0.00     0.011 A 
HETATM   25  C   UNL     1       4.393  34.156  65.093  1.00  0.00     0.043 A 
HETATM   26 CL   UNL     1       2.884  34.253  64.254  1.00  0.00    -0.084 Cl
HETATM   27  C   UNL     1       4.365  34.227  66.491  1.00  0.00     0.024 A 
HETATM   28  C   UNL     1       5.549  34.150  67.224  1.00  0.00     0.005 A 
HETATM   29  C   UNL     1       6.761  34.001  66.556  1.00  0.00     0.043 A 
HETATM   30  C   UNL     1       6.779  33.932  65.164  1.00  0.00     0.124 A 
HETATM   31  F   UNL     1       7.962  33.782  64.551  1.00  0.00    -0.205 F 
ENDBRANCH  23  24
ENDBRANCH  20  23
ENDBRANCH   2  19
TORSDOF 5
ENDMDL
MODEL 9
REMARK VINA RESULT:      -8.9      6.200      8.531
REMARK  5 active torsions:
REMARK  status: ('A' for Active; 'I' for Inactive)
REMARK    1  A    between atoms: C_6  and  C_7 
REMARK    2  A    between atoms: C_7  and  C_8 
REMARK       I    between atoms: C_8  and  N_9 
REMARK    3  A    between atoms: N_9  and  N_10 
REMARK       I    between atoms: N_10  and  C_11 
REMARK    4  A    between atoms: C_11  and  C_12 
REMARK    5  A    between atoms: C_12  and  C_13 
ROOT
HETATM    1  C   UNL     1       4.419  29.326  53.769  1.00  0.00     0.243 C 
HETATM    2  N   UNL     1       5.573  29.038  53.075  1.00  0.00    -0.267 N 
HETATM    3  O   UNL     1       3.486  29.958  53.272  1.00  0.00    -0.271 OA
HETATM    4  H   UNL     1       6.295  28.411  53.441  1.00  0.00     0.190 HD
ENDROOT
BRANCH   1   5
HETATM    5  C   UNL     1       4.343  28.745  55.158  1.00  0.00     0.183 C 
BRANCH   5   6
HETATM    6  C   UNL     1       5.342  27.653  55.426  1.00  0.00     0.116 A 
HETATM    7  N   UNL     1       5.391  26.614  54.650  1.00  0.00    -0.227 NA
HETATM    8  C   UNL     1       6.322  25.688  54.998  1.00  0.00     0.116 A 
HETATM    9  C   UNL     1       7.173  25.735  56.083  1.00  0.00     0.075 A 
HETATM   10  S   UNL     1       6.557  24.280  54.077  1.00  0.00    -0.074 SA
HETATM   11  C   UNL     1       8.033  24.583  56.173  1.00  0.00    -0.031 A 
HETATM   12  C   UNL     1       7.078  26.897  56.945  1.00  0.00     0.260 A 
HETATM   13  C   UNL     1       9.039  24.363  57.258  1.00  0.00     0.050 C 
HETATM   14  C   UNL     1       7.786  23.707  55.123  1.00  0.00    -0.012 A 
HETATM   15  C   UNL     1       8.444  22.398  54.834  1.00  0.00     0.057 C 
HETATM   16  N   UNL     1       6.146  27.825  56.531  1.00  0.00    -0.310 N 
HETATM   17  O   UNL     1       7.743  27.067  57.962  1.00  0.00    -0.267 OA
HETATM   18  H   UNL     1       6.072  28.641  57.122  1.00  0.00     0.170 HD
ENDBRANCH   5   6
ENDBRANCH   1   5
BRANCH   2  19
HETATM   19  N   UNL     1       5.594  29.291  51.696  1.00  0.00    -0.267 N 
HETATM   20  C   UNL     1       5.367  28.213  50.855  1.00  0.00     0.240 C 
HETATM   21  O   UNL     1       5.359  27.051  51.257  1.00  0.00    -0.272 OA
HETATM   22  H   UNL     1       5.308  30.233  51.427  1.00  0.00     0.190 HD
BRANCH  20  23
HETATM   23  C   UNL     1       5.166  28.604  49.402  1.00  0.00     0.148 C 
BRANCH  23  24
HETATM   24  C   UNL     1       3.956  27.953  48.783  1.00  0.00     0.011 A 
HETATM   25  C   UNL     1       2.646  28.369  49.061  1.00  0.00     0.043 A 
HETATM   26 CL   UNL     1       2.324  29.699  50.118  1.00  0.00    -0.084 Cl
HETATM   27  C   UNL     1       1.549  27.720  48.480  1.00  0.00     0.024 A 
HETATM   28  C   UNL     1       1.745  26.643  47.615  1.00  0.00     0.005 A 
HETATM   29  C   UNL     1       3.039  26.217  47.333  1.00  0.00     0.043 A 
HETATM   30  C   UNL     1       4.124  26.868  47.916  1.00  0.00     0.124 A 
HETATM   31  F   UNL     1       5.359  26.437  47.618  1.00  0.00    -0.205 F 
ENDBRANCH  23  24
ENDBRANCH  20  23
ENDBRANCH   2  19
TORSDOF 5
ENDMDL
MODEL 10
REMARK VINA RESULT:      -8.9      5.713      8.046
REMARK  5 active torsions:
REMARK  status: ('A' for Active; 'I' for Inactive)
REMARK    1  A    between atoms: C_6  and  C_7 
REMARK    2  A    between atoms: C_7  and  C_8 
REMARK       I    between atoms: C_8  and  N_9 
REMARK    3  A    between atoms: N_9  and  N_10 
REMARK       I    between atoms: N_10  and  C_11 
REMARK    4  A    between atoms: C_11  and  C_12 
REMARK    5  A    between atoms: C_12  and  C_13 
ROOT
HETATM    1  C   UNL     1       5.011  28.730  55.286  1.00  0.00     0.243 C 
HETATM    2  N   UNL     1       4.861  27.375  55.480  1.00  0.00    -0.267 N 
HETATM    3  O   UNL     1       6.049  29.330  55.568  1.00  0.00    -0.271 OA
HETATM    4  H   UNL     1       4.049  26.855  55.135  1.00  0.00     0.190 HD
ENDROOT
BRANCH   1   5
HETATM    5  C   UNL     1       3.842  29.417  54.628  1.00  0.00     0.183 C 
BRANCH   5   6
HETATM    6  C   UNL     1       3.694  29.115  53.162  1.00  0.00     0.116 A 
HETATM    7  N   UNL     1       4.378  28.152  52.626  1.00  0.00    -0.227 NA
HETATM    8  C   UNL     1       4.173  27.982  51.294  1.00  0.00     0.116 A 
HETATM    9  C   UNL     1       3.353  28.733  50.479  1.00  0.00     0.075 A 
HETATM   10  S   UNL     1       4.954  26.744  50.430  1.00  0.00    -0.074 SA
HETATM   11  C   UNL     1       3.371  28.296  49.107  1.00  0.00    -0.031 A 
HETATM   12  C   UNL     1       2.620  29.819  51.102  1.00  0.00     0.260 A 
HETATM   13  C   UNL     1       2.592  28.941  48.005  1.00  0.00     0.050 C 
HETATM   14  C   UNL     1       4.220  27.207  48.953  1.00  0.00    -0.012 A 
HETATM   15  C   UNL     1       4.536  26.446  47.707  1.00  0.00     0.057 C 
HETATM   16  N   UNL     1       2.832  29.928  52.459  1.00  0.00    -0.310 N 
HETATM   17  O   UNL     1       1.878  30.592  50.505  1.00  0.00    -0.267 OA
HETATM   18  H   UNL     1       2.324  30.678  52.907  1.00  0.00     0.170 HD
ENDBRANCH   5   6
ENDBRANCH   1   5
BRANCH   2  19
HETATM   19  N   UNL     1       5.999  26.626  55.813  1.00  0.00    -0.267 N 
HETATM   20  C   UNL     1       6.295  25.541  55.004  1.00  0.00     0.240 C 
HETATM   21  O   UNL     1       5.507  25.105  54.166  1.00  0.00    -0.272 OA
HETATM   22  H   UNL     1       6.741  27.153  56.273  1.00  0.00     0.190 HD
BRANCH  20  23
HETATM   23  C   UNL     1       7.658  24.930  55.277  1.00  0.00     0.148 C 
BRANCH  23  24
HETATM   24  C   UNL     1       7.781  23.519  54.761  1.00  0.00     0.011 A 
HETATM   25  C   UNL     1       7.955  23.222  53.402  1.00  0.00     0.043 A 
HETATM   26 CL   UNL     1       8.081  24.469  52.212  1.00  0.00    -0.084 Cl
HETATM   27  C   UNL     1       8.043  21.895  52.964  1.00  0.00     0.024 A 
HETATM   28  C   UNL     1       7.953  20.845  53.877  1.00  0.00     0.005 A 
HETATM   29  C   UNL     1       7.776  21.124  55.229  1.00  0.00     0.043 A 
HETATM   30  C   UNL     1       7.690  22.447  55.655  1.00  0.00     0.124 A 
HETATM   31  F   UNL     1       7.526  22.684  56.965  1.00  0.00    -0.205 F 
ENDBRANCH  23  24
ENDBRANCH  20  23
ENDBRANCH   2  19
TORSDOF 5
ENDMDL
