MODEL 1
REMARK VINA RESULT:      -9.9      0.000      0.000
REMARK  6 active torsions:
REMARK  status: ('A' for Active; 'I' for Inactive)
REMARK    1  A    between atoms: C_7  and  C_8 
REMARK    2  A    between atoms: N_9  and  N_10 
REMARK       I    between atoms: N_10  and  C_11 
REMARK    3  A    between atoms: C_11  and  C_12 
REMARK    4  A    between atoms: C_12  and  N_13 
REMARK       I    between atoms: N_13  and  C_14 
REMARK    5  A    between atoms: C_14  and  C_15 
REMARK    6  A    between atoms: C_16  and  O_17 
ROOT
HETATM    1  N   UNL     1       8.021  27.037  57.389  1.00  0.00    -0.246 N 
HETATM    2  C   UNL     1       7.968  28.385  57.077  1.00  0.00     0.255 C 
HETATM    3  O   UNL     1       7.923  28.839  55.932  1.00  0.00    -0.270 OA
HETATM    4  H   UNL     1       8.101  26.726  58.353  1.00  0.00     0.192 HD
ENDROOT
BRANCH   1   5
HETATM    5  N   UNL     1       8.055  26.127  56.373  1.00  0.00    -0.184 NA
HETATM    6  C   UNL     1       7.272  25.105  56.485  1.00  0.00     0.153 C 
BRANCH   6   7
HETATM    7  C   UNL     1       7.286  24.078  55.457  1.00  0.00     0.018 A 
HETATM    8  C   UNL     1       6.835  24.204  54.147  1.00  0.00     0.018 A 
HETATM    9  C   UNL     1       6.220  25.354  53.428  1.00  0.00     0.069 C 
HETATM   10  N   UNL     1       7.053  23.008  53.512  1.00  0.00    -0.358 N 
HETATM   11  H   UNL     1       6.827  22.815  52.547  1.00  0.00     0.166 HD
HETATM   12  C   UNL     1       7.640  22.105  54.366  1.00  0.00     0.043 A 
HETATM   13  C   UNL     1       7.793  22.744  55.597  1.00  0.00     0.004 A 
HETATM   14  C   UNL     1       8.047  20.786  54.135  1.00  0.00     0.030 A 
HETATM   15  C   UNL     1       8.390  22.020  56.652  1.00  0.00     0.014 A 
HETATM   16  C   UNL     1       8.807  20.700  56.438  1.00  0.00     0.001 A 
HETATM   17  C   UNL     1       8.636  20.094  55.196  1.00  0.00     0.002 A 
ENDBRANCH   6   7
ENDBRANCH   1   5
BRANCH   2  18
HETATM   18  C   UNL     1       8.180  29.323  58.266  1.00  0.00     0.227 C 
BRANCH  18  19
HETATM   19  N   UNL     1       9.094  30.440  58.062  1.00  0.00    -0.348 N 
HETATM   20  C   UNL     1       9.396  31.500  58.875  1.00  0.00     0.254 C 
HETATM   21  O   UNL     1      10.272  32.294  58.549  1.00  0.00    -0.268 OA
HETATM   22  H   UNL     1       9.650  30.426  57.213  1.00  0.00     0.163 HD
BRANCH  20  23
HETATM   23  C   UNL     1       8.631  31.719  60.116  1.00  0.00     0.065 A 
HETATM   24  C   UNL     1       7.335  32.243  60.042  1.00  0.00     0.084 A 
HETATM   25  C   UNL     1       6.592  32.448  61.203  1.00  0.00     0.038 A 
HETATM   26  C   UNL     1       7.163  32.167  62.446  1.00  0.00     0.003 A 
HETATM   27  C   UNL     1       8.470  31.682  62.525  1.00  0.00     0.001 A 
HETATM   28  C   UNL     1       9.211  31.464  61.362  1.00  0.00     0.020 A 
BRANCH  24  29
HETATM   29  O   UNL     1       6.740  32.477  58.828  1.00  0.00    -0.355 OA
HETATM   30  C   UNL     1       5.418  31.923  58.827  1.00  0.00     0.210 C 
ENDBRANCH  24  29
ENDBRANCH  20  23
ENDBRANCH  18  19
ENDBRANCH   2  18
TORSDOF 6
ENDMDL
MODEL 2
REMARK VINA RESULT:      -9.6      5.710      9.801
REMARK  6 active torsions:
REMARK  status: ('A' for Active; 'I' for Inactive)
REMARK    1  A    between atoms: C_7  and  C_8 
REMARK    2  A    between atoms: N_9  and  N_10 
REMARK       I    between atoms: N_10  and  C_11 
REMARK    3  A    between atoms: C_11  and  C_12 
REMARK    4  A    between atoms: C_12  and  N_13 
REMARK       I    between atoms: N_13  and  C_14 
REMARK    5  A    between atoms: C_14  and  C_15 
REMARK    6  A    between atoms: C_16  and  O_17 
ROOT
HETATM    1  N   UNL     1       6.405  26.035  51.287  1.00  0.00    -0.246 N 
HETATM    2  C   UNL     1       5.412  26.973  51.518  1.00  0.00     0.255 C 
HETATM    3  O   UNL     1       5.023  27.321  52.635  1.00  0.00    -0.270 OA
HETATM    4  H   UNL     1       6.652  25.757  50.341  1.00  0.00     0.192 HD
ENDROOT
BRANCH   1   5
HETATM    5  N   UNL     1       6.989  25.418  52.354  1.00  0.00    -0.184 NA
HETATM    6  C   UNL     1       6.370  24.392  52.840  1.00  0.00     0.153 C 
BRANCH   6   7
HETATM    7  C   UNL     1       6.918  23.711  54.000  1.00  0.00     0.018 A 
HETATM    8  C   UNL     1       6.872  24.146  55.321  1.00  0.00     0.018 A 
HETATM    9  C   UNL     1       6.296  25.378  55.928  1.00  0.00     0.069 C 
HETATM   10  N   UNL     1       7.487  23.196  56.097  1.00  0.00    -0.358 N 
HETATM   11  H   UNL     1       7.593  23.248  57.099  1.00  0.00     0.166 HD
HETATM   12  C   UNL     1       7.927  22.149  55.324  1.00  0.00     0.043 A 
HETATM   13  C   UNL     1       7.591  22.445  54.002  1.00  0.00     0.004 A 
HETATM   14  C   UNL     1       8.583  20.971  55.699  1.00  0.00     0.030 A 
HETATM   15  C   UNL     1       7.931  21.506  53.003  1.00  0.00     0.014 A 
HETATM   16  C   UNL     1       8.586  20.321  53.361  1.00  0.00     0.001 A 
HETATM   17  C   UNL     1       8.906  20.060  54.690  1.00  0.00     0.002 A 
ENDBRANCH   6   7
ENDBRANCH   1   5
BRANCH   2  18
HETATM   18  C   UNL     1       4.656  27.421  50.268  1.00  0.00     0.227 C 
BRANCH  18  19
HETATM   19  N   UNL     1       5.426  27.506  49.033  1.00  0.00    -0.348 N 
HETATM   20  C   UNL     1       5.021  27.748  47.748  1.00  0.00     0.254 C 
HETATM   21  O   UNL     1       5.852  27.868  46.854  1.00  0.00    -0.268 OA
HETATM   22  H   UNL     1       6.435  27.432  49.119  1.00  0.00     0.163 HD
BRANCH  20  23
HETATM   23  C   UNL     1       3.584  27.810  47.427  1.00  0.00     0.065 A 
HETATM   24  C   UNL     1       2.903  26.634  47.091  1.00  0.00     0.084 A 
HETATM   25  C   UNL     1       1.540  26.669  46.795  1.00  0.00     0.038 A 
HETATM   26  C   UNL     1       0.867  27.892  46.794  1.00  0.00     0.003 A 
HETATM   27  C   UNL     1       1.553  29.073  47.090  1.00  0.00     0.001 A 
HETATM   28  C   UNL     1       2.914  29.036  47.399  1.00  0.00     0.020 A 
BRANCH  24  29
HETATM   29  O   UNL     1       3.536  25.418  47.138  1.00  0.00    -0.355 OA
HETATM   30  C   UNL     1       2.886  24.574  48.098  1.00  0.00     0.210 C 
ENDBRANCH  24  29
ENDBRANCH  20  23
ENDBRANCH  18  19
ENDBRANCH   2  18
TORSDOF 6
ENDMDL
MODEL 3
REMARK VINA RESULT:      -9.2      5.689      8.822
REMARK  6 active torsions:
REMARK  status: ('A' for Active; 'I' for Inactive)
REMARK    1  A    between atoms: C_7  and  C_8 
REMARK    2  A    between atoms: N_9  and  N_10 
REMARK       I    between atoms: N_10  and  C_11 
REMARK    3  A    between atoms: C_11  and  C_12 
REMARK    4  A    between atoms: C_12  and  N_13 
REMARK       I    between atoms: N_13  and  C_14 
REMARK    5  A    between atoms: C_14  and  C_15 
REMARK    6  A    between atoms: C_16  and  O_17 
ROOT
HETATM    1  N   UNL     1       5.068  26.273  53.761  1.00  0.00    -0.246 N 
HETATM    2  C   UNL     1       4.974  26.336  52.381  1.00  0.00     0.255 C 
HETATM    3  O   UNL     1       5.373  25.461  51.610  1.00  0.00    -0.270 OA
HETATM    4  H   UNL     1       4.760  27.048  54.343  1.00  0.00     0.192 HD
ENDROOT
BRANCH   1   5
HETATM    5  N   UNL     1       5.667  25.188  54.331  1.00  0.00    -0.184 NA
HETATM    6  C   UNL     1       6.935  25.284  54.567  1.00  0.00     0.153 C 
BRANCH   6   7
HETATM    7  C   UNL     1       7.642  24.151  55.138  1.00  0.00     0.018 A 
HETATM    8  C   UNL     1       8.179  24.063  56.418  1.00  0.00     0.018 A 
HETATM    9  C   UNL     1       8.211  25.044  57.538  1.00  0.00     0.069 C 
HETATM   10  N   UNL     1       8.739  22.817  56.553  1.00  0.00    -0.358 N 
HETATM   11  H   UNL     1       9.197  22.476  57.385  1.00  0.00     0.166 HD
HETATM   12  C   UNL     1       8.578  22.086  55.401  1.00  0.00     0.043 A 
HETATM   13  C   UNL     1       7.900  22.897  54.491  1.00  0.00     0.004 A 
HETATM   14  C   UNL     1       8.974  20.776  55.108  1.00  0.00     0.030 A 
HETATM   15  C   UNL     1       7.600  22.363  53.218  1.00  0.00     0.014 A 
HETATM   16  C   UNL     1       7.986  21.053  52.909  1.00  0.00     0.001 A 
HETATM   17  C   UNL     1       8.664  20.273  53.842  1.00  0.00     0.002 A 
ENDBRANCH   6   7
ENDBRANCH   1   5
BRANCH   2  18
HETATM   18  C   UNL     1       4.515  27.688  51.835  1.00  0.00     0.227 C 
BRANCH  18  19
HETATM   19  N   UNL     1       5.359  28.305  50.819  1.00  0.00    -0.348 N 
HETATM   20  C   UNL     1       5.216  28.360  49.459  1.00  0.00     0.254 C 
HETATM   21  O   UNL     1       6.004  29.015  48.784  1.00  0.00    -0.268 OA
HETATM   22  H   UNL     1       6.161  28.832  51.151  1.00  0.00     0.163 HD
BRANCH  20  23
HETATM   23  C   UNL     1       4.148  27.589  48.797  1.00  0.00     0.065 A 
HETATM   24  C   UNL     1       2.849  28.108  48.758  1.00  0.00     0.084 A 
HETATM   25  C   UNL     1       1.827  27.399  48.128  1.00  0.00     0.038 A 
HETATM   26  C   UNL     1       2.098  26.147  47.571  1.00  0.00     0.003 A 
HETATM   27  C   UNL     1       3.385  25.610  47.643  1.00  0.00     0.001 A 
HETATM   28  C   UNL     1       4.412  26.325  48.264  1.00  0.00     0.020 A 
BRANCH  24  29
HETATM   29  O   UNL     1       2.575  29.357  49.254  1.00  0.00    -0.355 OA
HETATM   30  C   UNL     1       1.577  29.260  50.278  1.00  0.00     0.210 C 
ENDBRANCH  24  29
ENDBRANCH  20  23
ENDBRANCH  18  19
ENDBRANCH   2  18
TORSDOF 6
ENDMDL
MODEL 4
REMARK VINA RESULT:      -9.1      5.613      9.308
REMARK  6 active torsions:
REMARK  status: ('A' for Active; 'I' for Inactive)
REMARK    1  A    between atoms: C_7  and  C_8 
REMARK    2  A    between atoms: N_9  and  N_10 
REMARK       I    between atoms: N_10  and  C_11 
REMARK    3  A    between atoms: C_11  and  C_12 
REMARK    4  A    between atoms: C_12  and  N_13 
REMARK       I    between atoms: N_13  and  C_14 
REMARK    5  A    between atoms: C_14  and  C_15 
REMARK    6  A    between atoms: C_16  and  O_17 
ROOT
HETATM    1  N   UNL     1       5.653  26.390  52.983  1.00  0.00    -0.246 N 
HETATM    2  C   UNL     1       5.028  25.954  51.827  1.00  0.00     0.255 C 
HETATM    3  O   UNL     1       4.732  24.781  51.589  1.00  0.00    -0.270 OA
HETATM    4  H   UNL     1       5.911  27.366  53.102  1.00  0.00     0.192 HD
ENDROOT
BRANCH   1   5
HETATM    5  N   UNL     1       6.001  25.472  53.930  1.00  0.00    -0.184 NA
HETATM    6  C   UNL     1       7.259  25.190  54.028  1.00  0.00     0.153 C 
BRANCH   6   7
HETATM    7  C   UNL     1       7.695  24.193  54.990  1.00  0.00     0.018 A 
HETATM    8  C   UNL     1       7.927  24.389  56.347  1.00  0.00     0.018 A 
HETATM    9  C   UNL     1       7.825  25.611  57.193  1.00  0.00     0.069 C 
HETATM   10  N   UNL     1       8.302  23.185  56.887  1.00  0.00    -0.358 N 
HETATM   11  H   UNL     1       8.527  23.031  57.859  1.00  0.00     0.166 HD
HETATM   12  C   UNL     1       8.313  22.204  55.925  1.00  0.00     0.043 A 
HETATM   13  C   UNL     1       7.944  22.806  54.721  1.00  0.00     0.004 A 
HETATM   14  C   UNL     1       8.614  20.842  56.036  1.00  0.00     0.030 A 
HETATM   15  C   UNL     1       7.870  21.995  53.567  1.00  0.00     0.014 A 
HETATM   16  C   UNL     1       8.165  20.629  53.660  1.00  0.00     0.001 A 
HETATM   17  C   UNL     1       8.532  20.064  54.879  1.00  0.00     0.002 A 
ENDBRANCH   6   7
ENDBRANCH   1   5
BRANCH   2  18
HETATM   18  C   UNL     1       4.903  27.013  50.732  1.00  0.00     0.227 C 
BRANCH  18  19
HETATM   19  N   UNL     1       5.346  26.630  49.397  1.00  0.00    -0.348 N 
HETATM   20  C   UNL     1       4.781  26.866  48.172  1.00  0.00     0.254 C 
HETATM   21  O   UNL     1       5.369  26.530  47.150  1.00  0.00    -0.268 OA
HETATM   22  H   UNL     1       6.243  26.160  49.332  1.00  0.00     0.163 HD
BRANCH  20  23
HETATM   23  C   UNL     1       3.441  27.473  48.082  1.00  0.00     0.065 A 
HETATM   24  C   UNL     1       3.306  28.862  48.189  1.00  0.00     0.084 A 
HETATM   25  C   UNL     1       2.048  29.456  48.095  1.00  0.00     0.038 A 
HETATM   26  C   UNL     1       0.917  28.654  47.935  1.00  0.00     0.003 A 
HETATM   27  C   UNL     1       1.045  27.264  47.867  1.00  0.00     0.001 A 
HETATM   28  C   UNL     1       2.305  26.669  47.949  1.00  0.00     0.020 A 
BRANCH  24  29
HETATM   29  O   UNL     1       4.411  29.669  48.295  1.00  0.00    -0.355 OA
HETATM   30  C   UNL     1       4.581  30.411  47.080  1.00  0.00     0.210 C 
ENDBRANCH  24  29
ENDBRANCH  20  23
ENDBRANCH  18  19
ENDBRANCH   2  18
TORSDOF 6
ENDMDL
MODEL 5
REMARK VINA RESULT:      -9.0      5.429      9.281
REMARK  6 active torsions:
REMARK  status: ('A' for Active; 'I' for Inactive)
REMARK    1  A    between atoms: C_7  and  C_8 
REMARK    2  A    between atoms: N_9  and  N_10 
REMARK       I    between atoms: N_10  and  C_11 
REMARK    3  A    between atoms: C_11  and  C_12 
REMARK    4  A    between atoms: C_12  and  N_13 
REMARK       I    between atoms: N_13  and  C_14 
REMARK    5  A    between atoms: C_14  and  C_15 
REMARK    6  A    between atoms: C_16  and  O_17 
ROOT
HETATM    1  N   UNL     1       6.321  25.865  51.693  1.00  0.00    -0.246 N 
HETATM    2  C   UNL     1       5.311  26.802  51.834  1.00  0.00     0.255 C 
HETATM    3  O   UNL     1       4.582  26.904  52.822  1.00  0.00    -0.270 OA
HETATM    4  H   UNL     1       6.861  25.803  50.834  1.00  0.00     0.192 HD
ENDROOT
BRANCH   1   5
HETATM    5  N   UNL     1       6.523  24.960  52.693  1.00  0.00    -0.184 NA
HETATM    6  C   UNL     1       7.646  25.041  53.329  1.00  0.00     0.153 C 
BRANCH   6   7
HETATM    7  C   UNL     1       7.942  24.083  54.380  1.00  0.00     0.018 A 
HETATM    8  C   UNL     1       8.015  24.340  55.745  1.00  0.00     0.018 A 
HETATM    9  C   UNL     1       7.839  25.601  56.517  1.00  0.00     0.069 C 
HETATM   10  N   UNL     1       8.296  23.156  56.380  1.00  0.00    -0.358 N 
HETATM   11  H   UNL     1       8.400  23.045  57.378  1.00  0.00     0.166 HD
HETATM   12  C   UNL     1       8.402  22.131  55.471  1.00  0.00     0.043 A 
HETATM   13  C   UNL     1       8.192  22.681  54.206  1.00  0.00     0.004 A 
HETATM   14  C   UNL     1       8.658  20.771  55.679  1.00  0.00     0.030 A 
HETATM   15  C   UNL     1       8.239  21.818  53.089  1.00  0.00     0.014 A 
HETATM   16  C   UNL     1       8.491  20.453  53.279  1.00  0.00     0.001 A 
HETATM   17  C   UNL     1       8.698  19.940  54.557  1.00  0.00     0.002 A 
ENDBRANCH   6   7
ENDBRANCH   1   5
BRANCH   2  18
HETATM   18  C   UNL     1       5.006  27.605  50.570  1.00  0.00     0.227 C 
BRANCH  18  19
HETATM   19  N   UNL     1       5.097  26.888  49.303  1.00  0.00    -0.348 N 
HETATM   20  C   UNL     1       4.747  27.275  48.037  1.00  0.00     0.254 C 
HETATM   21  O   UNL     1       4.992  26.545  47.082  1.00  0.00    -0.268 OA
HETATM   22  H   UNL     1       5.539  25.975  49.326  1.00  0.00     0.163 HD
BRANCH  20  23
HETATM   23  C   UNL     1       4.025  28.542  47.825  1.00  0.00     0.065 A 
HETATM   24  C   UNL     1       2.647  28.597  48.062  1.00  0.00     0.084 A 
HETATM   25  C   UNL     1       1.948  29.790  47.878  1.00  0.00     0.038 A 
HETATM   26  C   UNL     1       2.624  30.920  47.415  1.00  0.00     0.003 A 
HETATM   27  C   UNL     1       3.992  30.858  47.140  1.00  0.00     0.001 A 
HETATM   28  C   UNL     1       4.695  29.667  47.337  1.00  0.00     0.020 A 
BRANCH  24  29
HETATM   29  O   UNL     1       1.977  27.511  48.566  1.00  0.00    -0.355 OA
HETATM   30  C   UNL     1       1.089  26.989  47.569  1.00  0.00     0.210 C 
ENDBRANCH  24  29
ENDBRANCH  20  23
ENDBRANCH  18  19
ENDBRANCH   2  18
TORSDOF 6
ENDMDL
MODEL 6
REMARK VINA RESULT:      -8.7      2.412      9.232
REMARK  6 active torsions:
REMARK  status: ('A' for Active; 'I' for Inactive)
REMARK    1  A    between atoms: C_7  and  C_8 
REMARK    2  A    between atoms: N_9  and  N_10 
REMARK       I    between atoms: N_10  and  C_11 
REMARK    3  A    between atoms: C_11  and  C_12 
REMARK    4  A    between atoms: C_12  and  N_13 
REMARK       I    between atoms: N_13  and  C_14 
REMARK    5  A    between atoms: C_14  and  C_15 
REMARK    6  A    between atoms: C_16  and  O_17 
ROOT
HETATM    1  N   UNL     1       6.887  29.156  56.344  1.00  0.00    -0.246 N 
HETATM    2  C   UNL     1       8.164  28.741  56.006  1.00  0.00     0.255 C 
HETATM    3  O   UNL     1       9.133  28.759  56.767  1.00  0.00    -0.270 OA
HETATM    4  H   UNL     1       6.138  29.158  55.656  1.00  0.00     0.192 HD
ENDROOT
BRANCH   1   5
HETATM    5  N   UNL     1       6.667  29.653  57.595  1.00  0.00    -0.184 NA
HETATM    6  C   UNL     1       6.614  30.941  57.705  1.00  0.00     0.153 C 
BRANCH   6   7
HETATM    7  C   UNL     1       6.419  31.537  59.016  1.00  0.00     0.018 A 
HETATM    8  C   UNL     1       5.265  32.153  59.488  1.00  0.00     0.018 A 
HETATM    9  C   UNL     1       3.947  32.395  58.839  1.00  0.00     0.069 C 
HETATM   10  N   UNL     1       5.503  32.556  60.778  1.00  0.00    -0.358 N 
HETATM   11  H   UNL     1       4.834  33.027  61.369  1.00  0.00     0.166 HD
HETATM   12  C   UNL     1       6.776  32.216  61.166  1.00  0.00     0.043 A 
HETATM   13  C   UNL     1       7.380  31.581  60.080  1.00  0.00     0.004 A 
HETATM   14  C   UNL     1       7.424  32.416  62.389  1.00  0.00     0.030 A 
HETATM   15  C   UNL     1       8.707  31.120  60.232  1.00  0.00     0.014 A 
HETATM   16  C   UNL     1       9.370  31.310  61.450  1.00  0.00     0.001 A 
HETATM   17  C   UNL     1       8.736  31.949  62.512  1.00  0.00     0.002 A 
ENDBRANCH   6   7
ENDBRANCH   1   5
BRANCH   2  18
HETATM   18  C   UNL     1       8.362  28.435  54.521  1.00  0.00     0.227 C 
BRANCH  18  19
HETATM   19  N   UNL     1       7.161  28.401  53.695  1.00  0.00    -0.348 N 
HETATM   20  C   UNL     1       6.407  27.342  53.268  1.00  0.00     0.254 C 
HETATM   21  O   UNL     1       5.368  27.539  52.645  1.00  0.00    -0.268 OA
HETATM   22  H   UNL     1       6.768  29.297  53.424  1.00  0.00     0.163 HD
BRANCH  20  23
HETATM   23  C   UNL     1       6.868  25.963  53.506  1.00  0.00     0.065 A 
HETATM   24  C   UNL     1       6.666  25.377  54.761  1.00  0.00     0.084 A 
HETATM   25  C   UNL     1       7.085  24.069  55.004  1.00  0.00     0.038 A 
HETATM   26  C   UNL     1       7.747  23.360  53.999  1.00  0.00     0.003 A 
HETATM   27  C   UNL     1       7.986  23.957  52.759  1.00  0.00     0.001 A 
HETATM   28  C   UNL     1       7.555  25.261  52.511  1.00  0.00     0.020 A 
BRANCH  24  29
HETATM   29  O   UNL     1       5.972  26.039  55.742  1.00  0.00    -0.355 OA
HETATM   30  C   UNL     1       6.320  25.500  57.024  1.00  0.00     0.210 C 
ENDBRANCH  24  29
ENDBRANCH  20  23
ENDBRANCH  18  19
ENDBRANCH   2  18
TORSDOF 6
ENDMDL
MODEL 7
REMARK VINA RESULT:      -8.5      5.132      8.108
REMARK  6 active torsions:
REMARK  status: ('A' for Active; 'I' for Inactive)
REMARK    1  A    between atoms: C_7  and  C_8 
REMARK    2  A    between atoms: N_9  and  N_10 
REMARK       I    between atoms: N_10  and  C_11 
REMARK    3  A    between atoms: C_11  and  C_12 
REMARK    4  A    between atoms: C_12  and  N_13 
REMARK       I    between atoms: N_13  and  C_14 
REMARK    5  A    between atoms: C_14  and  C_15 
REMARK    6  A    between atoms: C_16  and  O_17 
ROOT
HETATM    1  N   UNL     1       6.359  26.476  52.694  1.00  0.00    -0.246 N 
HETATM    2  C   UNL     1       6.440  27.804  53.078  1.00  0.00     0.255 C 
HETATM    3  O   UNL     1       7.203  28.239  53.943  1.00  0.00    -0.270 OA
HETATM    4  H   UNL     1       5.677  26.172  52.004  1.00  0.00     0.192 HD
ENDROOT
BRANCH   1   5
HETATM    5  N   UNL     1       7.149  25.560  53.323  1.00  0.00    -0.184 NA
HETATM    6  C   UNL     1       6.576  24.812  54.209  1.00  0.00     0.153 C 
BRANCH   6   7
HETATM    7  C   UNL     1       7.368  23.841  54.943  1.00  0.00     0.018 A 
HETATM    8  C   UNL     1       7.836  23.961  56.248  1.00  0.00     0.018 A 
HETATM    9  C   UNL     1       7.696  25.061  57.241  1.00  0.00     0.069 C 
HETATM   10  N   UNL     1       8.519  22.812  56.556  1.00  0.00    -0.358 N 
HETATM   11  H   UNL     1       8.962  22.623  57.443  1.00  0.00     0.166 HD
HETATM   12  C   UNL     1       8.505  21.940  55.495  1.00  0.00     0.043 A 
HETATM   13  C   UNL     1       7.797  22.558  54.464  1.00  0.00     0.004 A 
HETATM   14  C   UNL     1       9.057  20.659  55.380  1.00  0.00     0.030 A 
HETATM   15  C   UNL     1       7.632  21.851  53.252  1.00  0.00     0.014 A 
HETATM   16  C   UNL     1       8.175  20.567  53.120  1.00  0.00     0.001 A 
HETATM   17  C   UNL     1       8.878  19.982  54.171  1.00  0.00     0.002 A 
ENDBRANCH   6   7
ENDBRANCH   1   5
BRANCH   2  18
HETATM   18  C   UNL     1       5.351  28.704  52.494  1.00  0.00     0.227 C 
BRANCH  18  19
HETATM   19  N   UNL     1       5.773  29.676  51.493  1.00  0.00    -0.348 N 
HETATM   20  C   UNL     1       5.140  30.119  50.362  1.00  0.00     0.254 C 
HETATM   21  O   UNL     1       5.635  31.020  49.694  1.00  0.00    -0.268 OA
HETATM   22  H   UNL     1       6.649  30.158  51.666  1.00  0.00     0.163 HD
BRANCH  20  23
HETATM   23  C   UNL     1       3.891  29.476  49.916  1.00  0.00     0.065 A 
HETATM   24  C   UNL     1       3.954  28.333  49.111  1.00  0.00     0.084 A 
HETATM   25  C   UNL     1       2.784  27.704  48.688  1.00  0.00     0.038 A 
HETATM   26  C   UNL     1       1.545  28.246  49.038  1.00  0.00     0.003 A 
HETATM   27  C   UNL     1       1.479  29.409  49.809  1.00  0.00     0.001 A 
HETATM   28  C   UNL     1       2.651  30.032  50.243  1.00  0.00     0.020 A 
BRANCH  24  29
HETATM   29  O   UNL     1       5.161  27.759  48.801  1.00  0.00    -0.355 OA
HETATM   30  C   UNL     1       5.400  27.874  47.392  1.00  0.00     0.210 C 
ENDBRANCH  24  29
ENDBRANCH  20  23
ENDBRANCH  18  19
ENDBRANCH   2  18
TORSDOF 6
ENDMDL
MODEL 8
REMARK VINA RESULT:      -8.3      2.669      4.477
REMARK  6 active torsions:
REMARK  status: ('A' for Active; 'I' for Inactive)
REMARK    1  A    between atoms: C_7  and  C_8 
REMARK    2  A    between atoms: N_9  and  N_10 
REMARK       I    between atoms: N_10  and  C_11 
REMARK    3  A    between atoms: C_11  and  C_12 
REMARK    4  A    between atoms: C_12  and  N_13 
REMARK       I    between atoms: N_13  and  C_14 
REMARK    5  A    between atoms: C_14  and  C_15 
REMARK    6  A    between atoms: C_16  and  O_17 
ROOT
HETATM    1  N   UNL     1       5.495  30.840  58.199  1.00  0.00    -0.246 N 
HETATM    2  C   UNL     1       6.414  31.720  58.746  1.00  0.00     0.255 C 
HETATM    3  O   UNL     1       7.620  31.722  58.492  1.00  0.00    -0.270 OA
HETATM    4  H   UNL     1       4.519  30.859  58.483  1.00  0.00     0.192 HD
ENDROOT
BRANCH   1   5
HETATM    5  N   UNL     1       5.936  29.879  57.338  1.00  0.00    -0.184 NA
HETATM    6  C   UNL     1       5.132  28.893  57.108  1.00  0.00     0.153 C 
BRANCH   6   7
HETATM    7  C   UNL     1       5.554  27.816  56.230  1.00  0.00     0.018 A 
HETATM    8  C   UNL     1       5.115  27.579  54.931  1.00  0.00     0.018 A 
HETATM    9  C   UNL     1       4.125  28.299  54.084  1.00  0.00     0.069 C 
HETATM   10  N   UNL     1       5.782  26.478  54.457  1.00  0.00    -0.358 N 
HETATM   11  H   UNL     1       5.665  26.082  53.536  1.00  0.00     0.166 HD
HETATM   12  C   UNL     1       6.650  25.991  55.405  1.00  0.00     0.043 A 
HETATM   13  C   UNL     1       6.525  26.805  56.532  1.00  0.00     0.004 A 
HETATM   14  C   UNL     1       7.531  24.906  55.342  1.00  0.00     0.030 A 
HETATM   15  C   UNL     1       7.331  26.514  57.655  1.00  0.00     0.014 A 
HETATM   16  C   UNL     1       8.220  25.433  57.608  1.00  0.00     0.001 A 
HETATM   17  C   UNL     1       8.316  24.642  56.467  1.00  0.00     0.002 A 
ENDBRANCH   6   7
ENDBRANCH   1   5
BRANCH   2  18
HETATM   18  C   UNL     1       5.867  32.591  59.877  1.00  0.00     0.227 C 
BRANCH  18  19
HETATM   19  N   UNL     1       4.828  32.001  60.712  1.00  0.00    -0.348 N 
HETATM   20  C   UNL     1       4.621  32.084  62.063  1.00  0.00     0.254 C 
HETATM   21  O   UNL     1       3.621  31.578  62.564  1.00  0.00    -0.268 OA
HETATM   22  H   UNL     1       4.095  31.486  60.234  1.00  0.00     0.163 HD
BRANCH  20  23
HETATM   23  C   UNL     1       5.626  32.731  62.925  1.00  0.00     0.065 A 
HETATM   24  C   UNL     1       6.881  32.134  63.086  1.00  0.00     0.084 A 
HETATM   25  C   UNL     1       7.849  32.737  63.889  1.00  0.00     0.038 A 
HETATM   26  C   UNL     1       7.545  33.919  64.566  1.00  0.00     0.003 A 
HETATM   27  C   UNL     1       6.279  34.496  64.439  1.00  0.00     0.001 A 
HETATM   28  C   UNL     1       5.314  33.900  63.625  1.00  0.00     0.020 A 
BRANCH  24  29
HETATM   29  O   UNL     1       7.215  31.001  62.389  1.00  0.00    -0.355 OA
HETATM   30  C   UNL     1       8.641  30.919  62.259  1.00  0.00     0.210 C 
ENDBRANCH  24  29
ENDBRANCH  20  23
ENDBRANCH  18  19
ENDBRANCH   2  18
TORSDOF 6
ENDMDL
MODEL 9
REMARK VINA RESULT:      -8.3      2.656      9.820
REMARK  6 active torsions:
REMARK  status: ('A' for Active; 'I' for Inactive)
REMARK    1  A    between atoms: C_7  and  C_8 
REMARK    2  A    between atoms: N_9  and  N_10 
REMARK       I    between atoms: N_10  and  C_11 
REMARK    3  A    between atoms: C_11  and  C_12 
REMARK    4  A    between atoms: C_12  and  N_13 
REMARK       I    between atoms: N_13  and  C_14 
REMARK    5  A    between atoms: C_14  and  C_15 
REMARK    6  A    between atoms: C_16  and  O_17 
ROOT
HETATM    1  N   UNL     1       7.198  29.814  57.289  1.00  0.00    -0.246 N 
HETATM    2  C   UNL     1       7.748  28.547  57.192  1.00  0.00     0.255 C 
HETATM    3  O   UNL     1       7.966  27.803  58.150  1.00  0.00    -0.270 OA
HETATM    4  H   UNL     1       7.082  30.398  56.465  1.00  0.00     0.192 HD
ENDROOT
BRANCH   1   5
HETATM    5  N   UNL     1       6.894  30.308  58.524  1.00  0.00    -0.184 NA
HETATM    6  C   UNL     1       7.793  31.045  59.089  1.00  0.00     0.153 C 
BRANCH   6   7
HETATM    7  C   UNL     1       7.550  31.572  60.421  1.00  0.00     0.018 A 
HETATM    8  C   UNL     1       8.291  31.310  61.569  1.00  0.00     0.018 A 
HETATM    9  C   UNL     1       9.486  30.449  61.790  1.00  0.00     0.069 C 
HETATM   10  N   UNL     1       7.733  32.024  62.600  1.00  0.00    -0.358 N 
HETATM   11  H   UNL     1       8.072  32.028  63.550  1.00  0.00     0.166 HD
HETATM   12  C   UNL     1       6.655  32.751  62.158  1.00  0.00     0.043 A 
HETATM   13  C   UNL     1       6.509  32.484  60.797  1.00  0.00     0.004 A 
HETATM   14  C   UNL     1       5.813  33.622  62.859  1.00  0.00     0.030 A 
HETATM   15  C   UNL     1       5.462  33.128  60.100  1.00  0.00     0.014 A 
HETATM   16  C   UNL     1       4.612  34.005  60.785  1.00  0.00     0.001 A 
HETATM   17  C   UNL     1       4.786  34.246  62.145  1.00  0.00     0.002 A 
ENDBRANCH   6   7
ENDBRANCH   1   5
BRANCH   2  18
HETATM   18  C   UNL     1       8.275  28.186  55.804  1.00  0.00     0.227 C 
BRANCH  18  19
HETATM   19  N   UNL     1       7.448  28.575  54.668  1.00  0.00    -0.348 N 
HETATM   20  C   UNL     1       6.781  27.809  53.751  1.00  0.00     0.254 C 
HETATM   21  O   UNL     1       6.058  28.341  52.915  1.00  0.00    -0.268 OA
HETATM   22  H   UNL     1       7.278  29.569  54.547  1.00  0.00     0.163 HD
BRANCH  20  23
HETATM   23  C   UNL     1       6.972  26.348  53.731  1.00  0.00     0.065 A 
HETATM   24  C   UNL     1       6.348  25.558  54.704  1.00  0.00     0.084 A 
HETATM   25  C   UNL     1       6.508  24.173  54.696  1.00  0.00     0.038 A 
HETATM   26  C   UNL     1       7.330  23.580  53.736  1.00  0.00     0.003 A 
HETATM   27  C   UNL     1       7.986  24.369  52.788  1.00  0.00     0.001 A 
HETATM   28  C   UNL     1       7.816  25.755  52.788  1.00  0.00     0.020 A 
BRANCH  24  29
HETATM   29  O   UNL     1       5.497  26.118  55.623  1.00  0.00    -0.355 OA
HETATM   30  C   UNL     1       5.610  25.422  56.871  1.00  0.00     0.210 C 
ENDBRANCH  24  29
ENDBRANCH  20  23
ENDBRANCH  18  19
ENDBRANCH   2  18
TORSDOF 6
ENDMDL
MODEL 10
REMARK VINA RESULT:      -8.1      1.813      2.664
REMARK  6 active torsions:
REMARK  status: ('A' for Active; 'I' for Inactive)
REMARK    1  A    between atoms: C_7  and  C_8 
REMARK    2  A    between atoms: N_9  and  N_10 
REMARK       I    between atoms: N_10  and  C_11 
REMARK    3  A    between atoms: C_11  and  C_12 
REMARK    4  A    between atoms: C_12  and  N_13 
REMARK       I    between atoms: N_13  and  C_14 
REMARK    5  A    between atoms: C_14  and  C_15 
REMARK    6  A    between atoms: C_16  and  O_17 
ROOT
HETATM    1  N   UNL     1       6.055  28.047  56.785  1.00  0.00    -0.246 N 
HETATM    2  C   UNL     1       5.045  28.981  56.627  1.00  0.00     0.255 C 
HETATM    3  O   UNL     1       4.374  29.121  55.603  1.00  0.00    -0.270 OA
HETATM    4  H   UNL     1       6.604  28.009  57.640  1.00  0.00     0.192 HD
ENDROOT
BRANCH   1   5
HETATM    5  N   UNL     1       6.368  27.232  55.737  1.00  0.00    -0.184 NA
HETATM    6  C   UNL     1       5.964  26.006  55.817  1.00  0.00     0.153 C 
BRANCH   6   7
HETATM    7  C   UNL     1       6.295  25.074  54.752  1.00  0.00     0.018 A 
HETATM    8  C   UNL     1       5.745  25.038  53.475  1.00  0.00     0.018 A 
HETATM    9  C   UNL     1       4.697  25.878  52.835  1.00  0.00     0.069 C 
HETATM   10  N   UNL     1       6.355  24.020  52.786  1.00  0.00    -0.358 N 
HETATM   11  H   UNL     1       6.154  23.768  51.829  1.00  0.00     0.166 HD
HETATM   12  C   UNL     1       7.292  23.395  53.571  1.00  0.00     0.043 A 
HETATM   13  C   UNL     1       7.275  24.028  54.814  1.00  0.00     0.004 A 
HETATM   14  C   UNL     1       8.150  22.331  53.269  1.00  0.00     0.030 A 
HETATM   15  C   UNL     1       8.169  23.570  55.807  1.00  0.00     0.014 A 
HETATM   16  C   UNL     1       9.036  22.508  55.522  1.00  0.00     0.001 A 
HETATM   17  C   UNL     1       9.024  21.898  54.270  1.00  0.00     0.002 A 
ENDBRANCH   6   7
ENDBRANCH   1   5
BRANCH   2  18
HETATM   18  C   UNL     1       4.938  30.001  57.760  1.00  0.00     0.227 C 
BRANCH  18  19
HETATM   19  N   UNL     1       4.952  31.408  57.377  1.00  0.00    -0.348 N 
HETATM   20  C   UNL     1       5.445  32.503  58.035  1.00  0.00     0.254 C 
HETATM   21  O   UNL     1       5.436  33.602  57.491  1.00  0.00    -0.268 OA
HETATM   22  H   UNL     1       4.593  31.633  56.455  1.00  0.00     0.163 HD
BRANCH  20  23
HETATM   23  C   UNL     1       5.936  32.373  59.418  1.00  0.00     0.065 A 
HETATM   24  C   UNL     1       7.238  31.912  59.645  1.00  0.00     0.084 A 
HETATM   25  C   UNL     1       7.726  31.792  60.947  1.00  0.00     0.038 A 
HETATM   26  C   UNL     1       6.893  32.096  62.025  1.00  0.00     0.003 A 
HETATM   27  C   UNL     1       5.580  32.519  61.802  1.00  0.00     0.001 A 
HETATM   28  C   UNL     1       5.096  32.651  60.499  1.00  0.00     0.020 A 
BRANCH  24  29
HETATM   29  O   UNL     1       8.087  31.658  58.598  1.00  0.00    -0.355 OA
HETATM   30  C   UNL     1       8.577  30.314  58.691  1.00  0.00     0.210 C 
ENDBRANCH  24  29
ENDBRANCH  20  23
ENDBRANCH  18  19
ENDBRANCH   2  18
TORSDOF 6
ENDMDL
