MODEL 1
REMARK VINA RESULT:      -9.7      0.000      0.000
REMARK  6 active torsions:
REMARK  status: ('A' for Active; 'I' for Inactive)
REMARK    1  A    between atoms: O_2  and  C_3 
REMARK    2  A    between atoms: C_5  and  N_6 
REMARK    3  A    between atoms: C_7  and  O_8 
REMARK    4  A    between atoms: C_7  and  C_9 
REMARK       I    between atoms: C_9  and  N_10 
REMARK    5  A    between atoms: N_10  and  C_11 
REMARK    6  A    between atoms: C_11  and  C_12 
ROOT
HETATM    1  N   UNL     1       4.737  28.054  51.936  1.00  0.00    -0.254 N 
HETATM    2  C   UNL     1       4.722  26.969  52.934  1.00  0.00     0.256 C 
HETATM    3  C   UNL     1       5.371  27.349  54.252  1.00  0.00     0.034 A 
HETATM    4  C   UNL     1       6.316  28.364  54.249  1.00  0.00     0.048 A 
HETATM    5  N   UNL     1       6.549  29.049  53.069  1.00  0.00    -0.308 N 
HETATM    6  C   UNL     1       5.797  28.955  51.936  1.00  0.00     0.330 C 
HETATM    7  O   UNL     1       6.145  29.655  50.985  1.00  0.00    -0.246 OA
HETATM    8  C   UNL     1       5.137  26.655  55.452  1.00  0.00     0.015 A 
HETATM    9  C   UNL     1       5.833  26.990  56.615  1.00  0.00     0.001 A 
HETATM   10  C   UNL     1       6.783  28.009  56.587  1.00  0.00     0.002 A 
HETATM   11  C   UNL     1       7.032  28.695  55.401  1.00  0.00     0.030 A 
HETATM   12  H   UNL     1       7.260  29.770  53.035  1.00  0.00     0.170 HD
ENDROOT
BRANCH   2  13
HETATM   13  O   UNL     1       3.362  26.658  53.263  1.00  0.00    -0.359 OA
HETATM   14  H   UNL     1       3.057  27.409  53.809  1.00  0.00     0.213 HD
ENDBRANCH   2  13
BRANCH   2  15
HETATM   15  C   UNL     1       5.456  25.681  52.371  1.00  0.00     0.279 C 
HETATM   16  N   UNL     1       6.820  25.602  52.548  1.00  0.00    -0.352 N 
HETATM   17  H   UNL     1       7.330  26.446  52.778  1.00  0.00     0.162 HD
HETATM   18  O   UNL     1       4.800  24.763  51.867  1.00  0.00    -0.268 OA
BRANCH  16  19
HETATM   19  C   UNL     1       7.580  24.479  52.060  1.00  0.00     0.161 C 
BRANCH  19  20
HETATM   20  C   UNL     1       7.712  23.432  53.134  1.00  0.00    -0.040 A 
HETATM   21  C   UNL     1       7.931  22.090  52.788  1.00  0.00     0.010 A 
HETATM   22  C   UNL     1       8.017  21.108  53.778  1.00  0.00     0.024 A 
HETATM   23  C   UNL     1       7.875  21.463  55.118  1.00  0.00     0.034 A 
HETATM   24 CL   UNL     1       7.977  20.253  56.337  1.00  0.00    -0.084 Cl
HETATM   25  C   UNL     1       7.643  22.789  55.476  1.00  0.00     0.024 A 
HETATM   26  C   UNL     1       7.558  23.771  54.486  1.00  0.00     0.010 A 
ENDBRANCH  19  20
ENDBRANCH  16  19
ENDBRANCH   2  15
BRANCH   1  27
HETATM   27  C   UNL     1       3.789  28.057  50.839  1.00  0.00     0.045 A 
HETATM   28  C   UNL     1       4.024  27.275  49.693  1.00  0.00     0.066 A 
HETATM   29  C   UNL     1       3.146  27.264  48.600  1.00  0.00     0.070 A 
HETATM   30  C   UNL     1       2.003  28.055  48.634  1.00  0.00     0.037 A 
HETATM   31  C   UNL     1       1.749  28.847  49.751  1.00  0.00     0.005 A 
HETATM   32  C   UNL     1       2.632  28.850  50.838  1.00  0.00     0.030 A 
BRANCH  29  33
HETATM   33  O   UNL     1       3.530  26.452  47.567  1.00  0.00    -0.356 OA
HETATM   34  C   UNL     1       3.053  25.113  47.585  1.00  0.00     0.210 C 
ENDBRANCH  29  33
ENDBRANCH   1  27
TORSDOF 6
ENDMDL
MODEL 2
REMARK VINA RESULT:      -9.2      1.766      2.161
REMARK  6 active torsions:
REMARK  status: ('A' for Active; 'I' for Inactive)
REMARK    1  A    between atoms: O_2  and  C_3 
REMARK    2  A    between atoms: C_5  and  N_6 
REMARK    3  A    between atoms: C_7  and  O_8 
REMARK    4  A    between atoms: C_7  and  C_9 
REMARK       I    between atoms: C_9  and  N_10 
REMARK    5  A    between atoms: N_10  and  C_11 
REMARK    6  A    between atoms: C_11  and  C_12 
ROOT
HETATM    1  N   UNL     1       4.310  28.801  51.512  1.00  0.00    -0.254 N 
HETATM    2  C   UNL     1       4.586  28.059  52.755  1.00  0.00     0.256 C 
HETATM    3  C   UNL     1       4.353  28.875  54.013  1.00  0.00     0.034 A 
HETATM    4  C   UNL     1       4.429  30.257  53.921  1.00  0.00     0.048 A 
HETATM    5  N   UNL     1       4.614  30.829  52.674  1.00  0.00    -0.308 N 
HETATM    6  C   UNL     1       4.537  30.174  51.482  1.00  0.00     0.330 C 
HETATM    7  O   UNL     1       4.712  30.851  50.469  1.00  0.00    -0.246 OA
HETATM    8  C   UNL     1       4.166  28.297  55.280  1.00  0.00     0.015 A 
HETATM    9  C   UNL     1       4.049  29.099  56.417  1.00  0.00     0.001 A 
HETATM   10  C   UNL     1       4.136  30.485  56.303  1.00  0.00     0.002 A 
HETATM   11  C   UNL     1       4.332  31.068  55.053  1.00  0.00     0.030 A 
HETATM   12  H   UNL     1       4.708  31.835  52.588  1.00  0.00     0.170 HD
ENDROOT
BRANCH   2  13
HETATM   13  O   UNL     1       3.675  26.956  52.851  1.00  0.00    -0.359 OA
HETATM   14  H   UNL     1       4.207  26.221  53.211  1.00  0.00     0.213 HD
ENDBRANCH   2  13
BRANCH   2  15
HETATM   15  C   UNL     1       6.082  27.534  52.773  1.00  0.00     0.279 C 
HETATM   16  N   UNL     1       6.287  26.196  52.519  1.00  0.00    -0.352 N 
HETATM   17  H   UNL     1       5.502  25.561  52.593  1.00  0.00     0.162 HD
HETATM   18  O   UNL     1       7.016  28.327  52.933  1.00  0.00    -0.268 OA
BRANCH  16  19
HETATM   19  C   UNL     1       7.608  25.619  52.528  1.00  0.00     0.161 C 
BRANCH  19  20
HETATM   20  C   UNL     1       7.629  24.376  53.376  1.00  0.00    -0.040 A 
HETATM   21  C   UNL     1       7.920  23.131  52.797  1.00  0.00     0.010 A 
HETATM   22  C   UNL     1       7.905  21.968  53.571  1.00  0.00     0.024 A 
HETATM   23  C   UNL     1       7.590  22.044  54.927  1.00  0.00     0.034 A 
HETATM   24 CL   UNL     1       7.568  20.612  55.880  1.00  0.00    -0.084 Cl
HETATM   25  C   UNL     1       7.286  23.271  55.512  1.00  0.00     0.024 A 
HETATM   26  C   UNL     1       7.302  24.433  54.738  1.00  0.00     0.010 A 
ENDBRANCH  19  20
ENDBRANCH  16  19
ENDBRANCH   2  15
BRANCH   1  27
HETATM   27  C   UNL     1       4.021  28.092  50.281  1.00  0.00     0.045 A 
HETATM   28  C   UNL     1       2.717  28.086  49.752  1.00  0.00     0.066 A 
HETATM   29  C   UNL     1       2.388  27.396  48.577  1.00  0.00     0.070 A 
HETATM   30  C   UNL     1       3.374  26.682  47.905  1.00  0.00     0.037 A 
HETATM   31  C   UNL     1       4.671  26.661  48.410  1.00  0.00     0.005 A 
HETATM   32  C   UNL     1       4.990  27.355  49.584  1.00  0.00     0.030 A 
BRANCH  29  33
HETATM   33  O   UNL     1       1.073  27.491  48.208  1.00  0.00    -0.356 OA
HETATM   34  C   UNL     1       0.775  27.321  46.828  1.00  0.00     0.210 C 
ENDBRANCH  29  33
ENDBRANCH   1  27
TORSDOF 6
ENDMDL
MODEL 3
REMARK VINA RESULT:      -9.1      1.654      1.875
REMARK  6 active torsions:
REMARK  status: ('A' for Active; 'I' for Inactive)
REMARK    1  A    between atoms: O_2  and  C_3 
REMARK    2  A    between atoms: C_5  and  N_6 
REMARK    3  A    between atoms: C_7  and  O_8 
REMARK    4  A    between atoms: C_7  and  C_9 
REMARK       I    between atoms: C_9  and  N_10 
REMARK    5  A    between atoms: N_10  and  C_11 
REMARK    6  A    between atoms: C_11  and  C_12 
ROOT
HETATM    1  N   UNL     1       3.948  29.248  52.250  1.00  0.00    -0.254 N 
HETATM    2  C   UNL     1       4.396  28.290  53.277  1.00  0.00     0.256 C 
HETATM    3  C   UNL     1       4.498  28.894  54.665  1.00  0.00     0.034 A 
HETATM    4  C   UNL     1       4.684  30.264  54.773  1.00  0.00     0.048 A 
HETATM    5  N   UNL     1       4.669  31.027  53.618  1.00  0.00    -0.308 N 
HETATM    6  C   UNL     1       4.292  30.590  52.383  1.00  0.00     0.330 C 
HETATM    7  O   UNL     1       4.325  31.417  51.472  1.00  0.00    -0.246 OA
HETATM    8  C   UNL     1       4.514  28.121  55.840  1.00  0.00     0.015 A 
HETATM    9  C   UNL     1       4.704  28.725  57.085  1.00  0.00     0.001 A 
HETATM   10  C   UNL     1       4.896  30.102  57.169  1.00  0.00     0.002 A 
HETATM   11  C   UNL     1       4.893  30.876  56.010  1.00  0.00     0.030 A 
HETATM   12  H   UNL     1       4.838  32.025  53.669  1.00  0.00     0.170 HD
ENDROOT
BRANCH   2  13
HETATM   13  O   UNL     1       3.422  27.244  53.394  1.00  0.00    -0.359 OA
HETATM   14  H   UNL     1       3.792  26.631  54.059  1.00  0.00     0.213 HD
ENDBRANCH   2  13
BRANCH   2  15
HETATM   15  C   UNL     1       5.809  27.681  52.896  1.00  0.00     0.279 C 
HETATM   16  N   UNL     1       5.879  26.319  52.699  1.00  0.00    -0.352 N 
HETATM   17  H   UNL     1       5.128  25.738  53.049  1.00  0.00     0.162 HD
HETATM   18  O   UNL     1       6.777  28.426  52.711  1.00  0.00    -0.268 OA
BRANCH  16  19
HETATM   19  C   UNL     1       7.120  25.667  52.363  1.00  0.00     0.161 C 
BRANCH  19  20
HETATM   20  C   UNL     1       7.335  24.468  53.248  1.00  0.00    -0.040 A 
HETATM   21  C   UNL     1       7.822  23.269  52.705  1.00  0.00     0.010 A 
HETATM   22  C   UNL     1       7.989  22.142  53.513  1.00  0.00     0.024 A 
HETATM   23  C   UNL     1       7.661  22.206  54.866  1.00  0.00     0.034 A 
HETATM   24 CL   UNL     1       7.863  20.817  55.861  1.00  0.00    -0.084 Cl
HETATM   25  C   UNL     1       7.163  23.385  55.415  1.00  0.00     0.024 A 
HETATM   26  C   UNL     1       6.997  24.512  54.608  1.00  0.00     0.010 A 
ENDBRANCH  19  20
ENDBRANCH  16  19
ENDBRANCH   2  15
BRANCH   1  27
HETATM   27  C   UNL     1       3.353  28.776  51.015  1.00  0.00     0.045 A 
HETATM   28  C   UNL     1       4.140  28.119  50.051  1.00  0.00     0.066 A 
HETATM   29  C   UNL     1       3.611  27.666  48.834  1.00  0.00     0.070 A 
HETATM   30  C   UNL     1       2.266  27.874  48.554  1.00  0.00     0.037 A 
HETATM   31  C   UNL     1       1.464  28.529  49.486  1.00  0.00     0.005 A 
HETATM   32  C   UNL     1       2.002  28.977  50.699  1.00  0.00     0.030 A 
BRANCH  29  33
HETATM   33  O   UNL     1       4.518  27.055  48.010  1.00  0.00    -0.356 OA
HETATM   34  C   UNL     1       5.439  27.894  47.326  1.00  0.00     0.210 C 
ENDBRANCH  29  33
ENDBRANCH   1  27
TORSDOF 6
ENDMDL
MODEL 4
REMARK VINA RESULT:      -9.1      2.234      5.783
REMARK  6 active torsions:
REMARK  status: ('A' for Active; 'I' for Inactive)
REMARK    1  A    between atoms: O_2  and  C_3 
REMARK    2  A    between atoms: C_5  and  N_6 
REMARK    3  A    between atoms: C_7  and  O_8 
REMARK    4  A    between atoms: C_7  and  C_9 
REMARK       I    between atoms: C_9  and  N_10 
REMARK    5  A    between atoms: N_10  and  C_11 
REMARK    6  A    between atoms: C_11  and  C_12 
ROOT
HETATM    1  N   UNL     1       5.530  28.562  54.681  1.00  0.00    -0.254 N 
HETATM    2  C   UNL     1       5.867  28.289  53.272  1.00  0.00     0.256 C 
HETATM    3  C   UNL     1       5.148  29.196  52.291  1.00  0.00     0.034 A 
HETATM    4  C   UNL     1       3.951  29.773  52.686  1.00  0.00     0.048 A 
HETATM    5  N   UNL     1       3.518  29.576  53.986  1.00  0.00    -0.308 N 
HETATM    6  C   UNL     1       4.254  29.024  54.992  1.00  0.00     0.330 C 
HETATM    7  O   UNL     1       3.710  28.945  56.093  1.00  0.00    -0.246 OA
HETATM    8  C   UNL     1       5.585  29.397  50.969  1.00  0.00     0.015 A 
HETATM    9  C   UNL     1       4.832  30.168  50.081  1.00  0.00     0.001 A 
HETATM   10  C   UNL     1       3.628  30.733  50.498  1.00  0.00     0.002 A 
HETATM   11  C   UNL     1       3.181  30.531  51.802  1.00  0.00     0.030 A 
HETATM   12  H   UNL     1       2.630  29.959  54.287  1.00  0.00     0.170 HD
ENDROOT
BRANCH   2  13
HETATM   13  O   UNL     1       7.262  28.549  53.069  1.00  0.00    -0.359 OA
HETATM   14  H   UNL     1       7.290  29.317  52.467  1.00  0.00     0.213 HD
ENDBRANCH   2  13
BRANCH   2  15
HETATM   15  C   UNL     1       5.530  26.786  52.898  1.00  0.00     0.279 C 
HETATM   16  N   UNL     1       6.591  25.926  52.715  1.00  0.00    -0.352 N 
HETATM   17  H   UNL     1       7.513  26.316  52.565  1.00  0.00     0.162 HD
HETATM   18  O   UNL     1       4.356  26.404  52.854  1.00  0.00    -0.268 OA
BRANCH  16  19
HETATM   19  C   UNL     1       6.391  24.544  52.359  1.00  0.00     0.161 C 
BRANCH  19  20
HETATM   20  C   UNL     1       7.080  23.644  53.350  1.00  0.00    -0.040 A 
HETATM   21  C   UNL     1       7.895  22.594  52.901  1.00  0.00     0.010 A 
HETATM   22  C   UNL     1       8.508  21.733  53.814  1.00  0.00     0.024 A 
HETATM   23  C   UNL     1       8.302  21.913  55.180  1.00  0.00     0.034 A 
HETATM   24 CL   UNL     1       9.054  20.851  56.306  1.00  0.00    -0.084 Cl
HETATM   25  C   UNL     1       7.485  22.944  55.640  1.00  0.00     0.024 A 
HETATM   26  C   UNL     1       6.872  23.805  54.727  1.00  0.00     0.010 A 
ENDBRANCH  19  20
ENDBRANCH  16  19
ENDBRANCH   2  15
BRANCH   1  27
HETATM   27  C   UNL     1       6.426  28.152  55.744  1.00  0.00     0.045 A 
HETATM   28  C   UNL     1       7.438  29.019  56.196  1.00  0.00     0.066 A 
HETATM   29  C   UNL     1       8.340  28.656  57.206  1.00  0.00     0.070 A 
HETATM   30  C   UNL     1       8.248  27.394  57.784  1.00  0.00     0.037 A 
HETATM   31  C   UNL     1       7.262  26.511  57.350  1.00  0.00     0.005 A 
HETATM   32  C   UNL     1       6.365  26.884  56.341  1.00  0.00     0.030 A 
BRANCH  29  33
HETATM   33  O   UNL     1       9.264  29.616  57.519  1.00  0.00    -0.356 OA
HETATM   34  C   UNL     1      10.436  29.672  56.717  1.00  0.00     0.210 C 
ENDBRANCH  29  33
ENDBRANCH   1  27
TORSDOF 6
ENDMDL
MODEL 5
REMARK VINA RESULT:      -9.0      4.223      7.364
REMARK  6 active torsions:
REMARK  status: ('A' for Active; 'I' for Inactive)
REMARK    1  A    between atoms: O_2  and  C_3 
REMARK    2  A    between atoms: C_5  and  N_6 
REMARK    3  A    between atoms: C_7  and  O_8 
REMARK    4  A    between atoms: C_7  and  C_9 
REMARK       I    between atoms: C_9  and  N_10 
REMARK    5  A    between atoms: N_10  and  C_11 
REMARK    6  A    between atoms: C_11  and  C_12 
ROOT
HETATM    1  N   UNL     1       5.692  28.131  55.041  1.00  0.00    -0.254 N 
HETATM    2  C   UNL     1       6.836  27.914  54.138  1.00  0.00     0.256 C 
HETATM    3  C   UNL     1       7.002  26.468  53.708  1.00  0.00     0.034 A 
HETATM    4  C   UNL     1       6.483  25.476  54.526  1.00  0.00     0.048 A 
HETATM    5  N   UNL     1       5.752  25.852  55.640  1.00  0.00    -0.308 N 
HETATM    6  C   UNL     1       5.321  27.115  55.917  1.00  0.00     0.330 C 
HETATM    7  O   UNL     1       4.666  27.259  56.949  1.00  0.00    -0.246 OA
HETATM    8  C   UNL     1       7.745  26.083  52.577  1.00  0.00     0.015 A 
HETATM    9  C   UNL     1       7.942  24.733  52.283  1.00  0.00     0.001 A 
HETATM   10  C   UNL     1       7.417  23.753  53.122  1.00  0.00     0.002 A 
HETATM   11  C   UNL     1       6.689  24.123  54.252  1.00  0.00     0.030 A 
HETATM   12  H   UNL     1       5.392  25.145  56.271  1.00  0.00     0.170 HD
ENDROOT
BRANCH   2  13
HETATM   13  O   UNL     1       6.616  28.642  52.923  1.00  0.00    -0.359 OA
HETATM   14  H   UNL     1       6.413  27.960  52.254  1.00  0.00     0.213 HD
ENDBRANCH   2  13
BRANCH   2  15
HETATM   15  C   UNL     1       8.186  28.387  54.822  1.00  0.00     0.279 C 
HETATM   16  N   UNL     1       8.333  28.141  56.169  1.00  0.00    -0.352 N 
HETATM   17  H   UNL     1       7.510  27.920  56.716  1.00  0.00     0.162 HD
HETATM   18  O   UNL     1       9.087  28.884  54.139  1.00  0.00    -0.268 OA
BRANCH  16  19
HETATM   19  C   UNL     1       9.517  28.545  56.886  1.00  0.00     0.161 C 
BRANCH  19  20
HETATM   20  C   UNL     1       9.191  29.661  57.843  1.00  0.00    -0.040 A 
HETATM   21  C   UNL     1      10.084  30.731  58.008  1.00  0.00     0.010 A 
HETATM   22  C   UNL     1       9.805  31.751  58.921  1.00  0.00     0.024 A 
HETATM   23  C   UNL     1       8.637  31.701  59.679  1.00  0.00     0.034 A 
HETATM   24 CL   UNL     1       8.295  32.955  60.806  1.00  0.00    -0.084 Cl
HETATM   25  C   UNL     1       7.748  30.638  59.535  1.00  0.00     0.024 A 
HETATM   26  C   UNL     1       8.027  29.619  58.622  1.00  0.00     0.010 A 
ENDBRANCH  19  20
ENDBRANCH  16  19
ENDBRANCH   2  15
BRANCH   1  27
HETATM   27  C   UNL     1       5.101  29.448  55.175  1.00  0.00     0.045 A 
HETATM   28  C   UNL     1       5.648  30.387  56.069  1.00  0.00     0.066 A 
HETATM   29  C   UNL     1       5.097  31.663  56.246  1.00  0.00     0.070 A 
HETATM   30  C   UNL     1       3.964  32.024  55.525  1.00  0.00     0.037 A 
HETATM   31  C   UNL     1       3.395  31.113  54.639  1.00  0.00     0.005 A 
HETATM   32  C   UNL     1       3.954  29.840  54.469  1.00  0.00     0.030 A 
BRANCH  29  33
HETATM   33  O   UNL     1       5.751  32.446  57.159  1.00  0.00    -0.356 OA
HETATM   34  C   UNL     1       5.015  32.856  58.304  1.00  0.00     0.210 C 
ENDBRANCH  29  33
ENDBRANCH   1  27
TORSDOF 6
ENDMDL
MODEL 6
REMARK VINA RESULT:      -8.5      4.542      7.785
REMARK  6 active torsions:
REMARK  status: ('A' for Active; 'I' for Inactive)
REMARK    1  A    between atoms: O_2  and  C_3 
REMARK    2  A    between atoms: C_5  and  N_6 
REMARK    3  A    between atoms: C_7  and  O_8 
REMARK    4  A    between atoms: C_7  and  C_9 
REMARK       I    between atoms: C_9  and  N_10 
REMARK    5  A    between atoms: N_10  and  C_11 
REMARK    6  A    between atoms: C_11  and  C_12 
ROOT
HETATM    1  N   UNL     1       6.001  27.581  55.195  1.00  0.00    -0.254 N 
HETATM    2  C   UNL     1       5.691  28.056  56.555  1.00  0.00     0.256 C 
HETATM    3  C   UNL     1       4.827  29.304  56.579  1.00  0.00     0.034 A 
HETATM    4  C   UNL     1       4.846  30.137  55.471  1.00  0.00     0.048 A 
HETATM    5  N   UNL     1       5.571  29.743  54.359  1.00  0.00    -0.308 N 
HETATM    6  C   UNL     1       6.122  28.512  54.167  1.00  0.00     0.330 C 
HETATM    7  O   UNL     1       6.720  28.335  53.105  1.00  0.00    -0.246 OA
HETATM    8  C   UNL     1       4.090  29.706  57.707  1.00  0.00     0.015 A 
HETATM    9  C   UNL     1       3.386  30.913  57.703  1.00  0.00     0.001 A 
HETATM   10  C   UNL     1       3.425  31.737  56.580  1.00  0.00     0.002 A 
HETATM   11  C   UNL     1       4.162  31.353  55.461  1.00  0.00     0.030 A 
HETATM   12  H   UNL     1       5.628  30.352  53.551  1.00  0.00     0.170 HD
ENDROOT
BRANCH   2  13
HETATM   13  O   UNL     1       4.922  27.056  57.234  1.00  0.00    -0.359 OA
HETATM   14  H   UNL     1       4.018  27.422  57.282  1.00  0.00     0.213 HD
ENDBRANCH   2  13
BRANCH   2  15
HETATM   15  C   UNL     1       7.023  28.360  57.359  1.00  0.00     0.279 C 
HETATM   16  N   UNL     1       7.541  29.634  57.269  1.00  0.00    -0.352 N 
HETATM   17  H   UNL     1       7.226  30.234  56.517  1.00  0.00     0.162 HD
HETATM   18  O   UNL     1       7.517  27.497  58.092  1.00  0.00    -0.268 OA
BRANCH  16  19
HETATM   19  C   UNL     1       8.755  30.006  57.950  1.00  0.00     0.161 C 
BRANCH  19  20
HETATM   20  C   UNL     1       8.434  30.730  59.230  1.00  0.00    -0.040 A 
HETATM   21  C   UNL     1       7.293  31.541  59.315  1.00  0.00     0.010 A 
HETATM   22  C   UNL     1       7.009  32.244  60.488  1.00  0.00     0.024 A 
HETATM   23  C   UNL     1       7.871  32.146  61.579  1.00  0.00     0.034 A 
HETATM   24 CL   UNL     1       7.524  33.015  63.023  1.00  0.00    -0.084 Cl
HETATM   25  C   UNL     1       9.015  31.355  61.504  1.00  0.00     0.024 A 
HETATM   26  C   UNL     1       9.298  30.652  60.332  1.00  0.00     0.010 A 
ENDBRANCH  19  20
ENDBRANCH  16  19
ENDBRANCH   2  15
BRANCH   1  27
HETATM   27  C   UNL     1       6.389  26.203  54.969  1.00  0.00     0.045 A 
HETATM   28  C   UNL     1       7.477  25.646  55.667  1.00  0.00     0.066 A 
HETATM   29  C   UNL     1       7.900  24.325  55.464  1.00  0.00     0.070 A 
HETATM   30  C   UNL     1       7.237  23.529  54.537  1.00  0.00     0.037 A 
HETATM   31  C   UNL     1       6.162  24.056  53.825  1.00  0.00     0.005 A 
HETATM   32  C   UNL     1       5.746  25.377  54.036  1.00  0.00     0.030 A 
BRANCH  29  33
HETATM   33  O   UNL     1       8.977  23.948  56.221  1.00  0.00    -0.356 OA
HETATM   34  C   UNL     1       9.010  24.400  57.568  1.00  0.00     0.210 C 
ENDBRANCH  29  33
ENDBRANCH   1  27
TORSDOF 6
ENDMDL
MODEL 7
REMARK VINA RESULT:      -8.0      3.176      6.537
REMARK  6 active torsions:
REMARK  status: ('A' for Active; 'I' for Inactive)
REMARK    1  A    between atoms: O_2  and  C_3 
REMARK    2  A    between atoms: C_5  and  N_6 
REMARK    3  A    between atoms: C_7  and  O_8 
REMARK    4  A    between atoms: C_7  and  C_9 
REMARK       I    between atoms: C_9  and  N_10 
REMARK    5  A    between atoms: N_10  and  C_11 
REMARK    6  A    between atoms: C_11  and  C_12 
ROOT
HETATM    1  N   UNL     1       7.172  26.240  55.624  1.00  0.00    -0.254 N 
HETATM    2  C   UNL     1       7.544  27.584  55.148  1.00  0.00     0.256 C 
HETATM    3  C   UNL     1       8.094  28.483  56.241  1.00  0.00     0.034 A 
HETATM    4  C   UNL     1       7.735  28.215  57.553  1.00  0.00     0.048 A 
HETATM    5  N   UNL     1       6.978  27.086  57.816  1.00  0.00    -0.308 N 
HETATM    6  C   UNL     1       6.703  26.091  56.926  1.00  0.00     0.330 C 
HETATM    7  O   UNL     1       6.026  25.151  57.343  1.00  0.00    -0.246 OA
HETATM    8  C   UNL     1       8.863  29.630  55.977  1.00  0.00     0.015 A 
HETATM    9  C   UNL     1       9.264  30.472  57.017  1.00  0.00     0.001 A 
HETATM   10  C   UNL     1       8.886  30.186  58.328  1.00  0.00     0.002 A 
HETATM   11  C   UNL     1       8.115  29.058  58.599  1.00  0.00     0.030 A 
HETATM   12  H   UNL     1       6.675  26.889  58.763  1.00  0.00     0.170 HD
ENDROOT
BRANCH   2  13
HETATM   13  O   UNL     1       8.606  27.464  54.194  1.00  0.00    -0.359 OA
HETATM   14  H   UNL     1       9.390  27.837  54.641  1.00  0.00     0.213 HD
ENDBRANCH   2  13
BRANCH   2  15
HETATM   15  C   UNL     1       6.297  28.310  54.490  1.00  0.00     0.279 C 
HETATM   16  N   UNL     1       6.342  28.540  53.132  1.00  0.00    -0.352 N 
HETATM   17  H   UNL     1       7.237  28.488  52.660  1.00  0.00     0.162 HD
HETATM   18  O   UNL     1       5.302  28.578  55.172  1.00  0.00    -0.268 OA
BRANCH  16  19
HETATM   19  C   UNL     1       5.266  29.205  52.443  1.00  0.00     0.161 C 
BRANCH  19  20
HETATM   20  C   UNL     1       4.826  28.391  51.255  1.00  0.00    -0.040 A 
HETATM   21  C   UNL     1       3.786  28.849  50.432  1.00  0.00     0.010 A 
HETATM   22  C   UNL     1       3.348  28.081  49.350  1.00  0.00     0.024 A 
HETATM   23  C   UNL     1       3.942  26.847  49.092  1.00  0.00     0.034 A 
HETATM   24 CL   UNL     1       3.401  25.900  47.762  1.00  0.00    -0.084 Cl
HETATM   25  C   UNL     1       4.966  26.373  49.909  1.00  0.00     0.024 A 
HETATM   26  C   UNL     1       5.404  27.142  50.990  1.00  0.00     0.010 A 
ENDBRANCH  19  20
ENDBRANCH  16  19
ENDBRANCH   2  15
BRANCH   1  27
HETATM   27  C   UNL     1       7.083  25.131  54.695  1.00  0.00     0.045 A 
HETATM   28  C   UNL     1       8.039  24.098  54.727  1.00  0.00     0.066 A 
HETATM   29  C   UNL     1       8.005  23.017  53.834  1.00  0.00     0.070 A 
HETATM   30  C   UNL     1       7.001  22.956  52.874  1.00  0.00     0.037 A 
HETATM   31  C   UNL     1       6.047  23.968  52.813  1.00  0.00     0.005 A 
HETATM   32  C   UNL     1       6.089  25.043  53.710  1.00  0.00     0.030 A 
BRANCH  29  33
HETATM   33  O   UNL     1       9.014  22.107  54.001  1.00  0.00    -0.356 OA
HETATM   34  C   UNL     1       8.844  20.835  53.389  1.00  0.00     0.210 C 
ENDBRANCH  29  33
ENDBRANCH   1  27
TORSDOF 6
ENDMDL
MODEL 8
REMARK VINA RESULT:      -7.8      2.917      5.660
REMARK  6 active torsions:
REMARK  status: ('A' for Active; 'I' for Inactive)
REMARK    1  A    between atoms: O_2  and  C_3 
REMARK    2  A    between atoms: C_5  and  N_6 
REMARK    3  A    between atoms: C_7  and  O_8 
REMARK    4  A    between atoms: C_7  and  C_9 
REMARK       I    between atoms: C_9  and  N_10 
REMARK    5  A    between atoms: N_10  and  C_11 
REMARK    6  A    between atoms: C_11  and  C_12 
ROOT
HETATM    1  N   UNL     1       3.642  30.157  49.884  1.00  0.00    -0.254 N 
HETATM    2  C   UNL     1       4.311  28.848  49.982  1.00  0.00     0.256 C 
HETATM    3  C   UNL     1       3.720  27.795  49.062  1.00  0.00     0.034 A 
HETATM    4  C   UNL     1       2.404  27.946  48.653  1.00  0.00     0.048 A 
HETATM    5  N   UNL     1       1.724  29.095  49.018  1.00  0.00    -0.308 N 
HETATM    6  C   UNL     1       2.283  30.200  49.587  1.00  0.00     0.330 C 
HETATM    7  O   UNL     1       1.524  31.138  49.829  1.00  0.00    -0.246 OA
HETATM    8  C   UNL     1       4.408  26.627  48.690  1.00  0.00     0.015 A 
HETATM    9  C   UNL     1       3.781  25.648  47.917  1.00  0.00     0.001 A 
HETATM   10  C   UNL     1       2.455  25.817  47.522  1.00  0.00     0.002 A 
HETATM   11  C   UNL     1       1.760  26.966  47.895  1.00  0.00     0.030 A 
HETATM   12  H   UNL     1       0.751  29.210  48.759  1.00  0.00     0.170 HD
ENDROOT
BRANCH   2  13
HETATM   13  O   UNL     1       5.674  28.988  49.563  1.00  0.00    -0.359 OA
HETATM   14  H   UNL     1       5.630  29.498  48.731  1.00  0.00     0.213 HD
ENDBRANCH   2  13
BRANCH   2  15
HETATM   15  C   UNL     1       4.250  28.299  51.468  1.00  0.00     0.279 C 
HETATM   16  N   UNL     1       5.368  27.655  51.952  1.00  0.00    -0.352 N 
HETATM   17  H   UNL     1       6.063  27.327  51.293  1.00  0.00     0.162 HD
HETATM   18  O   UNL     1       3.259  28.519  52.172  1.00  0.00    -0.268 OA
BRANCH  16  19
HETATM   19  C   UNL     1       5.408  27.108  53.285  1.00  0.00     0.161 C 
BRANCH  19  20
HETATM   20  C   UNL     1       6.231  25.847  53.307  1.00  0.00    -0.040 A 
HETATM   21  C   UNL     1       7.118  25.566  52.257  1.00  0.00     0.010 A 
HETATM   22  C   UNL     1       7.858  24.381  52.253  1.00  0.00     0.024 A 
HETATM   23  C   UNL     1       7.706  23.467  53.294  1.00  0.00     0.034 A 
HETATM   24 CL   UNL     1       8.614  22.006  53.288  1.00  0.00    -0.084 Cl
HETATM   25  C   UNL     1       6.818  23.727  54.336  1.00  0.00     0.024 A 
HETATM   26  C   UNL     1       6.080  24.913  54.340  1.00  0.00     0.010 A 
ENDBRANCH  19  20
ENDBRANCH  16  19
ENDBRANCH   2  15
BRANCH   1  27
HETATM   27  C   UNL     1       4.326  31.365  50.302  1.00  0.00     0.045 A 
HETATM   28  C   UNL     1       5.156  32.061  49.403  1.00  0.00     0.066 A 
HETATM   29  C   UNL     1       5.853  33.220  49.771  1.00  0.00     0.070 A 
HETATM   30  C   UNL     1       5.736  33.706  51.068  1.00  0.00     0.037 A 
HETATM   31  C   UNL     1       4.929  33.033  51.982  1.00  0.00     0.005 A 
HETATM   32  C   UNL     1       4.236  31.876  51.605  1.00  0.00     0.030 A 
BRANCH  29  33
HETATM   33  O   UNL     1       6.619  33.766  48.776  1.00  0.00    -0.356 OA
HETATM   34  C   UNL     1       6.983  35.133  48.916  1.00  0.00     0.210 C 
ENDBRANCH  29  33
ENDBRANCH   1  27
TORSDOF 6
ENDMDL
MODEL 9
REMARK VINA RESULT:      -7.7      3.642      4.811
REMARK  6 active torsions:
REMARK  status: ('A' for Active; 'I' for Inactive)
REMARK    1  A    between atoms: O_2  and  C_3 
REMARK    2  A    between atoms: C_5  and  N_6 
REMARK    3  A    between atoms: C_7  and  O_8 
REMARK    4  A    between atoms: C_7  and  C_9 
REMARK       I    between atoms: C_9  and  N_10 
REMARK    5  A    between atoms: N_10  and  C_11 
REMARK    6  A    between atoms: C_11  and  C_12 
ROOT
HETATM    1  N   UNL     1       4.003  29.341  50.865  1.00  0.00    -0.254 N 
HETATM    2  C   UNL     1       3.723  29.188  52.303  1.00  0.00     0.256 C 
HETATM    3  C   UNL     1       3.682  30.506  53.056  1.00  0.00     0.034 A 
HETATM    4  C   UNL     1       4.376  31.584  52.528  1.00  0.00     0.048 A 
HETATM    5  N   UNL     1       4.989  31.439  51.295  1.00  0.00    -0.308 N 
HETATM    6  C   UNL     1       4.816  30.389  50.443  1.00  0.00     0.330 C 
HETATM    7  O   UNL     1       5.430  30.438  49.377  1.00  0.00    -0.246 OA
HETATM    8  C   UNL     1       3.062  30.656  54.308  1.00  0.00     0.015 A 
HETATM    9  C   UNL     1       3.137  31.869  54.998  1.00  0.00     0.001 A 
HETATM   10  C   UNL     1       3.845  32.937  54.452  1.00  0.00     0.002 A 
HETATM   11  C   UNL     1       4.473  32.795  53.216  1.00  0.00     0.030 A 
HETATM   12  H   UNL     1       5.530  32.202  50.906  1.00  0.00     0.170 HD
ENDROOT
BRANCH   2  13
HETATM   13  O   UNL     1       2.415  28.625  52.466  1.00  0.00    -0.359 OA
HETATM   14  H   UNL     1       1.835  29.166  51.896  1.00  0.00     0.213 HD
ENDBRANCH   2  13
BRANCH   2  15
HETATM   15  C   UNL     1       4.808  28.258  52.989  1.00  0.00     0.279 C 
HETATM   16  N   UNL     1       5.959  28.860  53.448  1.00  0.00    -0.352 N 
HETATM   17  H   UNL     1       6.191  29.786  53.111  1.00  0.00     0.162 HD
HETATM   18  O   UNL     1       4.575  27.057  53.165  1.00  0.00    -0.268 OA
BRANCH  16  19
HETATM   19  C   UNL     1       7.012  28.099  54.073  1.00  0.00     0.161 C 
BRANCH  19  20
HETATM   20  C   UNL     1       7.323  28.661  55.435  1.00  0.00    -0.040 A 
HETATM   21  C   UNL     1       8.433  28.192  56.154  1.00  0.00     0.010 A 
HETATM   22  C   UNL     1       8.706  28.683  57.434  1.00  0.00     0.024 A 
HETATM   23  C   UNL     1       7.866  29.638  58.002  1.00  0.00     0.034 A 
HETATM   24 CL   UNL     1       8.200  30.240  59.579  1.00  0.00    -0.084 Cl
HETATM   25  C   UNL     1       6.753  30.102  57.305  1.00  0.00     0.024 A 
HETATM   26  C   UNL     1       6.480  29.612  56.026  1.00  0.00     0.010 A 
ENDBRANCH  19  20
ENDBRANCH  16  19
ENDBRANCH   2  15
BRANCH   1  27
HETATM   27  C   UNL     1       3.627  28.300  49.928  1.00  0.00     0.045 A 
HETATM   28  C   UNL     1       2.390  28.359  49.259  1.00  0.00     0.066 A 
HETATM   29  C   UNL     1       1.976  27.364  48.362  1.00  0.00     0.070 A 
HETATM   30  C   UNL     1       2.803  26.272  48.122  1.00  0.00     0.037 A 
HETATM   31  C   UNL     1       4.028  26.183  48.777  1.00  0.00     0.005 A 
HETATM   32  C   UNL     1       4.433  27.182  49.671  1.00  0.00     0.030 A 
BRANCH  29  33
HETATM   33  O   UNL     1       0.743  27.575  47.805  1.00  0.00    -0.356 OA
HETATM   34  C   UNL     1       0.602  27.288  46.420  1.00  0.00     0.210 C 
ENDBRANCH  29  33
ENDBRANCH   1  27
TORSDOF 6
ENDMDL
MODEL 10
REMARK VINA RESULT:      -7.7      3.338      6.160
REMARK  6 active torsions:
REMARK  status: ('A' for Active; 'I' for Inactive)
REMARK    1  A    between atoms: O_2  and  C_3 
REMARK    2  A    between atoms: C_5  and  N_6 
REMARK    3  A    between atoms: C_7  and  O_8 
REMARK    4  A    between atoms: C_7  and  C_9 
REMARK       I    between atoms: C_9  and  N_10 
REMARK    5  A    between atoms: N_10  and  C_11 
REMARK    6  A    between atoms: C_11  and  C_12 
ROOT
HETATM    1  N   UNL     1       5.277  28.506  51.708  1.00  0.00    -0.254 N 
HETATM    2  C   UNL     1       6.001  28.166  52.946  1.00  0.00     0.256 C 
HETATM    3  C   UNL     1       6.317  26.688  53.077  1.00  0.00     0.034 A 
HETATM    4  C   UNL     1       5.520  25.783  52.392  1.00  0.00     0.048 A 
HETATM    5  N   UNL     1       4.540  26.272  51.545  1.00  0.00    -0.308 N 
HETATM    6  C   UNL     1       4.400  27.573  51.161  1.00  0.00     0.330 C 
HETATM    7  O   UNL     1       3.478  27.822  50.386  1.00  0.00    -0.246 OA
HETATM    8  C   UNL     1       7.311  26.188  53.936  1.00  0.00     0.015 A 
HETATM    9  C   UNL     1       7.495  24.812  54.086  1.00  0.00     0.001 A 
HETATM   10  C   UNL     1       6.678  23.921  53.393  1.00  0.00     0.002 A 
HETATM   11  C   UNL     1       5.683  24.406  52.547  1.00  0.00     0.030 A 
HETATM   12  H   UNL     1       3.923  25.631  51.061  1.00  0.00     0.170 HD
ENDROOT
BRANCH   2  13
HETATM   13  O   UNL     1       7.275  28.822  52.935  1.00  0.00    -0.359 OA
HETATM   14  H   UNL     1       7.089  29.738  53.218  1.00  0.00     0.213 HD
ENDBRANCH   2  13
BRANCH   2  15
HETATM   15  C   UNL     1       5.169  28.611  54.220  1.00  0.00     0.279 C 
HETATM   16  N   UNL     1       5.763  29.504  55.085  1.00  0.00    -0.352 N 
HETATM   17  H   UNL     1       6.765  29.637  55.032  1.00  0.00     0.162 HD
HETATM   18  O   UNL     1       4.006  28.220  54.371  1.00  0.00    -0.268 OA
BRANCH  16  19
HETATM   19  C   UNL     1       5.095  29.958  56.279  1.00  0.00     0.161 C 
BRANCH  19  20
HETATM   20  C   UNL     1       6.102  30.264  57.355  1.00  0.00    -0.040 A 
HETATM   21  C   UNL     1       7.152  29.370  57.614  1.00  0.00     0.010 A 
HETATM   22  C   UNL     1       8.068  29.631  58.636  1.00  0.00     0.024 A 
HETATM   23  C   UNL     1       7.934  30.782  59.409  1.00  0.00     0.034 A 
HETATM   24 CL   UNL     1       9.060  31.102  60.669  1.00  0.00    -0.084 Cl
HETATM   25  C   UNL     1       6.889  31.673  59.171  1.00  0.00     0.024 A 
HETATM   26  C   UNL     1       5.973  31.412  58.149  1.00  0.00     0.010 A 
ENDBRANCH  19  20
ENDBRANCH  16  19
ENDBRANCH   2  15
BRANCH   1  27
HETATM   27  C   UNL     1       5.304  29.859  51.189  1.00  0.00     0.045 A 
HETATM   28  C   UNL     1       4.570  30.880  51.823  1.00  0.00     0.066 A 
HETATM   29  C   UNL     1       4.550  32.197  51.343  1.00  0.00     0.070 A 
HETATM   30  C   UNL     1       5.269  32.518  50.197  1.00  0.00     0.037 A 
HETATM   31  C   UNL     1       5.997  31.527  49.543  1.00  0.00     0.005 A 
HETATM   32  C   UNL     1       6.011  30.214  50.031  1.00  0.00     0.030 A 
BRANCH  29  33
HETATM   33  O   UNL     1       3.781  33.060  52.076  1.00  0.00    -0.356 OA
HETATM   34  C   UNL     1       2.626  32.521  52.706  1.00  0.00     0.210 C 
ENDBRANCH  29  33
ENDBRANCH   1  27
TORSDOF 6
ENDMDL
