MODEL 1
REMARK VINA RESULT:      -8.7      0.000      0.000
REMARK  7 active torsions:
REMARK  status: ('A' for Active; 'I' for Inactive)
REMARK    1  A    between atoms: C_2  and  C_3 
REMARK    2  A    between atoms: C_6  and  C_7 
REMARK       I    between atoms: C_7  and  N_8 
REMARK    3  A    between atoms: C_14  and  C_15 
REMARK       I    between atoms: C_15  and  N_16 
REMARK    4  A    between atoms: N_16  and  C_17 
REMARK    5  A    between atoms: C_17  and  C_18 
REMARK       I    between atoms: N_25  and  C_26 
REMARK    6  A    between atoms: C_26  and  C_27 
REMARK    7  A    between atoms: C_30  and  O_31 
ROOT
HETATM    1  C   UNL     1       5.009  28.150  54.084  1.00  0.00     0.253 C 
HETATM    2  N   UNL     1       4.300  28.874  53.112  1.00  0.00    -0.348 N 
HETATM    3  C   UNL     1       4.268  28.476  51.705  1.00  0.00     0.131 C 
HETATM    4  C   UNL     1       3.098  29.063  50.949  1.00  0.00     0.081 C 
HETATM    5  C   UNL     1       2.950  30.576  51.112  1.00  0.00     0.142 C 
HETATM    6  O   UNL     1       1.588  30.852  50.652  1.00  0.00    -0.358 OA
HETATM    7  C   UNL     1       1.597  32.102  49.953  1.00  0.00     0.206 C 
HETATM    8  C   UNL     1       2.950  32.147  49.294  1.00  0.00     0.206 C 
HETATM    9  N   UNL     1       3.793  31.417  50.244  1.00  0.00    -0.300 N 
HETATM   10  C   UNL     1       5.154  31.612  50.413  1.00  0.00     0.257 C 
HETATM   11  O   UNL     1       5.853  30.968  51.185  1.00  0.00    -0.267 OA
HETATM   12  C   UNL     1       2.962  30.948  52.601  1.00  0.00     0.081 C 
HETATM   13  C   UNL     1       4.054  30.279  53.428  1.00  0.00     0.131 C 
HETATM   14  O   UNL     1       5.065  28.474  55.267  1.00  0.00    -0.267 OA
ENDROOT
BRANCH   8  15
HETATM   15  C   UNL     1       2.856  31.477  47.903  1.00  0.00     0.243 C 
HETATM   16  N   UNL     1       2.099  30.338  47.863  1.00  0.00    -0.354 N 
HETATM   17  H   UNL     1       1.784  29.939  48.744  1.00  0.00     0.162 HD
HETATM   18  O   UNL     1       3.432  31.929  46.916  1.00  0.00    -0.271 OA
BRANCH  16  19
HETATM   19  C   UNL     1       2.020  29.428  46.740  1.00  0.00     0.181 C 
BRANCH  19  20
HETATM   20  C   UNL     1       2.671  28.106  47.104  1.00  0.00     0.051 A 
HETATM   21  N   UNL     1       1.891  26.989  47.018  1.00  0.00    -0.264 NA
HETATM   22  C   UNL     1       2.444  25.811  47.376  1.00  0.00     0.117 A 
HETATM   23  C   UNL     1       3.752  25.681  47.805  1.00  0.00     0.019 A 
HETATM   24  C   UNL     1       4.541  26.825  47.869  1.00  0.00     0.003 A 
HETATM   25  C   UNL     1       3.998  28.058  47.514  1.00  0.00     0.029 A 
ENDBRANCH  19  20
ENDBRANCH  16  19
ENDBRANCH   8  15
BRANCH  10  26
HETATM   26  C   UNL     1       5.842  32.710  49.697  1.00  0.00     0.032 A 
HETATM   27  C   UNL     1       5.894  33.959  50.325  1.00  0.00     0.020 A 
HETATM   28  C   UNL     1       6.600  35.009  49.731  1.00  0.00     0.038 A 
HETATM   29  C   UNL     1       7.267  34.821  48.517  1.00  0.00     0.068 A 
HETATM   30  C   UNL     1       7.222  33.570  47.899  1.00  0.00     0.038 A 
HETATM   31  C   UNL     1       6.524  32.513  48.496  1.00  0.00     0.020 A 
BRANCH  29  32
HETATM   32  O   UNL     1       7.931  35.922  48.053  1.00  0.00    -0.356 OA
HETATM   33  C   UNL     1       8.520  35.821  46.762  1.00  0.00     0.210 C 
ENDBRANCH  29  32
ENDBRANCH  10  26
BRANCH   1  34
HETATM   34  C   UNL     1       5.742  26.929  53.680  1.00  0.00     0.032 A 
HETATM   35  C   UNL     1       7.113  26.986  53.409  1.00  0.00     0.017 A 
HETATM   36  C   UNL     1       7.793  25.828  53.029  1.00  0.00     0.008 A 
HETATM   37  C   UNL     1       7.118  24.600  52.951  1.00  0.00    -0.059 A 
HETATM   38  C   UNL     1       5.752  24.550  53.265  1.00  0.00     0.008 A 
HETATM   39  C   UNL     1       5.064  25.710  53.632  1.00  0.00     0.017 A 
BRANCH  37  40
HETATM   40  C   UNL     1       7.858  23.348  52.547  1.00  0.00     0.034 C 
HETATM   41  C   UNL     1       7.836  22.284  53.633  1.00  0.00     0.010 C 
ENDBRANCH  37  40
ENDBRANCH   1  34
TORSDOF 7
ENDMDL
MODEL 2
REMARK VINA RESULT:      -7.8      3.180      9.448
REMARK  7 active torsions:
REMARK  status: ('A' for Active; 'I' for Inactive)
REMARK    1  A    between atoms: C_2  and  C_3 
REMARK    2  A    between atoms: C_6  and  C_7 
REMARK       I    between atoms: C_7  and  N_8 
REMARK    3  A    between atoms: C_14  and  C_15 
REMARK       I    between atoms: C_15  and  N_16 
REMARK    4  A    between atoms: N_16  and  C_17 
REMARK    5  A    between atoms: C_17  and  C_18 
REMARK       I    between atoms: N_25  and  C_26 
REMARK    6  A    between atoms: C_26  and  C_27 
REMARK    7  A    between atoms: C_30  and  O_31 
ROOT
HETATM    1  C   UNL     1       2.923  30.289  49.052  1.00  0.00     0.253 C 
HETATM    2  N   UNL     1       3.332  29.983  50.361  1.00  0.00    -0.348 N 
HETATM    3  C   UNL     1       4.649  30.354  50.877  1.00  0.00     0.131 C 
HETATM    4  C   UNL     1       4.706  30.384  52.388  1.00  0.00     0.081 C 
HETATM    5  C   UNL     1       4.172  29.116  53.054  1.00  0.00     0.142 C 
HETATM    6  O   UNL     1       3.955  29.509  54.448  1.00  0.00    -0.358 OA
HETATM    7  C   UNL     1       4.307  28.401  55.285  1.00  0.00     0.206 C 
HETATM    8  C   UNL     1       5.440  27.731  54.554  1.00  0.00     0.206 C 
HETATM    9  N   UNL     1       5.108  27.979  53.150  1.00  0.00    -0.300 N 
HETATM   10  C   UNL     1       5.480  27.171  52.090  1.00  0.00     0.257 C 
HETATM   11  O   UNL     1       5.226  27.411  50.915  1.00  0.00    -0.267 OA
HETATM   12  C   UNL     1       2.781  28.776  52.503  1.00  0.00     0.081 C 
HETATM   13  C   UNL     1       2.647  28.855  50.987  1.00  0.00     0.131 C 
HETATM   14  O   UNL     1       1.830  29.974  48.590  1.00  0.00    -0.267 OA
ENDROOT
BRANCH   8  15
HETATM   15  C   UNL     1       6.776  28.371  55.001  1.00  0.00     0.243 C 
HETATM   16  N   UNL     1       6.785  28.845  56.285  1.00  0.00    -0.354 N 
HETATM   17  H   UNL     1       5.905  28.880  56.791  1.00  0.00     0.162 HD
HETATM   18  O   UNL     1       7.745  28.458  54.252  1.00  0.00    -0.271 OA
BRANCH  16  19
HETATM   19  C   UNL     1       7.834  29.656  56.866  1.00  0.00     0.181 C 
BRANCH  19  20
HETATM   20  C   UNL     1       7.239  30.616  57.880  1.00  0.00     0.051 A 
HETATM   21  N   UNL     1       5.961  31.040  57.654  1.00  0.00    -0.264 NA
HETATM   22  C   UNL     1       5.432  31.924  58.525  1.00  0.00     0.117 A 
HETATM   23  C   UNL     1       6.109  32.404  59.632  1.00  0.00     0.019 A 
HETATM   24  C   UNL     1       7.403  31.948  59.861  1.00  0.00     0.003 A 
HETATM   25  C   UNL     1       7.982  31.041  58.976  1.00  0.00     0.029 A 
ENDBRANCH  19  20
ENDBRANCH  16  19
ENDBRANCH   8  15
BRANCH  10  26
HETATM   26  C   UNL     1       6.160  25.880  52.341  1.00  0.00     0.032 A 
HETATM   27  C   UNL     1       7.534  25.813  52.091  1.00  0.00     0.020 A 
HETATM   28  C   UNL     1       8.241  24.644  52.387  1.00  0.00     0.038 A 
HETATM   29  C   UNL     1       7.588  23.540  52.943  1.00  0.00     0.068 A 
HETATM   30  C   UNL     1       6.219  23.615  53.202  1.00  0.00     0.038 A 
HETATM   31  C   UNL     1       5.510  24.787  52.915  1.00  0.00     0.020 A 
BRANCH  29  32
HETATM   32  O   UNL     1       8.396  22.468  53.199  1.00  0.00    -0.356 OA
HETATM   33  C   UNL     1       7.793  21.181  53.148  1.00  0.00     0.210 C 
ENDBRANCH  29  32
ENDBRANCH  10  26
BRANCH   1  34
HETATM   34  C   UNL     1       3.848  31.027  48.163  1.00  0.00     0.032 A 
HETATM   35  C   UNL     1       4.113  30.557  46.873  1.00  0.00     0.017 A 
HETATM   36  C   UNL     1       4.986  31.261  46.043  1.00  0.00     0.008 A 
HETATM   37  C   UNL     1       5.574  32.457  46.482  1.00  0.00    -0.059 A 
HETATM   38  C   UNL     1       5.268  32.939  47.764  1.00  0.00     0.008 A 
HETATM   39  C   UNL     1       4.405  32.229  48.602  1.00  0.00     0.017 A 
BRANCH  37  40
HETATM   40  C   UNL     1       6.513  33.220  45.580  1.00  0.00     0.034 C 
HETATM   41  C   UNL     1       7.518  34.056  46.360  1.00  0.00     0.010 C 
ENDBRANCH  37  40
ENDBRANCH   1  34
TORSDOF 7
ENDMDL
MODEL 3
REMARK VINA RESULT:      -7.7      2.175      3.536
REMARK  7 active torsions:
REMARK  status: ('A' for Active; 'I' for Inactive)
REMARK    1  A    between atoms: C_2  and  C_3 
REMARK    2  A    between atoms: C_6  and  C_7 
REMARK       I    between atoms: C_7  and  N_8 
REMARK    3  A    between atoms: C_14  and  C_15 
REMARK       I    between atoms: C_15  and  N_16 
REMARK    4  A    between atoms: N_16  and  C_17 
REMARK    5  A    between atoms: C_17  and  C_18 
REMARK       I    between atoms: N_25  and  C_26 
REMARK    6  A    between atoms: C_26  and  C_27 
REMARK    7  A    between atoms: C_30  and  O_31 
ROOT
HETATM    1  C   UNL     1       4.378  27.789  53.405  1.00  0.00     0.253 C 
HETATM    2  N   UNL     1       3.918  28.501  52.285  1.00  0.00    -0.348 N 
HETATM    3  C   UNL     1       4.370  28.204  50.927  1.00  0.00     0.131 C 
HETATM    4  C   UNL     1       3.426  28.716  49.862  1.00  0.00     0.081 C 
HETATM    5  C   UNL     1       3.048  30.189  50.025  1.00  0.00     0.142 C 
HETATM    6  O   UNL     1       1.871  30.351  49.170  1.00  0.00    -0.358 OA
HETATM    7  C   UNL     1       1.939  31.642  48.554  1.00  0.00     0.206 C 
HETATM    8  C   UNL     1       3.413  31.879  48.356  1.00  0.00     0.206 C 
HETATM    9  N   UNL     1       4.007  31.177  49.495  1.00  0.00    -0.300 N 
HETATM   10  C   UNL     1       5.214  31.503  50.089  1.00  0.00     0.257 C 
HETATM   11  O   UNL     1       5.716  30.883  51.020  1.00  0.00    -0.267 OA
HETATM   12  C   UNL     1       2.556  30.452  51.455  1.00  0.00     0.081 C 
HETATM   13  C   UNL     1       3.415  29.846  52.558  1.00  0.00     0.131 C 
HETATM   14  O   UNL     1       4.026  28.030  54.556  1.00  0.00    -0.267 OA
ENDROOT
BRANCH   8  15
HETATM   15  C   UNL     1       3.835  31.306  46.982  1.00  0.00     0.243 C 
HETATM   16  N   UNL     1       3.798  32.203  45.949  1.00  0.00    -0.354 N 
HETATM   17  H   UNL     1       3.371  33.110  46.115  1.00  0.00     0.162 HD
HETATM   18  O   UNL     1       4.161  30.131  46.832  1.00  0.00    -0.271 OA
BRANCH  16  19
HETATM   19  C   UNL     1       3.952  31.869  44.549  1.00  0.00     0.181 C 
BRANCH  19  20
HETATM   20  C   UNL     1       5.026  32.743  43.927  1.00  0.00     0.051 A 
HETATM   21  N   UNL     1       5.005  32.876  42.569  1.00  0.00    -0.264 NA
HETATM   22  C   UNL     1       5.977  33.618  41.998  1.00  0.00     0.117 A 
HETATM   23  C   UNL     1       6.972  34.256  42.717  1.00  0.00     0.019 A 
HETATM   24  C   UNL     1       6.969  34.128  44.102  1.00  0.00     0.003 A 
HETATM   25  C   UNL     1       5.984  33.362  44.722  1.00  0.00     0.029 A 
ENDBRANCH  19  20
ENDBRANCH  16  19
ENDBRANCH   8  15
BRANCH  10  26
HETATM   26  C   UNL     1       5.947  32.717  49.666  1.00  0.00     0.032 A 
HETATM   27  C   UNL     1       6.770  32.616  48.539  1.00  0.00     0.020 A 
HETATM   28  C   UNL     1       7.422  33.751  48.049  1.00  0.00     0.038 A 
HETATM   29  C   UNL     1       7.252  34.993  48.667  1.00  0.00     0.068 A 
HETATM   30  C   UNL     1       6.421  35.091  49.784  1.00  0.00     0.038 A 
HETATM   31  C   UNL     1       5.759  33.959  50.273  1.00  0.00     0.020 A 
BRANCH  29  32
HETATM   32  O   UNL     1       7.932  36.022  48.079  1.00  0.00    -0.356 OA
HETATM   33  C   UNL     1       9.276  35.765  47.688  1.00  0.00     0.210 C 
ENDBRANCH  29  32
ENDBRANCH  10  26
BRANCH   1  34
HETATM   34  C   UNL     1       5.345  26.686  53.208  1.00  0.00     0.032 A 
HETATM   35  C   UNL     1       6.721  26.936  53.249  1.00  0.00     0.017 A 
HETATM   36  C   UNL     1       7.623  25.889  53.063  1.00  0.00     0.008 A 
HETATM   37  C   UNL     1       7.160  24.578  52.870  1.00  0.00    -0.059 A 
HETATM   38  C   UNL     1       5.778  24.334  52.871  1.00  0.00     0.008 A 
HETATM   39  C   UNL     1       4.871  25.383  53.044  1.00  0.00     0.017 A 
BRANCH  37  40
HETATM   40  C   UNL     1       8.138  23.445  52.676  1.00  0.00     0.034 C 
HETATM   41  C   UNL     1       7.646  22.141  53.286  1.00  0.00     0.010 C 
ENDBRANCH  37  40
ENDBRANCH   1  34
TORSDOF 7
ENDMDL
MODEL 4
REMARK VINA RESULT:      -7.6      3.688     10.056
REMARK  7 active torsions:
REMARK  status: ('A' for Active; 'I' for Inactive)
REMARK    1  A    between atoms: C_2  and  C_3 
REMARK    2  A    between atoms: C_6  and  C_7 
REMARK       I    between atoms: C_7  and  N_8 
REMARK    3  A    between atoms: C_14  and  C_15 
REMARK       I    between atoms: C_15  and  N_16 
REMARK    4  A    between atoms: N_16  and  C_17 
REMARK    5  A    between atoms: C_17  and  C_18 
REMARK       I    between atoms: N_25  and  C_26 
REMARK    6  A    between atoms: C_26  and  C_27 
REMARK    7  A    between atoms: C_30  and  O_31 
ROOT
HETATM    1  C   UNL     1       3.631  30.132  51.649  1.00  0.00     0.253 C 
HETATM    2  N   UNL     1       4.118  29.580  52.846  1.00  0.00    -0.348 N 
HETATM    3  C   UNL     1       5.487  29.798  53.309  1.00  0.00     0.131 C 
HETATM    4  C   UNL     1       5.657  29.555  54.792  1.00  0.00     0.081 C 
HETATM    5  C   UNL     1       5.104  28.211  55.268  1.00  0.00     0.142 C 
HETATM    6  O   UNL     1       5.012  28.357  56.721  1.00  0.00    -0.358 OA
HETATM    7  C   UNL     1       5.362  27.105  57.321  1.00  0.00     0.206 C 
HETATM    8  C   UNL     1       6.399  26.529  56.393  1.00  0.00     0.206 C 
HETATM    9  N   UNL     1       5.979  27.038  55.086  1.00  0.00    -0.300 N 
HETATM   10  C   UNL     1       6.227  26.418  53.874  1.00  0.00     0.257 C 
HETATM   11  O   UNL     1       5.901  26.874  52.784  1.00  0.00    -0.267 OA
HETATM   12  C   UNL     1       3.659  28.034  54.782  1.00  0.00     0.081 C 
HETATM   13  C   UNL     1       3.419  28.388  53.319  1.00  0.00     0.131 C 
HETATM   14  O   UNL     1       2.491  29.950  51.230  1.00  0.00    -0.267 OA
ENDROOT
BRANCH   8  15
HETATM   15  C   UNL     1       7.798  27.023  56.834  1.00  0.00     0.243 C 
HETATM   16  N   UNL     1       8.003  28.369  56.694  1.00  0.00    -0.354 N 
HETATM   17  H   UNL     1       7.306  28.912  56.192  1.00  0.00     0.162 HD
HETATM   18  O   UNL     1       8.660  26.258  57.259  1.00  0.00    -0.271 OA
BRANCH  16  19
HETATM   19  C   UNL     1       9.278  29.038  56.845  1.00  0.00     0.181 C 
BRANCH  19  20
HETATM   20  C   UNL     1       9.197  30.048  57.975  1.00  0.00     0.051 A 
HETATM   21  N   UNL     1      10.130  31.044  57.982  1.00  0.00    -0.264 NA
HETATM   22  C   UNL     1      10.095  31.927  59.002  1.00  0.00     0.117 A 
HETATM   23  C   UNL     1       9.161  31.880  60.020  1.00  0.00     0.019 A 
HETATM   24  C   UNL     1       8.204  30.871  59.991  1.00  0.00     0.003 A 
HETATM   25  C   UNL     1       8.217  29.939  58.955  1.00  0.00     0.029 A 
ENDBRANCH  19  20
ENDBRANCH  16  19
ENDBRANCH   8  15
BRANCH  10  26
HETATM   26  C   UNL     1       6.852  25.075  53.839  1.00  0.00     0.032 A 
HETATM   27  C   UNL     1       7.727  24.796  52.785  1.00  0.00     0.020 A 
HETATM   28  C   UNL     1       8.405  23.575  52.747  1.00  0.00     0.038 A 
HETATM   29  C   UNL     1       8.226  22.630  53.762  1.00  0.00     0.068 A 
HETATM   30  C   UNL     1       7.360  22.917  54.818  1.00  0.00     0.038 A 
HETATM   31  C   UNL     1       6.686  24.143  54.864  1.00  0.00     0.020 A 
BRANCH  29  32
HETATM   32  O   UNL     1       8.959  21.485  53.613  1.00  0.00    -0.356 OA
HETATM   33  C   UNL     1       8.313  20.385  52.984  1.00  0.00     0.210 C 
ENDBRANCH  29  32
ENDBRANCH  10  26
BRANCH   1  34
HETATM   34  C   UNL     1       4.528  30.978  50.829  1.00  0.00     0.032 A 
HETATM   35  C   UNL     1       4.636  32.348  51.085  1.00  0.00     0.017 A 
HETATM   36  C   UNL     1       5.485  33.134  50.306  1.00  0.00     0.008 A 
HETATM   37  C   UNL     1       6.258  32.553  49.289  1.00  0.00    -0.059 A 
HETATM   38  C   UNL     1       6.171  31.170  49.070  1.00  0.00     0.008 A 
HETATM   39  C   UNL     1       5.312  30.382  49.839  1.00  0.00     0.017 A 
BRANCH  37  40
HETATM   40  C   UNL     1       7.181  33.406  48.452  1.00  0.00     0.034 C 
HETATM   41  C   UNL     1       6.680  33.576  47.026  1.00  0.00     0.010 C 
ENDBRANCH  37  40
ENDBRANCH   1  34
TORSDOF 7
ENDMDL
MODEL 5
REMARK VINA RESULT:      -7.5      4.635      9.695
REMARK  7 active torsions:
REMARK  status: ('A' for Active; 'I' for Inactive)
REMARK    1  A    between atoms: C_2  and  C_3 
REMARK    2  A    between atoms: C_6  and  C_7 
REMARK       I    between atoms: C_7  and  N_8 
REMARK    3  A    between atoms: C_14  and  C_15 
REMARK       I    between atoms: C_15  and  N_16 
REMARK    4  A    between atoms: N_16  and  C_17 
REMARK    5  A    between atoms: C_17  and  C_18 
REMARK       I    between atoms: N_25  and  C_26 
REMARK    6  A    between atoms: C_26  and  C_27 
REMARK    7  A    between atoms: C_30  and  O_31 
ROOT
HETATM    1  C   UNL     1       2.835  33.845  56.194  1.00  0.00     0.253 C 
HETATM    2  N   UNL     1       3.450  32.589  56.329  1.00  0.00    -0.348 N 
HETATM    3  C   UNL     1       4.895  32.406  56.199  1.00  0.00     0.131 C 
HETATM    4  C   UNL     1       5.391  31.133  56.848  1.00  0.00     0.081 C 
HETATM    5  C   UNL     1       4.621  29.881  56.427  1.00  0.00     0.142 C 
HETATM    6  O   UNL     1       4.986  28.883  57.433  1.00  0.00    -0.358 OA
HETATM    7  C   UNL     1       5.102  27.612  56.782  1.00  0.00     0.206 C 
HETATM    8  C   UNL     1       5.620  27.948  55.409  1.00  0.00     0.206 C 
HETATM    9  N   UNL     1       5.022  29.259  55.151  1.00  0.00    -0.300 N 
HETATM   10  C   UNL     1       4.727  29.766  53.897  1.00  0.00     0.257 C 
HETATM   11  O   UNL     1       4.260  30.881  53.696  1.00  0.00    -0.267 OA
HETATM   12  C   UNL     1       3.113  30.107  56.602  1.00  0.00     0.081 C 
HETATM   13  C   UNL     1       2.590  31.436  56.071  1.00  0.00     0.131 C 
HETATM   14  O   UNL     1       1.623  34.022  56.282  1.00  0.00    -0.267 OA
ENDROOT
BRANCH   8  15
HETATM   15  C   UNL     1       7.167  27.964  55.444  1.00  0.00     0.243 C 
HETATM   16  N   UNL     1       7.711  28.216  56.674  1.00  0.00    -0.354 N 
HETATM   17  H   UNL     1       7.091  28.511  57.423  1.00  0.00     0.162 HD
HETATM   18  O   UNL     1       7.849  27.781  54.439  1.00  0.00    -0.271 OA
BRANCH  16  19
HETATM   19  C   UNL     1       9.112  28.479  56.928  1.00  0.00     0.181 C 
BRANCH  19  20
HETATM   20  C   UNL     1       9.249  29.634  57.902  1.00  0.00     0.051 A 
HETATM   21  N   UNL     1       8.418  29.632  58.985  1.00  0.00    -0.264 NA
HETATM   22  C   UNL     1       8.501  30.673  59.840  1.00  0.00     0.117 A 
HETATM   23  C   UNL     1       9.388  31.723  59.681  1.00  0.00     0.019 A 
HETATM   24  C   UNL     1      10.242  31.703  58.583  1.00  0.00     0.003 A 
HETATM   25  C   UNL     1      10.176  30.646  57.677  1.00  0.00     0.029 A 
ENDBRANCH  19  20
ENDBRANCH  16  19
ENDBRANCH   8  15
BRANCH  10  26
HETATM   26  C   UNL     1       4.890  28.918  52.695  1.00  0.00     0.032 A 
HETATM   27  C   UNL     1       4.475  27.586  52.782  1.00  0.00     0.020 A 
HETATM   28  C   UNL     1       4.532  26.763  51.654  1.00  0.00     0.038 A 
HETATM   29  C   UNL     1       4.989  27.262  50.431  1.00  0.00     0.068 A 
HETATM   30  C   UNL     1       5.391  28.596  50.345  1.00  0.00     0.038 A 
HETATM   31  C   UNL     1       5.327  29.426  51.471  1.00  0.00     0.020 A 
BRANCH  29  32
HETATM   32  O   UNL     1       4.979  26.359  49.405  1.00  0.00    -0.356 OA
HETATM   33  C   UNL     1       3.824  26.342  48.574  1.00  0.00     0.210 C 
ENDBRANCH  29  32
ENDBRANCH  10  26
BRANCH   1  34
HETATM   34  C   UNL     1       3.676  35.033  55.925  1.00  0.00     0.032 A 
HETATM   35  C   UNL     1       4.284  35.722  56.979  1.00  0.00     0.017 A 
HETATM   36  C   UNL     1       5.075  36.840  56.712  1.00  0.00     0.008 A 
HETATM   37  C   UNL     1       5.293  37.258  55.390  1.00  0.00    -0.059 A 
HETATM   38  C   UNL     1       4.710  36.533  54.340  1.00  0.00     0.008 A 
HETATM   39  C   UNL     1       3.907  35.421  54.603  1.00  0.00     0.017 A 
BRANCH  37  40
HETATM   40  C   UNL     1       6.154  38.464  55.105  1.00  0.00     0.034 C 
HETATM   41  C   UNL     1       7.640  38.145  55.172  1.00  0.00     0.010 C 
ENDBRANCH  37  40
ENDBRANCH   1  34
TORSDOF 7
ENDMDL
MODEL 6
REMARK VINA RESULT:      -7.4      2.971      7.625
REMARK  7 active torsions:
REMARK  status: ('A' for Active; 'I' for Inactive)
REMARK    1  A    between atoms: C_2  and  C_3 
REMARK    2  A    between atoms: C_6  and  C_7 
REMARK       I    between atoms: C_7  and  N_8 
REMARK    3  A    between atoms: C_14  and  C_15 
REMARK       I    between atoms: C_15  and  N_16 
REMARK    4  A    between atoms: N_16  and  C_17 
REMARK    5  A    between atoms: C_17  and  C_18 
REMARK       I    between atoms: N_25  and  C_26 
REMARK    6  A    between atoms: C_26  and  C_27 
REMARK    7  A    between atoms: C_30  and  O_31 
ROOT
HETATM    1  C   UNL     1       2.594  33.547  52.682  1.00  0.00     0.253 C 
HETATM    2  N   UNL     1       3.132  32.556  51.844  1.00  0.00    -0.348 N 
HETATM    3  C   UNL     1       2.361  31.392  51.412  1.00  0.00     0.131 C 
HETATM    4  C   UNL     1       2.921  30.738  50.169  1.00  0.00     0.081 C 
HETATM    5  C   UNL     1       4.416  30.428  50.251  1.00  0.00     0.142 C 
HETATM    6  O   UNL     1       4.808  30.187  48.861  1.00  0.00    -0.358 OA
HETATM    7  C   UNL     1       5.778  29.134  48.846  1.00  0.00     0.206 C 
HETATM    8  C   UNL     1       5.368  28.238  49.984  1.00  0.00     0.206 C 
HETATM    9  N   UNL     1       4.793  29.183  50.944  1.00  0.00    -0.300 N 
HETATM   10  C   UNL     1       4.761  29.001  52.317  1.00  0.00     0.257 C 
HETATM   11  O   UNL     1       4.243  29.784  53.105  1.00  0.00    -0.267 OA
HETATM   12  C   UNL     1       5.190  31.681  50.683  1.00  0.00     0.081 C 
HETATM   13  C   UNL     1       4.589  32.442  51.859  1.00  0.00     0.131 C 
HETATM   14  O   UNL     1       3.227  34.525  53.073  1.00  0.00    -0.267 OA
ENDROOT
BRANCH   8  15
HETATM   15  C   UNL     1       4.359  27.188  49.462  1.00  0.00     0.243 C 
HETATM   16  N   UNL     1       3.469  27.658  48.534  1.00  0.00    -0.354 N 
HETATM   17  H   UNL     1       3.434  28.659  48.366  1.00  0.00     0.162 HD
HETATM   18  O   UNL     1       4.351  26.028  49.866  1.00  0.00    -0.271 OA
BRANCH  16  19
HETATM   19  C   UNL     1       2.313  26.935  48.048  1.00  0.00     0.181 C 
BRANCH  19  20
HETATM   20  C   UNL     1       1.449  27.856  47.207  1.00  0.00     0.051 A 
HETATM   21  N   UNL     1       1.860  29.152  47.087  1.00  0.00    -0.264 NA
HETATM   22  C   UNL     1       1.081  29.994  46.375  1.00  0.00     0.117 A 
HETATM   23  C   UNL     1      -0.092  29.605  45.755  1.00  0.00     0.019 A 
HETATM   24  C   UNL     1      -0.490  28.277  45.869  1.00  0.00     0.003 A 
HETATM   25  C   UNL     1       0.288  27.385  46.603  1.00  0.00     0.029 A 
ENDBRANCH  19  20
ENDBRANCH  16  19
ENDBRANCH   8  15
BRANCH  10  26
HETATM   26  C   UNL     1       5.452  27.845  52.931  1.00  0.00     0.032 A 
HETATM   27  C   UNL     1       6.788  28.016  53.308  1.00  0.00     0.020 A 
HETATM   28  C   UNL     1       7.464  26.984  53.965  1.00  0.00     0.038 A 
HETATM   29  C   UNL     1       6.814  25.782  54.259  1.00  0.00     0.068 A 
HETATM   30  C   UNL     1       5.478  25.620  53.891  1.00  0.00     0.038 A 
HETATM   31  C   UNL     1       4.794  26.655  53.242  1.00  0.00     0.020 A 
BRANCH  29  32
HETATM   32  O   UNL     1       7.583  24.863  54.917  1.00  0.00    -0.356 OA
HETATM   33  C   UNL     1       7.174  23.503  54.831  1.00  0.00     0.210 C 
ENDBRANCH  29  32
ENDBRANCH  10  26
BRANCH   1  34
HETATM   34  C   UNL     1       1.191  33.421  53.137  1.00  0.00     0.032 A 
HETATM   35  C   UNL     1       0.904  33.169  54.482  1.00  0.00     0.017 A 
HETATM   36  C   UNL     1      -0.423  33.054  54.898  1.00  0.00     0.008 A 
HETATM   37  C   UNL     1      -1.473  33.224  53.982  1.00  0.00    -0.059 A 
HETATM   38  C   UNL     1      -1.171  33.517  52.643  1.00  0.00     0.008 A 
HETATM   39  C   UNL     1       0.156  33.620  52.220  1.00  0.00     0.017 A 
BRANCH  37  40
HETATM   40  C   UNL     1      -2.907  33.105  54.436  1.00  0.00     0.034 C 
HETATM   41  C   UNL     1      -3.032  33.021  55.950  1.00  0.00     0.010 C 
ENDBRANCH  37  40
ENDBRANCH   1  34
TORSDOF 7
ENDMDL
MODEL 7
REMARK VINA RESULT:      -7.2      2.974      8.351
REMARK  7 active torsions:
REMARK  status: ('A' for Active; 'I' for Inactive)
REMARK    1  A    between atoms: C_2  and  C_3 
REMARK    2  A    between atoms: C_6  and  C_7 
REMARK       I    between atoms: C_7  and  N_8 
REMARK    3  A    between atoms: C_14  and  C_15 
REMARK       I    between atoms: C_15  and  N_16 
REMARK    4  A    between atoms: N_16  and  C_17 
REMARK    5  A    between atoms: C_17  and  C_18 
REMARK       I    between atoms: N_25  and  C_26 
REMARK    6  A    between atoms: C_26  and  C_27 
REMARK    7  A    between atoms: C_30  and  O_31 
ROOT
HETATM    1  C   UNL     1       4.655  36.359  52.144  1.00  0.00     0.253 C 
HETATM    2  N   UNL     1       4.429  35.184  52.879  1.00  0.00    -0.348 N 
HETATM    3  C   UNL     1       5.520  34.382  53.431  1.00  0.00     0.131 C 
HETATM    4  C   UNL     1       5.079  33.481  54.563  1.00  0.00     0.081 C 
HETATM    5  C   UNL     1       3.857  32.624  54.233  1.00  0.00     0.142 C 
HETATM    6  O   UNL     1       3.385  32.158  55.538  1.00  0.00    -0.358 OA
HETATM    7  C   UNL     1       2.916  30.813  55.391  1.00  0.00     0.206 C 
HETATM    8  C   UNL     1       3.811  30.224  54.333  1.00  0.00     0.206 C 
HETATM    9  N   UNL     1       4.108  31.379  53.484  1.00  0.00    -0.300 N 
HETATM   10  C   UNL     1       4.417  31.317  52.136  1.00  0.00     0.257 C 
HETATM   11  O   UNL     1       4.699  32.289  51.446  1.00  0.00    -0.267 OA
HETATM   12  C   UNL     1       2.728  33.506  53.681  1.00  0.00     0.081 C 
HETATM   13  C   UNL     1       3.154  34.517  52.624  1.00  0.00     0.131 C 
HETATM   14  O   UNL     1       3.757  37.040  51.656  1.00  0.00    -0.267 OA
ENDROOT
BRANCH   8  15
HETATM   15  C   UNL     1       5.060  29.613  55.013  1.00  0.00     0.243 C 
HETATM   16  N   UNL     1       5.320  28.312  54.674  1.00  0.00    -0.354 N 
HETATM   17  H   UNL     1       4.621  27.806  54.137  1.00  0.00     0.162 HD
HETATM   18  O   UNL     1       5.751  30.245  55.808  1.00  0.00    -0.271 OA
BRANCH  16  19
HETATM   19  C   UNL     1       6.299  27.463  55.318  1.00  0.00     0.181 C 
BRANCH  19  20
HETATM   20  C   UNL     1       6.668  26.315  54.397  1.00  0.00     0.051 A 
HETATM   21  N   UNL     1       6.173  25.083  54.715  1.00  0.00    -0.264 NA
HETATM   22  C   UNL     1       6.525  24.045  53.928  1.00  0.00     0.117 A 
HETATM   23  C   UNL     1       7.340  24.171  52.818  1.00  0.00     0.019 A 
HETATM   24  C   UNL     1       7.822  25.435  52.494  1.00  0.00     0.003 A 
HETATM   25  C   UNL     1       7.484  26.527  53.291  1.00  0.00     0.029 A 
ENDBRANCH  19  20
ENDBRANCH  16  19
ENDBRANCH   8  15
BRANCH  10  26
HETATM   26  C   UNL     1       4.336  30.027  51.413  1.00  0.00     0.032 A 
HETATM   27  C   UNL     1       3.139  29.728  50.755  1.00  0.00     0.020 A 
HETATM   28  C   UNL     1       3.036  28.562  49.992  1.00  0.00     0.038 A 
HETATM   29  C   UNL     1       4.124  27.693  49.869  1.00  0.00     0.068 A 
HETATM   30  C   UNL     1       5.320  28.001  50.517  1.00  0.00     0.038 A 
HETATM   31  C   UNL     1       5.431  29.173  51.275  1.00  0.00     0.020 A 
BRANCH  29  32
HETATM   32  O   UNL     1       3.895  26.599  49.082  1.00  0.00    -0.356 OA
HETATM   33  C   UNL     1       4.613  26.528  47.855  1.00  0.00     0.210 C 
ENDBRANCH  29  32
ENDBRANCH  10  26
BRANCH   1  34
HETATM   34  C   UNL     1       6.046  36.817  51.929  1.00  0.00     0.032 A 
HETATM   35  C   UNL     1       6.715  37.536  52.924  1.00  0.00     0.017 A 
HETATM   36  C   UNL     1       8.027  37.962  52.709  1.00  0.00     0.008 A 
HETATM   37  C   UNL     1       8.691  37.642  51.514  1.00  0.00    -0.059 A 
HETATM   38  C   UNL     1       8.021  36.885  50.541  1.00  0.00     0.008 A 
HETATM   39  C   UNL     1       6.704  36.469  50.747  1.00  0.00     0.017 A 
BRANCH  37  40
HETATM   40  C   UNL     1      10.112  38.098  51.288  1.00  0.00     0.034 C 
HETATM   41  C   UNL     1      11.051  37.648  52.397  1.00  0.00     0.010 C 
ENDBRANCH  37  40
ENDBRANCH   1  34
TORSDOF 7
ENDMDL
MODEL 8
REMARK VINA RESULT:      -7.1      3.041      9.314
REMARK  7 active torsions:
REMARK  status: ('A' for Active; 'I' for Inactive)
REMARK    1  A    between atoms: C_2  and  C_3 
REMARK    2  A    between atoms: C_6  and  C_7 
REMARK       I    between atoms: C_7  and  N_8 
REMARK    3  A    between atoms: C_14  and  C_15 
REMARK       I    between atoms: C_15  and  N_16 
REMARK    4  A    between atoms: N_16  and  C_17 
REMARK    5  A    between atoms: C_17  and  C_18 
REMARK       I    between atoms: N_25  and  C_26 
REMARK    6  A    between atoms: C_26  and  C_27 
REMARK    7  A    between atoms: C_30  and  O_31 
ROOT
HETATM    1  C   UNL     1       3.707  32.531  49.317  1.00  0.00     0.253 C 
HETATM    2  N   UNL     1       3.651  32.209  50.682  1.00  0.00    -0.348 N 
HETATM    3  C   UNL     1       4.685  32.625  51.629  1.00  0.00     0.131 C 
HETATM    4  C   UNL     1       4.212  32.616  53.065  1.00  0.00     0.081 C 
HETATM    5  C   UNL     1       3.547  31.307  53.491  1.00  0.00     0.142 C 
HETATM    6  O   UNL     1       2.839  31.652  54.726  1.00  0.00    -0.358 OA
HETATM    7  C   UNL     1       2.935  30.540  55.623  1.00  0.00     0.206 C 
HETATM    8  C   UNL     1       4.284  29.942  55.326  1.00  0.00     0.206 C 
HETATM    9  N   UNL     1       4.448  30.213  53.896  1.00  0.00    -0.300 N 
HETATM   10  C   UNL     1       5.207  29.451  53.024  1.00  0.00     0.257 C 
HETATM   11  O   UNL     1       5.365  29.711  51.837  1.00  0.00    -0.267 OA
HETATM   12  C   UNL     1       2.453  30.920  52.487  1.00  0.00     0.081 C 
HETATM   13  C   UNL     1       2.851  31.034  51.020  1.00  0.00     0.131 C 
HETATM   14  O   UNL     1       2.861  32.179  48.499  1.00  0.00    -0.267 OA
ENDROOT
BRANCH   8  15
HETATM   15  C   UNL     1       5.347  30.629  56.216  1.00  0.00     0.243 C 
HETATM   16  N   UNL     1       5.907  29.822  57.169  1.00  0.00    -0.354 N 
HETATM   17  H   UNL     1       5.499  28.904  57.322  1.00  0.00     0.162 HD
HETATM   18  O   UNL     1       5.648  31.812  56.085  1.00  0.00    -0.271 OA
BRANCH  16  19
HETATM   19  C   UNL     1       6.768  30.272  58.242  1.00  0.00     0.181 C 
BRANCH  19  20
HETATM   20  C   UNL     1       8.221  30.097  57.843  1.00  0.00     0.051 A 
HETATM   21  N   UNL     1       9.092  31.073  58.234  1.00  0.00    -0.264 NA
HETATM   22  C   UNL     1      10.381  30.951  57.853  1.00  0.00     0.117 A 
HETATM   23  C   UNL     1      10.859  29.889  57.107  1.00  0.00     0.019 A 
HETATM   24  C   UNL     1       9.964  28.892  56.731  1.00  0.00     0.003 A 
HETATM   25  C   UNL     1       8.625  28.992  57.102  1.00  0.00     0.029 A 
ENDBRANCH  19  20
ENDBRANCH  16  19
ENDBRANCH   8  15
BRANCH  10  26
HETATM   26  C   UNL     1       5.824  28.186  53.485  1.00  0.00     0.032 A 
HETATM   27  C   UNL     1       5.024  27.039  53.484  1.00  0.00     0.020 A 
HETATM   28  C   UNL     1       5.577  25.804  53.832  1.00  0.00     0.038 A 
HETATM   29  C   UNL     1       6.929  25.700  54.173  1.00  0.00     0.068 A 
HETATM   30  C   UNL     1       7.726  26.845  54.161  1.00  0.00     0.038 A 
HETATM   31  C   UNL     1       7.178  28.083  53.804  1.00  0.00     0.020 A 
BRANCH  29  32
HETATM   32  O   UNL     1       7.346  24.434  54.477  1.00  0.00    -0.356 OA
HETATM   33  C   UNL     1       6.945  23.911  55.738  1.00  0.00     0.210 C 
ENDBRANCH  29  32
ENDBRANCH  10  26
BRANCH   1  34
HETATM   34  C   UNL     1       4.844  33.334  48.812  1.00  0.00     0.032 A 
HETATM   35  C   UNL     1       6.060  32.718  48.499  1.00  0.00     0.017 A 
HETATM   36  C   UNL     1       7.124  33.484  48.024  1.00  0.00     0.008 A 
HETATM   37  C   UNL     1       6.972  34.866  47.825  1.00  0.00    -0.059 A 
HETATM   38  C   UNL     1       5.734  35.464  48.104  1.00  0.00     0.008 A 
HETATM   39  C   UNL     1       4.670  34.701  48.593  1.00  0.00     0.017 A 
BRANCH  37  40
HETATM   40  C   UNL     1       8.123  35.691  47.304  1.00  0.00     0.034 C 
HETATM   41  C   UNL     1       9.415  35.431  48.063  1.00  0.00     0.010 C 
ENDBRANCH  37  40
ENDBRANCH   1  34
TORSDOF 7
ENDMDL
MODEL 9
REMARK VINA RESULT:      -7.1      4.185      8.109
REMARK  7 active torsions:
REMARK  status: ('A' for Active; 'I' for Inactive)
REMARK    1  A    between atoms: C_2  and  C_3 
REMARK    2  A    between atoms: C_6  and  C_7 
REMARK       I    between atoms: C_7  and  N_8 
REMARK    3  A    between atoms: C_14  and  C_15 
REMARK       I    between atoms: C_15  and  N_16 
REMARK    4  A    between atoms: N_16  and  C_17 
REMARK    5  A    between atoms: C_17  and  C_18 
REMARK       I    between atoms: N_25  and  C_26 
REMARK    6  A    between atoms: C_26  and  C_27 
REMARK    7  A    between atoms: C_30  and  O_31 
ROOT
HETATM    1  C   UNL     1      -0.095  34.767  55.556  1.00  0.00     0.253 C 
HETATM    2  N   UNL     1       0.894  34.459  54.609  1.00  0.00    -0.348 N 
HETATM    3  C   UNL     1       0.596  33.748  53.367  1.00  0.00     0.131 C 
HETATM    4  C   UNL     1       1.649  33.950  52.300  1.00  0.00     0.081 C 
HETATM    5  C   UNL     1       3.076  33.680  52.779  1.00  0.00     0.142 C 
HETATM    6  O   UNL     1       3.919  34.300  51.756  1.00  0.00    -0.358 OA
HETATM    7  C   UNL     1       5.071  33.471  51.563  1.00  0.00     0.206 C 
HETATM    8  C   UNL     1       4.562  32.072  51.788  1.00  0.00     0.206 C 
HETATM    9  N   UNL     1       3.511  32.271  52.789  1.00  0.00    -0.300 N 
HETATM   10  C   UNL     1       3.106  31.325  53.716  1.00  0.00     0.257 C 
HETATM   11  O   UNL     1       2.200  31.493  54.523  1.00  0.00    -0.267 OA
HETATM   12  C   UNL     1       3.356  34.463  54.069  1.00  0.00     0.081 C 
HETATM   13  C   UNL     1       2.259  34.387  55.125  1.00  0.00     0.131 C 
HETATM   14  O   UNL     1       0.133  35.348  56.614  1.00  0.00    -0.267 OA
ENDROOT
BRANCH   8  15
HETATM   15  C   UNL     1       4.044  31.501  50.447  1.00  0.00     0.243 C 
HETATM   16  N   UNL     1       4.918  30.669  49.801  1.00  0.00    -0.354 N 
HETATM   17  H   UNL     1       5.868  30.601  50.156  1.00  0.00     0.162 HD
HETATM   18  O   UNL     1       2.940  31.789  49.993  1.00  0.00    -0.271 OA
BRANCH  16  19
HETATM   19  C   UNL     1       4.754  30.173  48.451  1.00  0.00     0.181 C 
BRANCH  19  20
HETATM   20  C   UNL     1       4.444  28.687  48.485  1.00  0.00     0.051 A 
HETATM   21  N   UNL     1       3.687  28.191  47.464  1.00  0.00    -0.264 NA
HETATM   22  C   UNL     1       3.369  26.879  47.501  1.00  0.00     0.117 A 
HETATM   23  C   UNL     1       3.783  26.022  48.504  1.00  0.00     0.019 A 
HETATM   24  C   UNL     1       4.570  26.538  49.528  1.00  0.00     0.003 A 
HETATM   25  C   UNL     1       4.909  27.889  49.524  1.00  0.00     0.029 A 
ENDBRANCH  19  20
ENDBRANCH  16  19
ENDBRANCH   8  15
BRANCH  10  26
HETATM   26  C   UNL     1       3.834  30.041  53.835  1.00  0.00     0.032 A 
HETATM   27  C   UNL     1       4.781  29.927  54.858  1.00  0.00     0.020 A 
HETATM   28  C   UNL     1       5.438  28.712  55.066  1.00  0.00     0.038 A 
HETATM   29  C   UNL     1       5.151  27.602  54.267  1.00  0.00     0.068 A 
HETATM   30  C   UNL     1       4.198  27.717  53.255  1.00  0.00     0.038 A 
HETATM   31  C   UNL     1       3.530  28.930  53.049  1.00  0.00     0.020 A 
BRANCH  29  32
HETATM   32  O   UNL     1       5.852  26.472  54.586  1.00  0.00    -0.356 OA
HETATM   33  C   UNL     1       5.438  25.261  53.965  1.00  0.00     0.210 C 
ENDBRANCH  29  32
ENDBRANCH  10  26
BRANCH   1  34
HETATM   34  C   UNL     1      -1.497  34.373  55.288  1.00  0.00     0.032 A 
HETATM   35  C   UNL     1      -2.342  35.219  54.562  1.00  0.00     0.017 A 
HETATM   36  C   UNL     1      -3.660  34.837  54.314  1.00  0.00     0.008 A 
HETATM   37  C   UNL     1      -4.136  33.593  54.760  1.00  0.00    -0.059 A 
HETATM   38  C   UNL     1      -3.265  32.737  55.452  1.00  0.00     0.008 A 
HETATM   39  C   UNL     1      -1.948  33.122  55.713  1.00  0.00     0.017 A 
BRANCH  37  40
HETATM   40  C   UNL     1      -5.560  33.179  54.485  1.00  0.00     0.034 C 
HETATM   41  C   UNL     1      -5.667  32.189  53.334  1.00  0.00     0.010 C 
ENDBRANCH  37  40
ENDBRANCH   1  34
TORSDOF 7
ENDMDL
MODEL 10
REMARK VINA RESULT:      -7.1      3.164      7.999
REMARK  7 active torsions:
REMARK  status: ('A' for Active; 'I' for Inactive)
REMARK    1  A    between atoms: C_2  and  C_3 
REMARK    2  A    between atoms: C_6  and  C_7 
REMARK       I    between atoms: C_7  and  N_8 
REMARK    3  A    between atoms: C_14  and  C_15 
REMARK       I    between atoms: C_15  and  N_16 
REMARK    4  A    between atoms: N_16  and  C_17 
REMARK    5  A    between atoms: C_17  and  C_18 
REMARK       I    between atoms: N_25  and  C_26 
REMARK    6  A    between atoms: C_26  and  C_27 
REMARK    7  A    between atoms: C_30  and  O_31 
ROOT
HETATM    1  C   UNL     1       0.417  30.680  45.911  1.00  0.00     0.253 C 
HETATM    2  N   UNL     1       1.385  30.097  46.745  1.00  0.00    -0.348 N 
HETATM    3  C   UNL     1       1.046  29.477  48.025  1.00  0.00     0.131 C 
HETATM    4  C   UNL     1       2.100  28.508  48.512  1.00  0.00     0.081 C 
HETATM    5  C   UNL     1       3.516  29.083  48.518  1.00  0.00     0.142 C 
HETATM    6  O   UNL     1       4.379  27.906  48.629  1.00  0.00    -0.358 OA
HETATM    7  C   UNL     1       5.492  28.243  49.466  1.00  0.00     0.206 C 
HETATM    8  C   UNL     1       4.922  29.217  50.463  1.00  0.00     0.206 C 
HETATM    9  N   UNL     1       3.888  29.904  49.685  1.00  0.00    -0.300 N 
HETATM   10  C   UNL     1       3.448  31.196  49.915  1.00  0.00     0.257 C 
HETATM   11  O   UNL     1       2.556  31.746  49.279  1.00  0.00    -0.267 OA
HETATM   12  C   UNL     1       3.840  29.701  47.151  1.00  0.00     0.081 C 
HETATM   13  C   UNL     1       2.749  30.589  46.566  1.00  0.00     0.131 C 
HETATM   14  O   UNL     1       0.678  31.221  44.840  1.00  0.00    -0.267 OA
ENDROOT
BRANCH   8  15
HETATM   15  C   UNL     1       4.369  28.431  51.676  1.00  0.00     0.243 C 
HETATM   16  N   UNL     1       5.211  27.472  52.170  1.00  0.00    -0.354 N 
HETATM   17  H   UNL     1       6.047  27.245  51.638  1.00  0.00     0.162 HD
HETATM   18  O   UNL     1       3.254  28.645  52.144  1.00  0.00    -0.271 OA
BRANCH  16  19
HETATM   19  C   UNL     1       4.853  26.478  53.161  1.00  0.00     0.181 C 
BRANCH  19  20
HETATM   20  C   UNL     1       5.963  25.452  53.284  1.00  0.00     0.051 A 
HETATM   21  N   UNL     1       6.122  24.855  54.501  1.00  0.00    -0.264 NA
HETATM   22  C   UNL     1       7.130  23.968  54.637  1.00  0.00     0.117 A 
HETATM   23  C   UNL     1       7.991  23.629  53.609  1.00  0.00     0.019 A 
HETATM   24  C   UNL     1       7.807  24.231  52.368  1.00  0.00     0.003 A 
HETATM   25  C   UNL     1       6.779  25.156  52.197  1.00  0.00     0.029 A 
ENDBRANCH  19  20
ENDBRANCH  16  19
ENDBRANCH   8  15
BRANCH  10  26
HETATM   26  C   UNL     1       4.118  32.042  50.929  1.00  0.00     0.032 A 
HETATM   27  C   UNL     1       5.157  32.872  50.495  1.00  0.00     0.020 A 
HETATM   28  C   UNL     1       5.770  33.748  51.394  1.00  0.00     0.038 A 
HETATM   29  C   UNL     1       5.348  33.813  52.725  1.00  0.00     0.068 A 
HETATM   30  C   UNL     1       4.304  32.991  53.152  1.00  0.00     0.038 A 
HETATM   31  C   UNL     1       3.681  32.118  52.252  1.00  0.00     0.020 A 
BRANCH  29  32
HETATM   32  O   UNL     1       6.020  34.722  53.494  1.00  0.00    -0.356 OA
HETATM   33  C   UNL     1       7.002  35.516  52.841  1.00  0.00     0.210 C 
ENDBRANCH  29  32
ENDBRANCH  10  26
BRANCH   1  34
HETATM   34  C   UNL     1      -1.003  30.657  46.330  1.00  0.00     0.032 A 
HETATM   35  C   UNL     1      -1.524  31.688  47.118  1.00  0.00     0.017 A 
HETATM   36  C   UNL     1      -2.863  31.655  47.506  1.00  0.00     0.008 A 
HETATM   37  C   UNL     1      -3.701  30.611  47.082  1.00  0.00    -0.059 A 
HETATM   38  C   UNL     1      -3.175  29.605  46.258  1.00  0.00     0.008 A 
HETATM   39  C   UNL     1      -1.831  29.628  45.879  1.00  0.00     0.017 A 
BRANCH  37  40
HETATM   40  C   UNL     1      -5.152  30.582  47.498  1.00  0.00     0.034 C 
HETATM   41  C   UNL     1      -5.615  29.188  47.894  1.00  0.00     0.010 C 
ENDBRANCH  37  40
ENDBRANCH   1  34
TORSDOF 7
ENDMDL
