MODEL 1
REMARK VINA RESULT:     -10.3      0.000      0.000
REMARK  8 active torsions:
REMARK  status: ('A' for Active; 'I' for Inactive)
REMARK    1  A    between atoms: C_2  and  C_3 
REMARK    2  A    between atoms: C_3  and  N_4 
REMARK    3  A    between atoms: C_5  and  S_6 
REMARK    4  A    between atoms: S_6  and  C_7 
REMARK    5  A    between atoms: C_7  and  C_8 
REMARK       I    between atoms: C_8  and  N_9 
REMARK    6  A    between atoms: N_9  and  C_10 
REMARK    7  A    between atoms: C_23  and  C_24 
REMARK    8  A    between atoms: C_25  and  O_26 
ROOT
HETATM    1  S   UNL     1       6.637  30.763  57.950  1.00  0.00    -0.081 SA
ENDROOT
BRANCH   1   2
HETATM    2  C   UNL     1       6.411  29.101  57.545  1.00  0.00     0.192 A 
HETATM    3  N   UNL     1       7.409  28.196  57.297  1.00  0.00    -0.304 N 
HETATM    4  C   UNL     1       6.761  27.044  56.890  1.00  0.00     0.167 A 
HETATM    5  N   UNL     1       5.455  27.257  56.952  1.00  0.00    -0.128 NA
HETATM    6  N   UNL     1       5.240  28.535  57.382  1.00  0.00    -0.122 NA
BRANCH   3   7
HETATM    7  C   UNL     1       8.841  28.433  57.363  1.00  0.00     0.159 C 
BRANCH   7   8
HETATM    8  C   UNL     1       9.347  29.216  56.187  1.00  0.00    -0.017 C 
HETATM    9  C   UNL     1      10.457  29.965  56.202  1.00  0.00     0.008 C 
ENDBRANCH   7   8
ENDBRANCH   3   7
BRANCH   4  10
HETATM   10  C   UNL     1       7.353  25.847  56.295  1.00  0.00     0.046 A 
HETATM   11  C   UNL     1       8.013  24.915  57.117  1.00  0.00     0.079 A 
HETATM   12  C   UNL     1       8.548  23.739  56.597  1.00  0.00     0.039 A 
HETATM   13  C   UNL     1       8.462  23.488  55.230  1.00  0.00     0.022 A 
HETATM   14  C   UNL     1       7.851  24.425  54.397  1.00  0.00     0.012 A 
HETATM   15 BR   UNL     1       7.754  24.096  52.537  1.00  0.00    -0.051 Br
HETATM   16  C   UNL     1       7.305  25.602  54.918  1.00  0.00     0.037 A 
BRANCH  11  17
HETATM   17  O   UNL     1       8.165  25.104  58.466  1.00  0.00    -0.360 OA
HETATM   18  H   UNL     1       8.955  24.606  58.760  1.00  0.00     0.217 HD
ENDBRANCH  11  17
ENDBRANCH   4  10
ENDBRANCH   1   2
BRANCH   1  19
HETATM   19  C   UNL     1       7.794  30.600  59.349  1.00  0.00     0.185 C 
BRANCH  19  20
HETATM   20  C   UNL     1       7.648  31.708  60.384  1.00  0.00     0.231 C 
HETATM   21  N   UNL     1       7.176  31.288  61.613  1.00  0.00    -0.326 N 
HETATM   22  H   UNL     1       7.077  30.282  61.738  1.00  0.00     0.169 HD
HETATM   23  O   UNL     1       7.889  32.874  60.075  1.00  0.00    -0.272 OA
BRANCH  21  24
HETATM   24  C   UNL     1       6.839  32.077  62.731  1.00  0.00     0.037 A 
HETATM   25  C   UNL     1       5.522  32.314  63.139  1.00  0.00     0.061 A 
HETATM   26  C   UNL     1       5.349  33.073  64.275  1.00  0.00     0.065 A 
HETATM   27  C   UNL     1       6.418  33.608  64.989  1.00  0.00     0.063 A 
HETATM   28  N   UNL     1       4.175  33.435  64.929  1.00  0.00    -0.306 N 
HETATM   29  N   UNL     1       5.903  34.307  66.075  1.00  0.00    -0.307 N 
HETATM   30  C   UNL     1       7.720  33.405  64.612  1.00  0.00     0.034 A 
HETATM   31  C   UNL     1       4.505  34.202  66.056  1.00  0.00     0.325 A 
HETATM   32  H   UNL     1       6.417  34.800  66.785  1.00  0.00     0.170 HD
HETATM   33  O   UNL     1       3.730  34.680  66.865  1.00  0.00    -0.247 OA
HETATM   34  C   UNL     1       7.924  32.617  63.472  1.00  0.00     0.032 A 
HETATM   35  H   UNL     1       3.234  33.188  64.669  1.00  0.00     0.170 HD
ENDBRANCH  21  24
ENDBRANCH  19  20
ENDBRANCH   1  19
TORSDOF 8
ENDMDL
MODEL 2
REMARK VINA RESULT:     -10.2      1.432      1.800
REMARK  8 active torsions:
REMARK  status: ('A' for Active; 'I' for Inactive)
REMARK    1  A    between atoms: C_2  and  C_3 
REMARK    2  A    between atoms: C_3  and  N_4 
REMARK    3  A    between atoms: C_5  and  S_6 
REMARK    4  A    between atoms: S_6  and  C_7 
REMARK    5  A    between atoms: C_7  and  C_8 
REMARK       I    between atoms: C_8  and  N_9 
REMARK    6  A    between atoms: N_9  and  C_10 
REMARK    7  A    between atoms: C_23  and  C_24 
REMARK    8  A    between atoms: C_25  and  O_26 
ROOT
HETATM    1  S   UNL     1       6.796  30.785  57.774  1.00  0.00    -0.081 SA
ENDROOT
BRANCH   1   2
HETATM    2  C   UNL     1       6.582  29.182  57.172  1.00  0.00     0.192 A 
HETATM    3  N   UNL     1       7.442  28.522  56.335  1.00  0.00    -0.304 N 
HETATM    4  C   UNL     1       6.802  27.337  56.019  1.00  0.00     0.167 A 
HETATM    5  N   UNL     1       5.657  27.293  56.683  1.00  0.00    -0.128 NA
HETATM    6  N   UNL     1       5.533  28.437  57.419  1.00  0.00    -0.122 NA
BRANCH   3   7
HETATM    7  C   UNL     1       8.711  29.009  55.822  1.00  0.00     0.159 C 
BRANCH   7   8
HETATM    8  C   UNL     1       9.834  28.821  56.799  1.00  0.00    -0.017 C 
HETATM    9  C   UNL     1      10.910  29.615  56.872  1.00  0.00     0.008 C 
ENDBRANCH   7   8
ENDBRANCH   3   7
BRANCH   4  10
HETATM   10  C   UNL     1       7.174  26.364  54.994  1.00  0.00     0.046 A 
HETATM   11  C   UNL     1       7.019  26.692  53.635  1.00  0.00     0.079 A 
HETATM   12  C   UNL     1       7.406  25.812  52.626  1.00  0.00     0.039 A 
HETATM   13  C   UNL     1       7.930  24.566  52.963  1.00  0.00     0.022 A 
HETATM   14  C   UNL     1       8.048  24.210  54.306  1.00  0.00     0.012 A 
HETATM   15 BR   UNL     1       8.737  22.510  54.764  1.00  0.00    -0.051 Br
HETATM   16  C   UNL     1       7.667  25.095  55.319  1.00  0.00     0.037 A 
BRANCH  11  17
HETATM   17  O   UNL     1       6.484  27.885  53.224  1.00  0.00    -0.360 OA
HETATM   18  H   UNL     1       5.511  27.784  53.167  1.00  0.00     0.217 HD
ENDBRANCH  11  17
ENDBRANCH   4  10
ENDBRANCH   1   2
BRANCH   1  19
HETATM   19  C   UNL     1       7.818  30.444  59.244  1.00  0.00     0.185 C 
BRANCH  19  20
HETATM   20  C   UNL     1       7.750  31.545  60.294  1.00  0.00     0.231 C 
HETATM   21  N   UNL     1       7.167  31.165  61.488  1.00  0.00    -0.326 N 
HETATM   22  H   UNL     1       6.943  30.177  61.585  1.00  0.00     0.169 HD
HETATM   23  O   UNL     1       8.144  32.679  60.023  1.00  0.00    -0.272 OA
BRANCH  21  24
HETATM   24  C   UNL     1       6.867  31.972  62.604  1.00  0.00     0.037 A 
HETATM   25  C   UNL     1       5.566  32.196  63.067  1.00  0.00     0.061 A 
HETATM   26  C   UNL     1       5.430  32.975  64.194  1.00  0.00     0.065 A 
HETATM   27  C   UNL     1       6.522  33.541  64.849  1.00  0.00     0.063 A 
HETATM   28  N   UNL     1       4.281  33.332  64.893  1.00  0.00    -0.306 N 
HETATM   29  N   UNL     1       6.044  34.254  65.942  1.00  0.00    -0.307 N 
HETATM   30  C   UNL     1       7.809  33.351  64.417  1.00  0.00     0.034 A 
HETATM   31  C   UNL     1       4.648  34.126  65.989  1.00  0.00     0.325 A 
HETATM   32  H   UNL     1       6.581  34.769  66.619  1.00  0.00     0.170 HD
HETATM   33  O   UNL     1       3.903  34.608  66.822  1.00  0.00    -0.247 OA
HETATM   34  C   UNL     1       7.975  32.544  63.285  1.00  0.00     0.032 A 
HETATM   35  H   UNL     1       3.334  33.065  64.680  1.00  0.00     0.170 HD
ENDBRANCH  21  24
ENDBRANCH  19  20
ENDBRANCH   1  19
TORSDOF 8
ENDMDL
MODEL 3
REMARK VINA RESULT:     -10.1      2.027      2.885
REMARK  8 active torsions:
REMARK  status: ('A' for Active; 'I' for Inactive)
REMARK    1  A    between atoms: C_2  and  C_3 
REMARK    2  A    between atoms: C_3  and  N_4 
REMARK    3  A    between atoms: C_5  and  S_6 
REMARK    4  A    between atoms: S_6  and  C_7 
REMARK    5  A    between atoms: C_7  and  C_8 
REMARK       I    between atoms: C_8  and  N_9 
REMARK    6  A    between atoms: N_9  and  C_10 
REMARK    7  A    between atoms: C_23  and  C_24 
REMARK    8  A    between atoms: C_25  and  O_26 
ROOT
HETATM    1  S   UNL     1       6.076  30.133  57.374  1.00  0.00    -0.081 SA
ENDROOT
BRANCH   1   2
HETATM    2  C   UNL     1       6.851  29.160  56.178  1.00  0.00     0.192 A 
HETATM    3  N   UNL     1       6.331  28.025  55.613  1.00  0.00    -0.304 N 
HETATM    4  C   UNL     1       7.345  27.519  54.820  1.00  0.00     0.167 A 
HETATM    5  N   UNL     1       8.376  28.348  54.882  1.00  0.00    -0.128 NA
HETATM    6  N   UNL     1       8.056  29.383  55.714  1.00  0.00    -0.122 NA
BRANCH   3   7
HETATM    7  C   UNL     1       5.027  27.439  55.868  1.00  0.00     0.159 C 
BRANCH   7   8
HETATM    8  C   UNL     1       5.031  26.530  57.062  1.00  0.00    -0.017 C 
HETATM    9  C   UNL     1       5.049  25.193  56.990  1.00  0.00     0.008 C 
ENDBRANCH   7   8
ENDBRANCH   3   7
BRANCH   4  10
HETATM   10  C   UNL     1       7.403  26.212  54.169  1.00  0.00     0.046 A 
HETATM   11  C   UNL     1       6.898  26.061  52.864  1.00  0.00     0.079 A 
HETATM   12  C   UNL     1       6.978  24.845  52.190  1.00  0.00     0.039 A 
HETATM   13  C   UNL     1       7.538  23.740  52.827  1.00  0.00     0.022 A 
HETATM   14  C   UNL     1       8.003  23.863  54.136  1.00  0.00     0.012 A 
HETATM   15 BR   UNL     1       8.743  22.359  55.009  1.00  0.00    -0.051 Br
HETATM   16  C   UNL     1       7.931  25.086  54.811  1.00  0.00     0.037 A 
BRANCH  11  17
HETATM   17  O   UNL     1       6.305  27.092  52.183  1.00  0.00    -0.360 OA
HETATM   18  H   UNL     1       5.516  26.742  51.720  1.00  0.00     0.217 HD
ENDBRANCH  11  17
ENDBRANCH   4  10
ENDBRANCH   1   2
BRANCH   1  19
HETATM   19  C   UNL     1       7.476  30.435  58.502  1.00  0.00     0.185 C 
BRANCH  19  20
HETATM   20  C   UNL     1       7.189  31.505  59.547  1.00  0.00     0.231 C 
HETATM   21  N   UNL     1       7.318  31.079  60.856  1.00  0.00    -0.326 N 
HETATM   22  H   UNL     1       7.690  30.141  60.990  1.00  0.00     0.169 HD
HETATM   23  O   UNL     1       6.818  32.624  59.196  1.00  0.00    -0.272 OA
BRANCH  21  24
HETATM   24  C   UNL     1       7.024  31.793  62.034  1.00  0.00     0.037 A 
HETATM   25  C   UNL     1       5.722  32.011  62.500  1.00  0.00     0.061 A 
HETATM   26  C   UNL     1       5.592  32.692  63.690  1.00  0.00     0.065 A 
HETATM   27  C   UNL     1       6.688  33.169  64.404  1.00  0.00     0.063 A 
HETATM   28  N   UNL     1       4.443  33.018  64.404  1.00  0.00    -0.306 N 
HETATM   29  N   UNL     1       6.214  33.797  65.550  1.00  0.00    -0.307 N 
HETATM   30  C   UNL     1       7.976  32.983  63.972  1.00  0.00     0.034 A 
HETATM   31  C   UNL     1       4.815  33.703  65.569  1.00  0.00     0.325 A 
HETATM   32  H   UNL     1       6.756  34.237  66.275  1.00  0.00     0.170 HD
HETATM   33  O   UNL     1       4.071  34.130  66.433  1.00  0.00    -0.247 OA
HETATM   34  C   UNL     1       8.137  32.274  62.775  1.00  0.00     0.032 A 
HETATM   35  H   UNL     1       3.492  32.795  64.158  1.00  0.00     0.170 HD
ENDBRANCH  21  24
ENDBRANCH  19  20
ENDBRANCH   1  19
TORSDOF 8
ENDMDL
MODEL 4
REMARK VINA RESULT:      -9.5      4.126     10.879
REMARK  8 active torsions:
REMARK  status: ('A' for Active; 'I' for Inactive)
REMARK    1  A    between atoms: C_2  and  C_3 
REMARK    2  A    between atoms: C_3  and  N_4 
REMARK    3  A    between atoms: C_5  and  S_6 
REMARK    4  A    between atoms: S_6  and  C_7 
REMARK    5  A    between atoms: C_7  and  C_8 
REMARK       I    between atoms: C_8  and  N_9 
REMARK    6  A    between atoms: N_9  and  C_10 
REMARK    7  A    between atoms: C_23  and  C_24 
REMARK    8  A    between atoms: C_25  and  O_26 
ROOT
HETATM    1  S   UNL     1       8.174  30.274  59.122  1.00  0.00    -0.081 SA
ENDROOT
BRANCH   1   2
HETATM    2  C   UNL     1       7.127  31.605  59.454  1.00  0.00     0.192 A 
HETATM    3  N   UNL     1       6.748  32.031  60.699  1.00  0.00    -0.304 N 
HETATM    4  C   UNL     1       5.814  33.026  60.472  1.00  0.00     0.167 A 
HETATM    5  N   UNL     1       5.702  33.202  59.164  1.00  0.00    -0.128 NA
HETATM    6  N   UNL     1       6.540  32.328  58.532  1.00  0.00    -0.122 NA
BRANCH   3   7
HETATM    7  C   UNL     1       7.172  31.487  61.977  1.00  0.00     0.159 C 
BRANCH   7   8
HETATM    8  C   UNL     1       8.123  32.395  62.700  1.00  0.00    -0.017 C 
HETATM    9  C   UNL     1       7.903  32.897  63.922  1.00  0.00     0.008 C 
ENDBRANCH   7   8
ENDBRANCH   3   7
BRANCH   4  10
HETATM   10  C   UNL     1       4.932  33.664  61.447  1.00  0.00     0.046 A 
HETATM   11  C   UNL     1       3.643  33.144  61.664  1.00  0.00     0.079 A 
HETATM   12  C   UNL     1       2.789  33.693  62.619  1.00  0.00     0.039 A 
HETATM   13  C   UNL     1       3.201  34.802  63.355  1.00  0.00     0.022 A 
HETATM   14  C   UNL     1       4.459  35.355  63.118  1.00  0.00     0.012 A 
HETATM   15 BR   UNL     1       5.009  36.874  64.100  1.00  0.00    -0.051 Br
HETATM   16  C   UNL     1       5.320  34.800  62.167  1.00  0.00     0.037 A 
BRANCH  11  17
HETATM   17  O   UNL     1       3.154  32.075  60.960  1.00  0.00    -0.360 OA
HETATM   18  H   UNL     1       2.364  32.369  60.461  1.00  0.00     0.217 HD
ENDBRANCH  11  17
ENDBRANCH   4  10
ENDBRANCH   1   2
BRANCH   1  19
HETATM   19  C   UNL     1       7.248  29.462  57.779  1.00  0.00     0.185 C 
BRANCH  19  20
HETATM   20  C   UNL     1       7.956  28.237  57.213  1.00  0.00     0.231 C 
HETATM   21  N   UNL     1       7.111  27.233  56.781  1.00  0.00    -0.326 N 
HETATM   22  H   UNL     1       6.116  27.449  56.784  1.00  0.00     0.169 HD
HETATM   23  O   UNL     1       9.185  28.180  57.220  1.00  0.00    -0.272 OA
BRANCH  21  24
HETATM   24  C   UNL     1       7.456  25.950  56.310  1.00  0.00     0.037 A 
HETATM   25  C   UNL     1       7.822  24.893  57.150  1.00  0.00     0.061 A 
HETATM   26  C   UNL     1       8.093  23.684  56.548  1.00  0.00     0.065 A 
HETATM   27  C   UNL     1       8.032  23.504  55.169  1.00  0.00     0.063 A 
HETATM   28  N   UNL     1       8.440  22.465  57.123  1.00  0.00    -0.306 N 
HETATM   29  N   UNL     1       8.351  22.179  54.894  1.00  0.00    -0.307 N 
HETATM   30  C   UNL     1       7.687  24.520  54.316  1.00  0.00     0.034 A 
HETATM   31  C   UNL     1       8.600  21.515  56.104  1.00  0.00     0.325 A 
HETATM   32  H   UNL     1       8.388  21.733  53.993  1.00  0.00     0.170 HD
HETATM   33  O   UNL     1       8.894  20.342  56.240  1.00  0.00    -0.247 OA
HETATM   34  C   UNL     1       7.385  25.754  54.905  1.00  0.00     0.032 A 
HETATM   35  H   UNL     1       8.548  22.265  58.104  1.00  0.00     0.170 HD
ENDBRANCH  21  24
ENDBRANCH  19  20
ENDBRANCH   1  19
TORSDOF 8
ENDMDL
MODEL 5
REMARK VINA RESULT:      -9.4      7.559     11.830
REMARK  8 active torsions:
REMARK  status: ('A' for Active; 'I' for Inactive)
REMARK    1  A    between atoms: C_2  and  C_3 
REMARK    2  A    between atoms: C_3  and  N_4 
REMARK    3  A    between atoms: C_5  and  S_6 
REMARK    4  A    between atoms: S_6  and  C_7 
REMARK    5  A    between atoms: C_7  and  C_8 
REMARK       I    between atoms: C_8  and  N_9 
REMARK    6  A    between atoms: N_9  and  C_10 
REMARK    7  A    between atoms: C_23  and  C_24 
REMARK    8  A    between atoms: C_25  and  O_26 
ROOT
HETATM    1  S   UNL     1       4.552  28.367  54.191  1.00  0.00    -0.081 SA
ENDROOT
BRANCH   1   2
HETATM    2  C   UNL     1       5.870  27.321  54.576  1.00  0.00     0.192 A 
HETATM    3  N   UNL     1       5.908  25.970  54.355  1.00  0.00    -0.304 N 
HETATM    4  C   UNL     1       7.088  25.541  54.936  1.00  0.00     0.167 A 
HETATM    5  N   UNL     1       7.722  26.599  55.419  1.00  0.00    -0.128 NA
HETATM    6  N   UNL     1       6.970  27.711  55.173  1.00  0.00    -0.122 NA
BRANCH   3   7
HETATM    7  C   UNL     1       4.882  25.157  53.725  1.00  0.00     0.159 C 
BRANCH   7   8
HETATM    8  C   UNL     1       5.144  24.935  52.264  1.00  0.00    -0.017 C 
HETATM    9  C   UNL     1       6.204  25.423  51.606  1.00  0.00     0.008 C 
ENDBRANCH   7   8
ENDBRANCH   3   7
BRANCH   4  10
HETATM   10  C   UNL     1       7.515  24.166  55.183  1.00  0.00     0.046 A 
HETATM   11  C   UNL     1       7.801  23.750  56.496  1.00  0.00     0.079 A 
HETATM   12  C   UNL     1       8.165  22.436  56.780  1.00  0.00     0.039 A 
HETATM   13  C   UNL     1       8.282  21.514  55.742  1.00  0.00     0.022 A 
HETATM   14  C   UNL     1       8.045  21.923  54.430  1.00  0.00     0.012 A 
HETATM   15 BR   UNL     1       8.226  20.679  53.018  1.00  0.00    -0.051 Br
HETATM   16  C   UNL     1       7.672  23.240  54.145  1.00  0.00     0.037 A 
BRANCH  11  17
HETATM   17  O   UNL     1       7.737  24.604  57.566  1.00  0.00    -0.360 OA
HETATM   18  H   UNL     1       7.035  24.288  58.172  1.00  0.00     0.217 HD
ENDBRANCH  11  17
ENDBRANCH   4  10
ENDBRANCH   1   2
BRANCH   1  19
HETATM   19  C   UNL     1       4.923  28.725  52.443  1.00  0.00     0.185 C 
BRANCH  19  20
HETATM   20  C   UNL     1       3.745  28.467  51.512  1.00  0.00     0.231 C 
HETATM   21  N   UNL     1       4.070  27.805  50.343  1.00  0.00    -0.326 N 
HETATM   22  H   UNL     1       5.028  27.465  50.269  1.00  0.00     0.169 HD
HETATM   23  O   UNL     1       2.628  28.890  51.803  1.00  0.00    -0.272 OA
BRANCH  21  24
HETATM   24  C   UNL     1       3.234  27.516  49.247  1.00  0.00     0.037 A 
HETATM   25  C   UNL     1       2.133  28.302  48.887  1.00  0.00     0.061 A 
HETATM   26  C   UNL     1       1.432  27.917  47.767  1.00  0.00     0.065 A 
HETATM   27  C   UNL     1       1.770  26.790  47.022  1.00  0.00     0.063 A 
HETATM   28  N   UNL     1       0.333  28.517  47.158  1.00  0.00    -0.306 N 
HETATM   29  N   UNL     1       0.875  26.691  45.963  1.00  0.00    -0.307 N 
HETATM   30  C   UNL     1       2.835  25.991  47.351  1.00  0.00     0.034 A 
HETATM   31  C   UNL     1      -0.023  27.766  46.029  1.00  0.00     0.325 A 
HETATM   32  H   UNL     1       0.857  25.990  45.240  1.00  0.00     0.170 HD
HETATM   33  O   UNL     1      -0.931  28.002  45.253  1.00  0.00    -0.247 OA
HETATM   34  C   UNL     1       3.578  26.374  48.475  1.00  0.00     0.032 A 
HETATM   35  H   UNL     1      -0.136  29.359  47.448  1.00  0.00     0.170 HD
ENDBRANCH  21  24
ENDBRANCH  19  20
ENDBRANCH   1  19
TORSDOF 8
ENDMDL
MODEL 6
REMARK VINA RESULT:      -9.4      2.334      3.449
REMARK  8 active torsions:
REMARK  status: ('A' for Active; 'I' for Inactive)
REMARK    1  A    between atoms: C_2  and  C_3 
REMARK    2  A    between atoms: C_3  and  N_4 
REMARK    3  A    between atoms: C_5  and  S_6 
REMARK    4  A    between atoms: S_6  and  C_7 
REMARK    5  A    between atoms: C_7  and  C_8 
REMARK       I    between atoms: C_8  and  N_9 
REMARK    6  A    between atoms: N_9  and  C_10 
REMARK    7  A    between atoms: C_23  and  C_24 
REMARK    8  A    between atoms: C_25  and  O_26 
ROOT
HETATM    1  S   UNL     1       6.596  27.689  56.976  1.00  0.00    -0.081 SA
ENDROOT
BRANCH   1   2
HETATM    2  C   UNL     1       7.506  26.222  56.967  1.00  0.00     0.192 A 
HETATM    3  N   UNL     1       7.345  25.189  56.082  1.00  0.00    -0.304 N 
HETATM    4  C   UNL     1       8.186  24.190  56.537  1.00  0.00     0.167 A 
HETATM    5  N   UNL     1       8.838  24.644  57.597  1.00  0.00    -0.128 NA
HETATM    6  N   UNL     1       8.426  25.921  57.849  1.00  0.00    -0.122 NA
BRANCH   3   7
HETATM    7  C   UNL     1       6.422  25.131  54.963  1.00  0.00     0.159 C 
BRANCH   7   8
HETATM    8  C   UNL     1       6.934  25.864  53.758  1.00  0.00    -0.017 C 
HETATM    9  C   UNL     1       7.593  25.283  52.747  1.00  0.00     0.008 C 
ENDBRANCH   7   8
ENDBRANCH   3   7
BRANCH   4  10
HETATM   10  C   UNL     1       8.243  22.798  56.095  1.00  0.00     0.046 A 
HETATM   11  C   UNL     1       8.291  21.765  57.049  1.00  0.00     0.079 A 
HETATM   12  C   UNL     1       8.297  20.425  56.670  1.00  0.00     0.039 A 
HETATM   13  C   UNL     1       8.289  20.092  55.318  1.00  0.00     0.022 A 
HETATM   14  C   UNL     1       8.286  21.105  54.360  1.00  0.00     0.012 A 
HETATM   15 BR   UNL     1       8.298  20.654  52.524  1.00  0.00    -0.051 Br
HETATM   16  C   UNL     1       8.272  22.451  54.739  1.00  0.00     0.037 A 
BRANCH  11  17
HETATM   17  O   UNL     1       8.332  22.013  58.397  1.00  0.00    -0.360 OA
HETATM   18  H   UNL     1       7.856  22.852  58.571  1.00  0.00     0.217 HD
ENDBRANCH  11  17
ENDBRANCH   4  10
ENDBRANCH   1   2
BRANCH   1  19
HETATM   19  C   UNL     1       7.869  28.855  57.561  1.00  0.00     0.185 C 
BRANCH  19  20
HETATM   20  C   UNL     1       7.304  29.989  58.407  1.00  0.00     0.231 C 
HETATM   21  N   UNL     1       8.038  30.281  59.541  1.00  0.00    -0.326 N 
HETATM   22  H   UNL     1       8.925  29.791  59.642  1.00  0.00     0.169 HD
HETATM   23  O   UNL     1       6.244  30.525  58.088  1.00  0.00    -0.272 OA
BRANCH  21  24
HETATM   24  C   UNL     1       7.724  31.194  60.568  1.00  0.00     0.037 A 
HETATM   25  C   UNL     1       6.774  32.212  60.431  1.00  0.00     0.061 A 
HETATM   26  C   UNL     1       6.545  33.003  61.535  1.00  0.00     0.065 A 
HETATM   27  C   UNL     1       7.231  32.830  62.735  1.00  0.00     0.063 A 
HETATM   28  N   UNL     1       5.646  34.051  61.705  1.00  0.00    -0.306 N 
HETATM   29  N   UNL     1       6.762  33.777  63.638  1.00  0.00    -0.307 N 
HETATM   30  C   UNL     1       8.176  31.850  62.900  1.00  0.00     0.034 A 
HETATM   31  C   UNL     1       5.766  34.542  63.012  1.00  0.00     0.325 A 
HETATM   32  H   UNL     1       7.050  33.908  64.593  1.00  0.00     0.170 HD
HETATM   33  O   UNL     1       5.128  35.451  63.512  1.00  0.00    -0.247 OA
HETATM   34  C   UNL     1       8.411  31.018  61.799  1.00  0.00     0.032 A 
HETATM   35  H   UNL     1       4.994  34.408  61.024  1.00  0.00     0.170 HD
ENDBRANCH  21  24
ENDBRANCH  19  20
ENDBRANCH   1  19
TORSDOF 8
ENDMDL
MODEL 7
REMARK VINA RESULT:      -9.4      4.981     10.535
REMARK  8 active torsions:
REMARK  status: ('A' for Active; 'I' for Inactive)
REMARK    1  A    between atoms: C_2  and  C_3 
REMARK    2  A    between atoms: C_3  and  N_4 
REMARK    3  A    between atoms: C_5  and  S_6 
REMARK    4  A    between atoms: S_6  and  C_7 
REMARK    5  A    between atoms: C_7  and  C_8 
REMARK       I    between atoms: C_8  and  N_9 
REMARK    6  A    between atoms: N_9  and  C_10 
REMARK    7  A    between atoms: C_23  and  C_24 
REMARK    8  A    between atoms: C_25  and  O_26 
ROOT
HETATM    1  S   UNL     1       4.514  28.586  54.917  1.00  0.00    -0.081 SA
ENDROOT
BRANCH   1   2
HETATM    2  C   UNL     1       5.542  28.779  56.289  1.00  0.00     0.192 A 
HETATM    3  N   UNL     1       5.826  29.964  56.913  1.00  0.00    -0.304 N 
HETATM    4  C   UNL     1       6.783  29.653  57.863  1.00  0.00     0.167 A 
HETATM    5  N   UNL     1       6.998  28.347  57.824  1.00  0.00    -0.128 NA
HETATM    6  N   UNL     1       6.205  27.801  56.856  1.00  0.00    -0.122 NA
BRANCH   3   7
HETATM    7  C   UNL     1       5.299  31.276  56.581  1.00  0.00     0.159 C 
BRANCH   7   8
HETATM    8  C   UNL     1       3.967  31.537  57.220  1.00  0.00    -0.017 C 
HETATM    9  C   UNL     1       3.570  30.999  58.381  1.00  0.00     0.008 C 
ENDBRANCH   7   8
ENDBRANCH   3   7
BRANCH   4  10
HETATM   10  C   UNL     1       7.592  30.578  58.654  1.00  0.00     0.046 A 
HETATM   11  C   UNL     1       8.951  30.758  58.340  1.00  0.00     0.079 A 
HETATM   12  C   UNL     1       9.744  31.666  59.039  1.00  0.00     0.039 A 
HETATM   13  C   UNL     1       9.196  32.389  60.095  1.00  0.00     0.022 A 
HETATM   14  C   UNL     1       7.861  32.188  60.447  1.00  0.00     0.012 A 
HETATM   15 BR   UNL     1       7.122  33.152  61.895  1.00  0.00    -0.051 Br
HETATM   16  C   UNL     1       7.062  31.284  59.741  1.00  0.00     0.037 A 
BRANCH  11  17
HETATM   17  O   UNL     1       9.571  30.062  57.335  1.00  0.00    -0.360 OA
HETATM   18  H   UNL     1       9.179  30.340  56.481  1.00  0.00     0.217 HD
ENDBRANCH  11  17
ENDBRANCH   4  10
ENDBRANCH   1   2
BRANCH   1  19
HETATM   19  C   UNL     1       5.759  28.509  53.588  1.00  0.00     0.185 C 
BRANCH  19  20
HETATM   20  C   UNL     1       6.664  27.288  53.680  1.00  0.00     0.231 C 
HETATM   21  N   UNL     1       6.010  26.109  53.984  1.00  0.00    -0.326 N 
HETATM   22  H   UNL     1       4.993  26.152  54.010  1.00  0.00     0.169 HD
HETATM   23  O   UNL     1       7.880  27.412  53.544  1.00  0.00    -0.272 OA
BRANCH  21  24
HETATM   24  C   UNL     1       6.574  24.843  54.237  1.00  0.00     0.037 A 
HETATM   25  C   UNL     1       6.884  23.921  53.232  1.00  0.00     0.061 A 
HETATM   26  C   UNL     1       7.469  22.739  53.628  1.00  0.00     0.065 A 
HETATM   27  C   UNL     1       7.731  22.444  54.964  1.00  0.00     0.063 A 
HETATM   28  N   UNL     1       7.914  21.667  52.860  1.00  0.00    -0.306 N 
HETATM   29  N   UNL     1       8.326  21.189  55.018  1.00  0.00    -0.307 N 
HETATM   30  C   UNL     1       7.431  23.320  55.976  1.00  0.00     0.034 A 
HETATM   31  C   UNL     1       8.455  20.695  53.712  1.00  0.00     0.325 A 
HETATM   32  H   UNL     1       8.642  20.697  55.837  1.00  0.00     0.170 HD
HETATM   33  O   UNL     1       8.946  19.630  53.385  1.00  0.00    -0.247 OA
HETATM   34  C   UNL     1       6.855  24.539  55.596  1.00  0.00     0.032 A 
HETATM   35  H   UNL     1       7.882  21.585  51.857  1.00  0.00     0.170 HD
ENDBRANCH  21  24
ENDBRANCH  19  20
ENDBRANCH   1  19
TORSDOF 8
ENDMDL
MODEL 8
REMARK VINA RESULT:      -9.3      5.806      9.587
REMARK  8 active torsions:
REMARK  status: ('A' for Active; 'I' for Inactive)
REMARK    1  A    between atoms: C_2  and  C_3 
REMARK    2  A    between atoms: C_3  and  N_4 
REMARK    3  A    between atoms: C_5  and  S_6 
REMARK    4  A    between atoms: S_6  and  C_7 
REMARK    5  A    between atoms: C_7  and  C_8 
REMARK       I    between atoms: C_8  and  N_9 
REMARK    6  A    between atoms: N_9  and  C_10 
REMARK    7  A    between atoms: C_23  and  C_24 
REMARK    8  A    between atoms: C_25  and  O_26 
ROOT
HETATM    1  S   UNL     1       5.598  30.733  56.337  1.00  0.00    -0.081 SA
ENDROOT
BRANCH   1   2
HETATM    2  C   UNL     1       5.731  29.024  56.538  1.00  0.00     0.192 A 
HETATM    3  N   UNL     1       6.867  28.283  56.344  1.00  0.00    -0.304 N 
HETATM    4  C   UNL     1       6.469  26.967  56.489  1.00  0.00     0.167 A 
HETATM    5  N   UNL     1       5.183  26.952  56.805  1.00  0.00    -0.128 NA
HETATM    6  N   UNL     1       4.731  28.240  56.856  1.00  0.00    -0.122 NA
BRANCH   3   7
HETATM    7  C   UNL     1       8.181  28.778  55.974  1.00  0.00     0.159 C 
BRANCH   7   8
HETATM    8  C   UNL     1       9.138  28.783  57.130  1.00  0.00    -0.017 C 
HETATM    9  C   UNL     1      10.279  29.484  57.161  1.00  0.00     0.008 C 
ENDBRANCH   7   8
ENDBRANCH   3   7
BRANCH   4  10
HETATM   10  C   UNL     1       7.232  25.762  56.169  1.00  0.00     0.046 A 
HETATM   11  C   UNL     1       7.993  25.132  57.171  1.00  0.00     0.079 A 
HETATM   12  C   UNL     1       8.694  23.956  56.920  1.00  0.00     0.039 A 
HETATM   13  C   UNL     1       8.674  23.402  55.642  1.00  0.00     0.022 A 
HETATM   14  C   UNL     1       7.961  24.039  54.627  1.00  0.00     0.012 A 
HETATM   15 BR   UNL     1       7.952  23.301  52.887  1.00  0.00    -0.051 Br
HETATM   16  C   UNL     1       7.249  25.216  54.880  1.00  0.00     0.037 A 
BRANCH  11  17
HETATM   17  O   UNL     1       8.086  25.632  58.444  1.00  0.00    -0.360 OA
HETATM   18  H   UNL     1       8.642  26.438  58.419  1.00  0.00     0.217 HD
ENDBRANCH  11  17
ENDBRANCH   4  10
ENDBRANCH   1   2
BRANCH   1  19
HETATM   19  C   UNL     1       4.015  30.831  55.439  1.00  0.00     0.185 C 
BRANCH  19  20
HETATM   20  C   UNL     1       4.124  30.415  53.978  1.00  0.00     0.231 C 
HETATM   21  N   UNL     1       4.183  29.050  53.771  1.00  0.00    -0.326 N 
HETATM   22  H   UNL     1       4.043  28.464  54.592  1.00  0.00     0.169 HD
HETATM   23  O   UNL     1       4.208  31.273  53.100  1.00  0.00    -0.272 OA
BRANCH  21  24
HETATM   24  C   UNL     1       4.388  28.363  52.558  1.00  0.00     0.037 A 
HETATM   25  C   UNL     1       3.636  28.598  51.402  1.00  0.00     0.061 A 
HETATM   26  C   UNL     1       3.979  27.878  50.279  1.00  0.00     0.065 A 
HETATM   27  C   UNL     1       5.008  26.940  50.275  1.00  0.00     0.063 A 
HETATM   28  N   UNL     1       3.441  27.926  48.996  1.00  0.00    -0.306 N 
HETATM   29  N   UNL     1       5.097  26.404  48.996  1.00  0.00    -0.307 N 
HETATM   30  C   UNL     1       5.758  26.678  51.393  1.00  0.00     0.034 A 
HETATM   31  C   UNL     1       4.131  27.016  48.183  1.00  0.00     0.325 A 
HETATM   32  H   UNL     1       5.746  25.709  48.667  1.00  0.00     0.170 HD
HETATM   33  O   UNL     1       3.935  26.799  47.001  1.00  0.00    -0.247 OA
HETATM   34  C   UNL     1       5.444  27.413  52.542  1.00  0.00     0.032 A 
HETATM   35  H   UNL     1       2.693  28.518  48.673  1.00  0.00     0.170 HD
ENDBRANCH  21  24
ENDBRANCH  19  20
ENDBRANCH   1  19
TORSDOF 8
ENDMDL
MODEL 9
REMARK VINA RESULT:      -9.3      2.226      3.128
REMARK  8 active torsions:
REMARK  status: ('A' for Active; 'I' for Inactive)
REMARK    1  A    between atoms: C_2  and  C_3 
REMARK    2  A    between atoms: C_3  and  N_4 
REMARK    3  A    between atoms: C_5  and  S_6 
REMARK    4  A    between atoms: S_6  and  C_7 
REMARK    5  A    between atoms: C_7  and  C_8 
REMARK       I    between atoms: C_8  and  N_9 
REMARK    6  A    between atoms: N_9  and  C_10 
REMARK    7  A    between atoms: C_23  and  C_24 
REMARK    8  A    between atoms: C_25  and  O_26 
ROOT
HETATM    1  S   UNL     1       5.785  28.813  57.304  1.00  0.00    -0.081 SA
ENDROOT
BRANCH   1   2
HETATM    2  C   UNL     1       6.843  27.581  56.718  1.00  0.00     0.192 A 
HETATM    3  N   UNL     1       6.535  26.656  55.755  1.00  0.00    -0.304 N 
HETATM    4  C   UNL     1       7.624  25.805  55.710  1.00  0.00     0.167 A 
HETATM    5  N   UNL     1       8.535  26.249  56.563  1.00  0.00    -0.128 NA
HETATM    6  N   UNL     1       8.053  27.371  57.174  1.00  0.00    -0.122 NA
BRANCH   3   7
HETATM    7  C   UNL     1       5.291  26.547  55.013  1.00  0.00     0.159 C 
BRANCH   7   8
HETATM    8  C   UNL     1       5.180  27.577  53.927  1.00  0.00    -0.017 C 
HETATM    9  C   UNL     1       4.023  27.972  53.380  1.00  0.00     0.008 C 
ENDBRANCH   7   8
ENDBRANCH   3   7
BRANCH   4  10
HETATM   10  C   UNL     1       7.729  24.523  55.017  1.00  0.00     0.046 A 
HETATM   11  C   UNL     1       7.904  24.497  53.622  1.00  0.00     0.079 A 
HETATM   12  C   UNL     1       8.057  23.298  52.930  1.00  0.00     0.039 A 
HETATM   13  C   UNL     1       8.001  22.091  53.624  1.00  0.00     0.022 A 
HETATM   14  C   UNL     1       7.783  22.099  55.001  1.00  0.00     0.012 A 
HETATM   15 BR   UNL     1       7.685  20.461  55.940  1.00  0.00    -0.051 Br
HETATM   16  C   UNL     1       7.638  23.303  55.698  1.00  0.00     0.037 A 
BRANCH  11  17
HETATM   17  O   UNL     1       7.939  25.640  52.865  1.00  0.00    -0.360 OA
HETATM   18  H   UNL     1       8.085  25.386  51.930  1.00  0.00     0.217 HD
ENDBRANCH  11  17
ENDBRANCH   4  10
ENDBRANCH   1   2
BRANCH   1  19
HETATM   19  C   UNL     1       6.966  30.188  57.497  1.00  0.00     0.185 C 
BRANCH  19  20
HETATM   20  C   UNL     1       7.386  30.424  58.942  1.00  0.00     0.231 C 
HETATM   21  N   UNL     1       6.665  31.405  59.597  1.00  0.00    -0.326 N 
HETATM   22  H   UNL     1       5.869  31.790  59.093  1.00  0.00     0.169 HD
HETATM   23  O   UNL     1       8.336  29.803  59.415  1.00  0.00    -0.272 OA
BRANCH  21  24
HETATM   24  C   UNL     1       6.878  31.922  60.890  1.00  0.00     0.037 A 
HETATM   25  C   UNL     1       5.843  32.332  61.737  1.00  0.00     0.061 A 
HETATM   26  C   UNL     1       6.202  32.778  62.989  1.00  0.00     0.065 A 
HETATM   27  C   UNL     1       7.528  32.847  63.408  1.00  0.00     0.063 A 
HETATM   28  N   UNL     1       5.399  33.208  64.042  1.00  0.00    -0.306 N 
HETATM   29  N   UNL     1       7.542  33.328  64.712  1.00  0.00    -0.307 N 
HETATM   30  C   UNL     1       8.568  32.464  62.601  1.00  0.00     0.034 A 
HETATM   31  C   UNL     1       6.221  33.550  65.125  1.00  0.00     0.325 A 
HETATM   32  H   UNL     1       8.345  33.484  65.298  1.00  0.00     0.170 HD
HETATM   33  O   UNL     1       5.859  33.957  66.215  1.00  0.00    -0.247 OA
HETATM   34  C   UNL     1       8.227  31.985  61.330  1.00  0.00     0.032 A 
HETATM   35  H   UNL     1       4.393  33.259  64.057  1.00  0.00     0.170 HD
ENDBRANCH  21  24
ENDBRANCH  19  20
ENDBRANCH   1  19
TORSDOF 8
ENDMDL
MODEL 10
REMARK VINA RESULT:      -9.2      4.177     10.926
REMARK  8 active torsions:
REMARK  status: ('A' for Active; 'I' for Inactive)
REMARK    1  A    between atoms: C_2  and  C_3 
REMARK    2  A    between atoms: C_3  and  N_4 
REMARK    3  A    between atoms: C_5  and  S_6 
REMARK    4  A    between atoms: S_6  and  C_7 
REMARK    5  A    between atoms: C_7  and  C_8 
REMARK       I    between atoms: C_8  and  N_9 
REMARK    6  A    between atoms: N_9  and  C_10 
REMARK    7  A    between atoms: C_23  and  C_24 
REMARK    8  A    between atoms: C_25  and  O_26 
ROOT
HETATM    1  S   UNL     1       6.815  29.823  56.134  1.00  0.00    -0.081 SA
ENDROOT
BRANCH   1   2
HETATM    2  C   UNL     1       7.433  30.062  57.728  1.00  0.00     0.192 A 
HETATM    3  N   UNL     1       6.782  30.702  58.749  1.00  0.00    -0.304 N 
HETATM    4  C   UNL     1       7.702  30.769  59.779  1.00  0.00     0.167 A 
HETATM    5  N   UNL     1       8.808  30.153  59.391  1.00  0.00    -0.128 NA
HETATM    6  N   UNL     1       8.629  29.693  58.117  1.00  0.00    -0.122 NA
BRANCH   3   7
HETATM    7  C   UNL     1       5.443  31.265  58.716  1.00  0.00     0.159 C 
BRANCH   7   8
HETATM    8  C   UNL     1       5.361  32.498  57.865  1.00  0.00    -0.017 C 
HETATM    9  C   UNL     1       4.801  33.649  58.259  1.00  0.00     0.008 C 
ENDBRANCH   7   8
ENDBRANCH   3   7
BRANCH   4  10
HETATM   10  C   UNL     1       7.605  31.541  61.017  1.00  0.00     0.046 A 
HETATM   11  C   UNL     1       8.236  31.070  62.182  1.00  0.00     0.079 A 
HETATM   12  C   UNL     1       8.208  31.799  63.369  1.00  0.00     0.039 A 
HETATM   13  C   UNL     1       7.513  33.005  63.420  1.00  0.00     0.022 A 
HETATM   14  C   UNL     1       6.844  33.461  62.285  1.00  0.00     0.012 A 
HETATM   15 BR   UNL     1       5.880  35.086  62.360  1.00  0.00    -0.051 Br
HETATM   16  C   UNL     1       6.879  32.735  61.091  1.00  0.00     0.037 A 
BRANCH  11  17
HETATM   17  O   UNL     1       8.914  29.880  62.220  1.00  0.00    -0.360 OA
HETATM   18  H   UNL     1       9.839  30.042  61.939  1.00  0.00     0.217 HD
ENDBRANCH  11  17
ENDBRANCH   4  10
ENDBRANCH   1   2
BRANCH   1  19
HETATM   19  C   UNL     1       6.047  28.181  56.329  1.00  0.00     0.185 C 
BRANCH  19  20
HETATM   20  C   UNL     1       6.967  27.034  55.930  1.00  0.00     0.231 C 
HETATM   21  N   UNL     1       6.409  26.132  55.044  1.00  0.00    -0.326 N 
HETATM   22  H   UNL     1       5.494  26.376  54.669  1.00  0.00     0.169 HD
HETATM   23  O   UNL     1       8.085  26.938  56.434  1.00  0.00    -0.272 OA
BRANCH  21  24
HETATM   24  C   UNL     1       6.960  24.924  54.572  1.00  0.00     0.037 A 
HETATM   25  C   UNL     1       7.147  23.795  55.376  1.00  0.00     0.061 A 
HETATM   26  C   UNL     1       7.660  22.672  54.765  1.00  0.00     0.065 A 
HETATM   27  C   UNL     1       8.003  22.645  53.416  1.00  0.00     0.063 A 
HETATM   28  N   UNL     1       7.914  21.411  55.296  1.00  0.00    -0.306 N 
HETATM   29  N   UNL     1       8.478  21.373  53.119  1.00  0.00    -0.307 N 
HETATM   30  C   UNL     1       7.844  23.736  52.601  1.00  0.00     0.034 A 
HETATM   31  C   UNL     1       8.421  20.588  54.280  1.00  0.00     0.325 A 
HETATM   32  H   UNL     1       8.798  21.031  52.228  1.00  0.00     0.170 HD
HETATM   33  O   UNL     1       8.745  19.419  54.382  1.00  0.00    -0.247 OA
HETATM   34  C   UNL     1       7.303  24.884  53.194  1.00  0.00     0.032 A 
HETATM   35  H   UNL     1       7.754  21.108  56.243  1.00  0.00     0.170 HD
ENDBRANCH  21  24
ENDBRANCH  19  20
ENDBRANCH   1  19
TORSDOF 8
ENDMDL
