MODEL 1
REMARK VINA RESULT:      -9.2      0.000      0.000
REMARK  5 active torsions:
REMARK  status: ('A' for Active; 'I' for Inactive)
REMARK    1  A    between atoms: C_4  and  N_5 
REMARK    2  A    between atoms: C_6  and  C_8 
REMARK    3  A    between atoms: C_6  and  O_7 
REMARK       I    between atoms: C_8  and  N_9 
REMARK    4  A    between atoms: N_9  and  C_10 
REMARK    5  A    between atoms: C_10  and  C_11 
ROOT
HETATM    1  N   UNL     1       5.354  27.188  54.412  1.00  0.00    -0.254 N 
HETATM    2  C   UNL     1       5.277  26.342  53.207  1.00  0.00     0.256 C 
HETATM    3  C   UNL     1       4.769  27.097  51.993  1.00  0.00     0.035 A 
HETATM    4  C   UNL     1       3.954  28.205  52.214  1.00  0.00     0.048 A 
HETATM    5  N   UNL     1       3.719  28.617  53.518  1.00  0.00    -0.308 N 
HETATM    6  C   UNL     1       4.384  28.159  54.620  1.00  0.00     0.330 C 
HETATM    7  O   UNL     1       4.129  28.688  55.703  1.00  0.00    -0.246 OA
HETATM    8  C   UNL     1       4.986  26.683  50.667  1.00  0.00     0.034 A 
HETATM    9  C   UNL     1       4.422  27.394  49.604  1.00  0.00     0.011 A 
HETATM   10 BR   UNL     1       4.750  26.839  47.826  1.00  0.00    -0.051 Br
HETATM   11  C   UNL     1       3.614  28.502  49.843  1.00  0.00     0.021 A 
HETATM   12  C   UNL     1       3.370  28.904  51.155  1.00  0.00     0.031 A 
HETATM   13  H   UNL     1       3.094  29.391  53.703  1.00  0.00     0.170 HD
ENDROOT
BRANCH   2  14
HETATM   14  C   UNL     1       6.627  25.579  52.865  1.00  0.00     0.279 C 
HETATM   15  N   UNL     1       6.507  24.200  52.898  1.00  0.00    -0.352 N 
HETATM   16  H   UNL     1       5.564  23.826  52.830  1.00  0.00     0.162 HD
HETATM   17  O   UNL     1       7.700  26.138  52.641  1.00  0.00    -0.268 OA
BRANCH  15  18
HETATM   18  C   UNL     1       7.614  23.326  52.609  1.00  0.00     0.168 C 
BRANCH  18  19
HETATM   19  C   UNL     1       7.740  22.363  53.744  1.00  0.00     0.000 A 
HETATM   20  S   UNL     1       8.021  20.700  53.447  1.00  0.00    -0.105 SA
HETATM   21  C   UNL     1       8.019  20.336  55.118  1.00  0.00     0.050 A 
HETATM   22  C   UNL     1       7.805  21.455  55.891  1.00  0.00     0.008 A 
HETATM   23  C   UNL     1       7.641  22.626  55.097  1.00  0.00     0.017 A 
ENDBRANCH  18  19
ENDBRANCH  15  18
ENDBRANCH   2  14
BRANCH   2  24
HETATM   24  O   UNL     1       4.271  25.347  53.479  1.00  0.00    -0.359 OA
HETATM   25  H   UNL     1       4.465  25.063  54.388  1.00  0.00     0.213 HD
ENDBRANCH   2  24
BRANCH   1  26
HETATM   26  C   UNL     1       6.111  26.723  55.534  1.00  0.00     0.042 A 
HETATM   27  C   UNL     1       5.668  25.646  56.310  1.00  0.00     0.030 A 
HETATM   28  C   UNL     1       6.422  25.200  57.399  1.00  0.00     0.002 A 
HETATM   29  C   UNL     1       7.614  25.839  57.734  1.00  0.00     0.000 A 
HETATM   30  C   UNL     1       8.046  26.933  56.988  1.00  0.00     0.002 A 
HETATM   31  C   UNL     1       7.294  27.377  55.898  1.00  0.00     0.030 A 
ENDBRANCH   1  26
TORSDOF 5
ENDMDL
MODEL 2
REMARK VINA RESULT:      -8.4      2.923      5.787
REMARK  5 active torsions:
REMARK  status: ('A' for Active; 'I' for Inactive)
REMARK    1  A    between atoms: C_4  and  N_5 
REMARK    2  A    between atoms: C_6  and  C_8 
REMARK    3  A    between atoms: C_6  and  O_7 
REMARK       I    between atoms: C_8  and  N_9 
REMARK    4  A    between atoms: N_9  and  C_10 
REMARK    5  A    between atoms: C_10  and  C_11 
ROOT
HETATM    1  N   UNL     1       7.107  25.372  55.387  1.00  0.00    -0.254 N 
HETATM    2  C   UNL     1       5.787  25.955  55.084  1.00  0.00     0.256 C 
HETATM    3  C   UNL     1       5.708  27.432  55.422  1.00  0.00     0.035 A 
HETATM    4  C   UNL     1       6.560  27.916  56.413  1.00  0.00     0.048 A 
HETATM    5  N   UNL     1       7.491  27.056  56.977  1.00  0.00    -0.308 N 
HETATM    6  C   UNL     1       7.801  25.811  56.506  1.00  0.00     0.330 C 
HETATM    7  O   UNL     1       8.718  25.202  57.058  1.00  0.00    -0.246 OA
HETATM    8  C   UNL     1       4.760  28.312  54.870  1.00  0.00     0.034 A 
HETATM    9  C   UNL     1       4.706  29.644  55.289  1.00  0.00     0.011 A 
HETATM   10 BR   UNL     1       3.444  30.819  54.513  1.00  0.00    -0.051 Br
HETATM   11  C   UNL     1       5.568  30.111  56.277  1.00  0.00     0.021 A 
HETATM   12  C   UNL     1       6.493  29.241  56.850  1.00  0.00     0.031 A 
HETATM   13  H   UNL     1       8.088  27.374  57.730  1.00  0.00     0.170 HD
ENDROOT
BRANCH   2  14
HETATM   14  C   UNL     1       5.290  25.695  53.599  1.00  0.00     0.279 C 
HETATM   15  N   UNL     1       5.883  26.525  52.663  1.00  0.00    -0.352 N 
HETATM   16  H   UNL     1       6.750  26.974  52.943  1.00  0.00     0.162 HD
HETATM   17  O   UNL     1       4.424  24.875  53.294  1.00  0.00    -0.268 OA
BRANCH  15  18
HETATM   18  C   UNL     1       5.574  26.441  51.259  1.00  0.00     0.168 C 
BRANCH  18  19
HETATM   19  C   UNL     1       5.429  27.836  50.745  1.00  0.00     0.000 A 
HETATM   20  S   UNL     1       5.068  28.122  49.095  1.00  0.00    -0.105 SA
HETATM   21  C   UNL     1       5.088  29.818  49.318  1.00  0.00     0.050 A 
HETATM   22  C   UNL     1       5.368  30.164  50.620  1.00  0.00     0.008 A 
HETATM   23  C   UNL     1       5.568  29.020  51.444  1.00  0.00     0.017 A 
ENDBRANCH  18  19
ENDBRANCH  15  18
ENDBRANCH   2  14
BRANCH   2  24
HETATM   24  O   UNL     1       4.852  25.315  55.975  1.00  0.00    -0.359 OA
HETATM   25  H   UNL     1       5.120  25.628  56.856  1.00  0.00     0.213 HD
ENDBRANCH   2  24
BRANCH   1  26
HETATM   26  C   UNL     1       7.442  24.097  54.830  1.00  0.00     0.042 A 
HETATM   27  C   UNL     1       7.268  22.917  55.564  1.00  0.00     0.030 A 
HETATM   28  C   UNL     1       7.594  21.680  55.004  1.00  0.00     0.002 A 
HETATM   29  C   UNL     1       8.115  21.611  53.713  1.00  0.00     0.000 A 
HETATM   30  C   UNL     1       8.322  22.781  52.987  1.00  0.00     0.002 A 
HETATM   31  C   UNL     1       7.994  24.018  53.546  1.00  0.00     0.030 A 
ENDBRANCH   1  26
TORSDOF 5
ENDMDL
MODEL 3
REMARK VINA RESULT:      -8.3      3.525      5.737
REMARK  5 active torsions:
REMARK  status: ('A' for Active; 'I' for Inactive)
REMARK    1  A    between atoms: C_4  and  N_5 
REMARK    2  A    between atoms: C_6  and  C_8 
REMARK    3  A    between atoms: C_6  and  O_7 
REMARK       I    between atoms: C_8  and  N_9 
REMARK    4  A    between atoms: N_9  and  C_10 
REMARK    5  A    between atoms: C_10  and  C_11 
ROOT
HETATM    1  N   UNL     1       5.256  27.191  54.261  1.00  0.00    -0.254 N 
HETATM    2  C   UNL     1       4.361  28.049  53.464  1.00  0.00     0.256 C 
HETATM    3  C   UNL     1       3.902  29.281  54.223  1.00  0.00     0.035 A 
HETATM    4  C   UNL     1       3.871  29.210  55.614  1.00  0.00     0.048 A 
HETATM    5  N   UNL     1       4.339  28.062  56.239  1.00  0.00    -0.308 N 
HETATM    6  C   UNL     1       5.029  27.056  55.623  1.00  0.00     0.330 C 
HETATM    7  O   UNL     1       5.461  26.144  56.329  1.00  0.00    -0.246 OA
HETATM    8  C   UNL     1       3.411  30.444  53.604  1.00  0.00     0.034 A 
HETATM    9  C   UNL     1       2.939  31.508  54.376  1.00  0.00     0.011 A 
HETATM   10 BR   UNL     1       2.311  33.076  53.526  1.00  0.00    -0.051 Br
HETATM   11  C   UNL     1       2.919  31.421  55.766  1.00  0.00     0.021 A 
HETATM   12  C   UNL     1       3.378  30.263  56.388  1.00  0.00     0.031 A 
HETATM   13  H   UNL     1       4.283  27.971  57.245  1.00  0.00     0.170 HD
ENDROOT
BRANCH   2  14
HETATM   14  C   UNL     1       4.947  28.455  52.045  1.00  0.00     0.279 C 
HETATM   15  N   UNL     1       4.217  27.953  50.981  1.00  0.00    -0.352 N 
HETATM   16  H   UNL     1       3.266  27.660  51.184  1.00  0.00     0.162 HD
HETATM   17  O   UNL     1       5.978  29.107  51.884  1.00  0.00    -0.268 OA
BRANCH  15  18
HETATM   18  C   UNL     1       4.579  28.215  49.612  1.00  0.00     0.168 C 
BRANCH  18  19
HETATM   19  C   UNL     1       3.894  27.196  48.761  1.00  0.00     0.000 A 
HETATM   20  S   UNL     1       2.962  27.677  47.407  1.00  0.00    -0.105 SA
HETATM   21  C   UNL     1       2.556  26.059  47.031  1.00  0.00     0.050 A 
HETATM   22  C   UNL     1       3.113  25.166  47.918  1.00  0.00     0.008 A 
HETATM   23  C   UNL     1       3.884  25.823  48.919  1.00  0.00     0.017 A 
ENDBRANCH  18  19
ENDBRANCH  15  18
ENDBRANCH   2  14
BRANCH   2  24
HETATM   24  O   UNL     1       3.164  27.280  53.238  1.00  0.00    -0.359 OA
HETATM   25  H   UNL     1       3.032  27.333  52.277  1.00  0.00     0.213 HD
ENDBRANCH   2  24
BRANCH   1  26
HETATM   26  C   UNL     1       6.024  26.186  53.591  1.00  0.00     0.042 A 
HETATM   27  C   UNL     1       5.457  24.955  53.241  1.00  0.00     0.030 A 
HETATM   28  C   UNL     1       6.218  23.986  52.582  1.00  0.00     0.002 A 
HETATM   29  C   UNL     1       7.558  24.231  52.285  1.00  0.00     0.000 A 
HETATM   30  C   UNL     1       8.140  25.440  52.659  1.00  0.00     0.002 A 
HETATM   31  C   UNL     1       7.378  26.409  53.315  1.00  0.00     0.030 A 
ENDBRANCH   1  26
TORSDOF 5
ENDMDL
MODEL 4
REMARK VINA RESULT:      -8.1      3.503      5.698
REMARK  5 active torsions:
REMARK  status: ('A' for Active; 'I' for Inactive)
REMARK    1  A    between atoms: C_4  and  N_5 
REMARK    2  A    between atoms: C_6  and  C_8 
REMARK    3  A    between atoms: C_6  and  O_7 
REMARK       I    between atoms: C_8  and  N_9 
REMARK    4  A    between atoms: N_9  and  C_10 
REMARK    5  A    between atoms: C_10  and  C_11 
ROOT
HETATM    1  N   UNL     1       5.744  26.717  53.184  1.00  0.00    -0.254 N 
HETATM    2  C   UNL     1       6.078  27.925  53.960  1.00  0.00     0.256 C 
HETATM    3  C   UNL     1       4.980  28.971  53.919  1.00  0.00     0.035 A 
HETATM    4  C   UNL     1       4.127  28.970  52.817  1.00  0.00     0.048 A 
HETATM    5  N   UNL     1       4.262  27.971  51.863  1.00  0.00    -0.308 N 
HETATM    6  C   UNL     1       5.029  26.849  52.002  1.00  0.00     0.330 C 
HETATM    7  O   UNL     1       4.975  26.005  51.106  1.00  0.00    -0.246 OA
HETATM    8  C   UNL     1       4.840  29.998  54.869  1.00  0.00     0.034 A 
HETATM    9  C   UNL     1       3.844  30.966  54.719  1.00  0.00     0.011 A 
HETATM   10 BR   UNL     1       3.653  32.322  56.024  1.00  0.00    -0.051 Br
HETATM   11  C   UNL     1       2.998  30.948  53.614  1.00  0.00     0.021 A 
HETATM   12  C   UNL     1       3.146  29.951  52.653  1.00  0.00     0.031 A 
HETATM   13  H   UNL     1       3.684  27.977  51.033  1.00  0.00     0.170 HD
ENDROOT
BRANCH   2  14
HETATM   14  C   UNL     1       6.513  27.631  55.459  1.00  0.00     0.279 C 
HETATM   15  N   UNL     1       7.860  27.845  55.697  1.00  0.00    -0.352 N 
HETATM   16  H   UNL     1       8.350  28.430  55.027  1.00  0.00     0.162 HD
HETATM   17  O   UNL     1       5.752  27.205  56.328  1.00  0.00    -0.268 OA
BRANCH  15  18
HETATM   18  C   UNL     1       8.450  27.644  56.995  1.00  0.00     0.168 C 
BRANCH  18  19
HETATM   19  C   UNL     1       9.153  28.907  57.373  1.00  0.00     0.000 A 
HETATM   20  S   UNL     1       8.468  29.973  58.525  1.00  0.00    -0.105 SA
HETATM   21  C   UNL     1       9.772  31.070  58.381  1.00  0.00     0.050 A 
HETATM   22  C   UNL     1      10.711  30.639  57.472  1.00  0.00     0.008 A 
HETATM   23  C   UNL     1      10.352  29.391  56.886  1.00  0.00     0.017 A 
ENDBRANCH  18  19
ENDBRANCH  15  18
ENDBRANCH   2  14
BRANCH   2  24
HETATM   24  O   UNL     1       7.201  28.533  53.292  1.00  0.00    -0.359 OA
HETATM   25  H   UNL     1       7.690  28.968  54.010  1.00  0.00     0.213 HD
ENDBRANCH   2  24
BRANCH   1  26
HETATM   26  C   UNL     1       6.515  25.529  53.390  1.00  0.00     0.042 A 
HETATM   27  C   UNL     1       7.621  25.235  52.584  1.00  0.00     0.030 A 
HETATM   28  C   UNL     1       8.368  24.074  52.802  1.00  0.00     0.002 A 
HETATM   29  C   UNL     1       8.004  23.188  53.814  1.00  0.00     0.000 A 
HETATM   30  C   UNL     1       6.886  23.455  54.600  1.00  0.00     0.002 A 
HETATM   31  C   UNL     1       6.141  24.617  54.384  1.00  0.00     0.030 A 
ENDBRANCH   1  26
TORSDOF 5
ENDMDL
MODEL 5
REMARK VINA RESULT:      -8.1      3.361      6.210
REMARK  5 active torsions:
REMARK  status: ('A' for Active; 'I' for Inactive)
REMARK    1  A    between atoms: C_4  and  N_5 
REMARK    2  A    between atoms: C_6  and  C_8 
REMARK    3  A    between atoms: C_6  and  O_7 
REMARK       I    between atoms: C_8  and  N_9 
REMARK    4  A    between atoms: N_9  and  C_10 
REMARK    5  A    between atoms: C_10  and  C_11 
ROOT
HETATM    1  N   UNL     1       5.900  26.479  53.593  1.00  0.00    -0.254 N 
HETATM    2  C   UNL     1       5.766  25.394  54.581  1.00  0.00     0.256 C 
HETATM    3  C   UNL     1       6.756  24.267  54.352  1.00  0.00     0.035 A 
HETATM    4  C   UNL     1       7.237  24.081  53.058  1.00  0.00     0.048 A 
HETATM    5  N   UNL     1       6.861  24.977  52.066  1.00  0.00    -0.308 N 
HETATM    6  C   UNL     1       6.219  26.164  52.279  1.00  0.00     0.330 C 
HETATM    7  O   UNL     1       6.035  26.897  51.307  1.00  0.00    -0.246 OA
HETATM    8  C   UNL     1       7.134  23.343  55.342  1.00  0.00     0.034 A 
HETATM    9  C   UNL     1       7.997  22.289  55.032  1.00  0.00     0.011 A 
HETATM   10 BR   UNL     1       8.517  21.075  56.385  1.00  0.00    -0.051 Br
HETATM   11  C   UNL     1       8.471  22.121  53.734  1.00  0.00     0.021 A 
HETATM   12  C   UNL     1       8.081  23.015  52.739  1.00  0.00     0.031 A 
HETATM   13  H   UNL     1       7.162  24.834  51.110  1.00  0.00     0.170 HD
ENDROOT
BRANCH   2  14
HETATM   14  C   UNL     1       5.816  25.883  56.091  1.00  0.00     0.279 C 
HETATM   15  N   UNL     1       7.009  26.495  56.435  1.00  0.00    -0.352 N 
HETATM   16  H   UNL     1       7.580  26.836  55.667  1.00  0.00     0.162 HD
HETATM   17  O   UNL     1       4.913  25.700  56.907  1.00  0.00    -0.268 OA
BRANCH  15  18
HETATM   18  C   UNL     1       7.250  27.017  57.755  1.00  0.00     0.168 C 
BRANCH  18  19
HETATM   19  C   UNL     1       8.174  28.183  57.619  1.00  0.00     0.000 A 
HETATM   20  S   UNL     1       7.899  29.620  58.508  1.00  0.00    -0.105 SA
HETATM   21  C   UNL     1       9.270  30.381  57.826  1.00  0.00     0.050 A 
HETATM   22  C   UNL     1       9.926  29.562  56.935  1.00  0.00     0.008 A 
HETATM   23  C   UNL     1       9.291  28.293  56.812  1.00  0.00     0.017 A 
ENDBRANCH  18  19
ENDBRANCH  15  18
ENDBRANCH   2  14
BRANCH   2  24
HETATM   24  O   UNL     1       4.469  24.805  54.356  1.00  0.00    -0.359 OA
HETATM   25  H   UNL     1       4.592  24.273  53.553  1.00  0.00     0.213 HD
ENDBRANCH   2  24
BRANCH   1  26
HETATM   26  C   UNL     1       5.276  27.739  53.863  1.00  0.00     0.042 A 
HETATM   27  C   UNL     1       3.979  28.015  53.416  1.00  0.00     0.030 A 
HETATM   28  C   UNL     1       3.382  29.248  53.693  1.00  0.00     0.002 A 
HETATM   29  C   UNL     1       4.083  30.222  54.402  1.00  0.00     0.000 A 
HETATM   30  C   UNL     1       5.387  29.968  54.821  1.00  0.00     0.002 A 
HETATM   31  C   UNL     1       5.982  28.736  54.546  1.00  0.00     0.030 A 
ENDBRANCH   1  26
TORSDOF 5
ENDMDL
MODEL 6
REMARK VINA RESULT:      -7.9      3.398      5.154
REMARK  5 active torsions:
REMARK  status: ('A' for Active; 'I' for Inactive)
REMARK    1  A    between atoms: C_4  and  N_5 
REMARK    2  A    between atoms: C_6  and  C_8 
REMARK    3  A    between atoms: C_6  and  O_7 
REMARK       I    between atoms: C_8  and  N_9 
REMARK    4  A    between atoms: N_9  and  C_10 
REMARK    5  A    between atoms: C_10  and  C_11 
ROOT
HETATM    1  N   UNL     1       5.375  28.325  53.844  1.00  0.00    -0.254 N 
HETATM    2  C   UNL     1       5.712  28.757  55.213  1.00  0.00     0.256 C 
HETATM    3  C   UNL     1       4.863  29.922  55.685  1.00  0.00     0.035 A 
HETATM    4  C   UNL     1       4.329  30.768  54.716  1.00  0.00     0.048 A 
HETATM    5  N   UNL     1       4.520  30.461  53.376  1.00  0.00    -0.308 N 
HETATM    6  C   UNL     1       5.016  29.279  52.902  1.00  0.00     0.330 C 
HETATM    7  O   UNL     1       5.040  29.118  51.682  1.00  0.00    -0.246 OA
HETATM    8  C   UNL     1       4.673  30.255  57.038  1.00  0.00     0.034 A 
HETATM    9  C   UNL     1       3.936  31.389  57.389  1.00  0.00     0.011 A 
HETATM   10 BR   UNL     1       3.666  31.802  59.215  1.00  0.00    -0.051 Br
HETATM   11  C   UNL     1       3.405  32.221  56.407  1.00  0.00     0.021 A 
HETATM   12  C   UNL     1       3.611  31.916  55.064  1.00  0.00     0.031 A 
HETATM   13  H   UNL     1       4.180  31.086  52.656  1.00  0.00     0.170 HD
ENDROOT
BRANCH   2  14
HETATM   14  C   UNL     1       5.695  27.584  56.284  1.00  0.00     0.279 C 
HETATM   15  N   UNL     1       6.956  27.223  56.728  1.00  0.00    -0.352 N 
HETATM   16  H   UNL     1       7.698  27.901  56.582  1.00  0.00     0.162 HD
HETATM   17  O   UNL     1       4.677  27.004  56.657  1.00  0.00    -0.268 OA
BRANCH  15  18
HETATM   18  C   UNL     1       7.155  26.187  57.708  1.00  0.00     0.168 C 
BRANCH  18  19
HETATM   19  C   UNL     1       7.514  24.935  56.975  1.00  0.00     0.000 A 
HETATM   20  S   UNL     1       9.090  24.275  57.098  1.00  0.00    -0.105 SA
HETATM   21  C   UNL     1       8.701  22.985  56.045  1.00  0.00     0.050 A 
HETATM   22  C   UNL     1       7.399  23.052  55.603  1.00  0.00     0.008 A 
HETATM   23  C   UNL     1       6.714  24.181  56.138  1.00  0.00     0.017 A 
ENDBRANCH  18  19
ENDBRANCH  15  18
ENDBRANCH   2  14
BRANCH   2  24
HETATM   24  O   UNL     1       7.056  29.272  55.151  1.00  0.00    -0.359 OA
HETATM   25  H   UNL     1       7.090  29.731  54.296  1.00  0.00     0.213 HD
ENDBRANCH   2  24
BRANCH   1  26
HETATM   26  C   UNL     1       5.846  27.053  53.387  1.00  0.00     0.042 A 
HETATM   27  C   UNL     1       7.207  26.826  53.152  1.00  0.00     0.030 A 
HETATM   28  C   UNL     1       7.651  25.577  52.711  1.00  0.00     0.002 A 
HETATM   29  C   UNL     1       6.738  24.551  52.481  1.00  0.00     0.000 A 
HETATM   30  C   UNL     1       5.378  24.777  52.679  1.00  0.00     0.002 A 
HETATM   31  C   UNL     1       4.934  26.024  53.123  1.00  0.00     0.030 A 
ENDBRANCH   1  26
TORSDOF 5
ENDMDL
MODEL 7
REMARK VINA RESULT:      -7.9      3.291      5.365
REMARK  5 active torsions:
REMARK  status: ('A' for Active; 'I' for Inactive)
REMARK    1  A    between atoms: C_4  and  N_5 
REMARK    2  A    between atoms: C_6  and  C_8 
REMARK    3  A    between atoms: C_6  and  O_7 
REMARK       I    between atoms: C_8  and  N_9 
REMARK    4  A    between atoms: N_9  and  C_10 
REMARK    5  A    between atoms: C_10  and  C_11 
ROOT
HETATM    1  N   UNL     1       6.118  26.590  53.527  1.00  0.00    -0.254 N 
HETATM    2  C   UNL     1       5.907  28.026  53.270  1.00  0.00     0.256 C 
HETATM    3  C   UNL     1       5.253  28.291  51.927  1.00  0.00     0.035 A 
HETATM    4  C   UNL     1       5.432  27.344  50.921  1.00  0.00     0.048 A 
HETATM    5  N   UNL     1       6.117  26.173  51.216  1.00  0.00    -0.308 N 
HETATM    6  C   UNL     1       6.463  25.758  52.471  1.00  0.00     0.330 C 
HETATM    7  O   UNL     1       6.987  24.649  52.581  1.00  0.00    -0.246 OA
HETATM    8  C   UNL     1       4.570  29.479  51.609  1.00  0.00     0.034 A 
HETATM    9  C   UNL     1       4.058  29.676  50.324  1.00  0.00     0.011 A 
HETATM   10 BR   UNL     1       3.116  31.267  49.925  1.00  0.00    -0.051 Br
HETATM   11  C   UNL     1       4.243  28.717  49.333  1.00  0.00     0.021 A 
HETATM   12  C   UNL     1       4.942  27.549  49.629  1.00  0.00     0.031 A 
HETATM   13  H   UNL     1       6.298  25.492  50.489  1.00  0.00     0.170 HD
ENDROOT
BRANCH   2  14
HETATM   14  C   UNL     1       5.128  28.782  54.429  1.00  0.00     0.279 C 
HETATM   15  N   UNL     1       5.896  29.727  55.088  1.00  0.00    -0.352 N 
HETATM   16  H   UNL     1       6.727  30.053  54.602  1.00  0.00     0.162 HD
HETATM   17  O   UNL     1       3.969  28.532  54.760  1.00  0.00    -0.268 OA
BRANCH  15  18
HETATM   18  C   UNL     1       5.372  30.527  56.164  1.00  0.00     0.168 C 
BRANCH  18  19
HETATM   19  C   UNL     1       6.348  30.464  57.292  1.00  0.00     0.000 A 
HETATM   20  S   UNL     1       6.386  31.695  58.482  1.00  0.00    -0.105 SA
HETATM   21  C   UNL     1       7.672  30.939  59.317  1.00  0.00     0.050 A 
HETATM   22  C   UNL     1       8.072  29.773  58.705  1.00  0.00     0.008 A 
HETATM   23  C   UNL     1       7.309  29.499  57.533  1.00  0.00     0.017 A 
ENDBRANCH  18  19
ENDBRANCH  15  18
ENDBRANCH   2  14
BRANCH   2  24
HETATM   24  O   UNL     1       7.219  28.614  53.172  1.00  0.00    -0.359 OA
HETATM   25  H   UNL     1       7.745  28.117  53.820  1.00  0.00     0.213 HD
ENDBRANCH   2  24
BRANCH   1  26
HETATM   26  C   UNL     1       6.414  26.164  54.860  1.00  0.00     0.042 A 
HETATM   27  C   UNL     1       7.672  26.390  55.431  1.00  0.00     0.030 A 
HETATM   28  C   UNL     1       7.943  25.973  56.736  1.00  0.00     0.002 A 
HETATM   29  C   UNL     1       6.967  25.309  57.476  1.00  0.00     0.000 A 
HETATM   30  C   UNL     1       5.723  25.050  56.905  1.00  0.00     0.002 A 
HETATM   31  C   UNL     1       5.452  25.469  55.601  1.00  0.00     0.030 A 
ENDBRANCH   1  26
TORSDOF 5
ENDMDL
MODEL 8
REMARK VINA RESULT:      -7.9      9.540     11.617
REMARK  5 active torsions:
REMARK  status: ('A' for Active; 'I' for Inactive)
REMARK    1  A    between atoms: C_4  and  N_5 
REMARK    2  A    between atoms: C_6  and  C_8 
REMARK    3  A    between atoms: C_6  and  O_7 
REMARK       I    between atoms: C_8  and  N_9 
REMARK    4  A    between atoms: N_9  and  C_10 
REMARK    5  A    between atoms: C_10  and  C_11 
ROOT
HETATM    1  N   UNL     1       4.392  34.509  63.298  1.00  0.00    -0.254 N 
HETATM    2  C   UNL     1       4.029  33.306  62.528  1.00  0.00     0.256 C 
HETATM    3  C   UNL     1       3.848  33.589  61.048  1.00  0.00     0.035 A 
HETATM    4  C   UNL     1       3.490  34.882  60.676  1.00  0.00     0.048 A 
HETATM    5  N   UNL     1       3.402  35.863  61.655  1.00  0.00    -0.308 N 
HETATM    6  C   UNL     1       3.839  35.732  62.943  1.00  0.00     0.330 C 
HETATM    7  O   UNL     1       3.778  36.723  63.671  1.00  0.00    -0.246 OA
HETATM    8  C   UNL     1       3.919  32.603  60.048  1.00  0.00     0.034 A 
HETATM    9  C   UNL     1       3.667  32.933  58.714  1.00  0.00     0.011 A 
HETATM   10 BR   UNL     1       3.796  31.599  57.379  1.00  0.00    -0.051 Br
HETATM   11  C   UNL     1       3.314  34.232  58.360  1.00  0.00     0.021 A 
HETATM   12  C   UNL     1       3.215  35.210  59.346  1.00  0.00     0.031 A 
HETATM   13  H   UNL     1       3.099  36.798  61.413  1.00  0.00     0.170 HD
ENDROOT
BRANCH   2  14
HETATM   14  C   UNL     1       5.014  32.078  62.745  1.00  0.00     0.279 C 
HETATM   15  N   UNL     1       6.269  32.272  62.194  1.00  0.00    -0.352 N 
HETATM   16  H   UNL     1       6.531  33.232  61.993  1.00  0.00     0.162 HD
HETATM   17  O   UNL     1       4.695  31.028  63.301  1.00  0.00    -0.268 OA
BRANCH  15  18
HETATM   18  C   UNL     1       7.309  31.280  62.290  1.00  0.00     0.168 C 
BRANCH  18  19
HETATM   19  C   UNL     1       8.190  31.432  61.093  1.00  0.00     0.000 A 
HETATM   20  S   UNL     1       7.633  30.977  59.538  1.00  0.00    -0.105 SA
HETATM   21  C   UNL     1       9.115  31.417  58.808  1.00  0.00     0.050 A 
HETATM   22  C   UNL     1      10.021  31.898  59.726  1.00  0.00     0.008 A 
HETATM   23  C   UNL     1       9.488  31.904  61.047  1.00  0.00     0.017 A 
ENDBRANCH  18  19
ENDBRANCH  15  18
ENDBRANCH   2  14
BRANCH   2  24
HETATM   24  O   UNL     1       2.726  32.907  62.997  1.00  0.00    -0.359 OA
HETATM   25  H   UNL     1       2.434  32.253  62.341  1.00  0.00     0.213 HD
ENDBRANCH   2  24
BRANCH   1  26
HETATM   26  C   UNL     1       4.911  34.351  64.622  1.00  0.00     0.042 A 
HETATM   27  C   UNL     1       4.058  34.232  65.726  1.00  0.00     0.030 A 
HETATM   28  C   UNL     1       4.581  34.072  67.011  1.00  0.00     0.002 A 
HETATM   29  C   UNL     1       5.961  34.050  67.208  1.00  0.00     0.000 A 
HETATM   30  C   UNL     1       6.817  34.200  66.120  1.00  0.00     0.002 A 
HETATM   31  C   UNL     1       6.294  34.358  64.835  1.00  0.00     0.030 A 
ENDBRANCH   1  26
TORSDOF 5
ENDMDL
MODEL 9
REMARK VINA RESULT:      -7.8      3.394      6.536
REMARK  5 active torsions:
REMARK  status: ('A' for Active; 'I' for Inactive)
REMARK    1  A    between atoms: C_4  and  N_5 
REMARK    2  A    between atoms: C_6  and  C_8 
REMARK    3  A    between atoms: C_6  and  O_7 
REMARK       I    between atoms: C_8  and  N_9 
REMARK    4  A    between atoms: N_9  and  C_10 
REMARK    5  A    between atoms: C_10  and  C_11 
ROOT
HETATM    1  N   UNL     1       4.998  27.881  51.818  1.00  0.00    -0.254 N 
HETATM    2  C   UNL     1       4.908  27.246  53.145  1.00  0.00     0.256 C 
HETATM    3  C   UNL     1       6.029  26.256  53.398  1.00  0.00     0.035 A 
HETATM    4  C   UNL     1       6.623  25.654  52.292  1.00  0.00     0.048 A 
HETATM    5  N   UNL     1       6.229  26.047  51.020  1.00  0.00    -0.308 N 
HETATM    6  C   UNL     1       5.447  27.132  50.739  1.00  0.00     0.330 C 
HETATM    7  O   UNL     1       5.258  27.409  49.554  1.00  0.00    -0.246 OA
HETATM    8  C   UNL     1       6.429  25.836  54.680  1.00  0.00     0.034 A 
HETATM    9  C   UNL     1       7.422  24.865  54.826  1.00  0.00     0.011 A 
HETATM   10 BR   UNL     1       7.968  24.336  56.558  1.00  0.00    -0.051 Br
HETATM   11  C   UNL     1       8.008  24.277  53.708  1.00  0.00     0.021 A 
HETATM   12  C   UNL     1       7.600  24.665  52.434  1.00  0.00     0.031 A 
HETATM   13  H   UNL     1       6.614  25.591  50.203  1.00  0.00     0.170 HD
ENDROOT
BRANCH   2  14
HETATM   14  C   UNL     1       4.791  28.276  54.348  1.00  0.00     0.279 C 
HETATM   15  N   UNL     1       5.975  28.937  54.628  1.00  0.00    -0.352 N 
HETATM   16  H   UNL     1       6.675  28.940  53.892  1.00  0.00     0.162 HD
HETATM   17  O   UNL     1       3.770  28.448  55.014  1.00  0.00    -0.268 OA
BRANCH  15  18
HETATM   18  C   UNL     1       6.075  29.919  55.676  1.00  0.00     0.168 C 
BRANCH  18  19
HETATM   19  C   UNL     1       7.361  29.680  56.398  1.00  0.00     0.000 A 
HETATM   20  S   UNL     1       7.629  30.356  57.949  1.00  0.00    -0.105 SA
HETATM   21  C   UNL     1       9.195  29.677  58.046  1.00  0.00     0.050 A 
HETATM   22  C   UNL     1       9.514  28.951  56.921  1.00  0.00     0.008 A 
HETATM   23  C   UNL     1       8.456  28.955  55.967  1.00  0.00     0.017 A 
ENDBRANCH  18  19
ENDBRANCH  15  18
ENDBRANCH   2  14
BRANCH   2  24
HETATM   24  O   UNL     1       3.704  26.455  53.131  1.00  0.00    -0.359 OA
HETATM   25  H   UNL     1       3.030  27.050  53.498  1.00  0.00     0.213 HD
ENDBRANCH   2  24
BRANCH   1  26
HETATM   26  C   UNL     1       4.222  29.056  51.561  1.00  0.00     0.042 A 
HETATM   27  C   UNL     1       2.847  28.977  51.313  1.00  0.00     0.030 A 
HETATM   28  C   UNL     1       2.103  30.135  51.071  1.00  0.00     0.002 A 
HETATM   29  C   UNL     1       2.731  31.379  51.053  1.00  0.00     0.000 A 
HETATM   30  C   UNL     1       4.104  31.464  51.266  1.00  0.00     0.002 A 
HETATM   31  C   UNL     1       4.847  30.308  51.511  1.00  0.00     0.030 A 
ENDBRANCH   1  26
TORSDOF 5
ENDMDL
MODEL 10
REMARK VINA RESULT:      -7.6      2.893      4.812
REMARK  5 active torsions:
REMARK  status: ('A' for Active; 'I' for Inactive)
REMARK    1  A    between atoms: C_4  and  N_5 
REMARK    2  A    between atoms: C_6  and  C_8 
REMARK    3  A    between atoms: C_6  and  O_7 
REMARK       I    between atoms: C_8  and  N_9 
REMARK    4  A    between atoms: N_9  and  C_10 
REMARK    5  A    between atoms: C_10  and  C_11 
ROOT
HETATM    1  N   UNL     1       4.933  27.412  51.611  1.00  0.00    -0.254 N 
HETATM    2  C   UNL     1       4.945  28.761  52.207  1.00  0.00     0.256 C 
HETATM    3  C   UNL     1       3.878  29.669  51.622  1.00  0.00     0.035 A 
HETATM    4  C   UNL     1       3.433  29.397  50.331  1.00  0.00     0.048 A 
HETATM    5  N   UNL     1       3.915  28.270  49.678  1.00  0.00    -0.308 N 
HETATM    6  C   UNL     1       4.640  27.271  50.262  1.00  0.00     0.330 C 
HETATM    7  O   UNL     1       4.917  26.288  49.574  1.00  0.00    -0.246 OA
HETATM    8  C   UNL     1       3.392  30.821  52.265  1.00  0.00     0.034 A 
HETATM    9  C   UNL     1       2.462  31.645  51.628  1.00  0.00     0.011 A 
HETATM   10 BR   UNL     1       1.798  33.174  52.521  1.00  0.00    -0.051 Br
HETATM   11  C   UNL     1       2.025  31.356  50.338  1.00  0.00     0.021 A 
HETATM   12  C   UNL     1       2.520  30.232  49.682  1.00  0.00     0.031 A 
HETATM   13  H   UNL     1       3.640  28.079  48.722  1.00  0.00     0.170 HD
ENDROOT
BRANCH   2  14
HETATM   14  C   UNL     1       4.876  28.769  53.793  1.00  0.00     0.279 C 
HETATM   15  N   UNL     1       6.101  28.990  54.399  1.00  0.00    -0.352 N 
HETATM   16  H   UNL     1       6.822  29.413  53.820  1.00  0.00     0.162 HD
HETATM   17  O   UNL     1       3.854  28.549  54.441  1.00  0.00    -0.268 OA
BRANCH  15  18
HETATM   18  C   UNL     1       6.250  29.044  55.830  1.00  0.00     0.168 C 
BRANCH  18  19
HETATM   19  C   UNL     1       6.643  27.679  56.295  1.00  0.00     0.000 A 
HETATM   20  S   UNL     1       5.458  26.576  56.854  1.00  0.00    -0.105 SA
HETATM   21  C   UNL     1       6.635  25.377  57.176  1.00  0.00     0.050 A 
HETATM   22  C   UNL     1       7.906  25.805  56.869  1.00  0.00     0.008 A 
HETATM   23  C   UNL     1       7.912  27.136  56.362  1.00  0.00     0.017 A 
ENDBRANCH  18  19
ENDBRANCH  15  18
ENDBRANCH   2  14
BRANCH   2  24
HETATM   24  O   UNL     1       6.198  29.359  51.822  1.00  0.00    -0.359 OA
HETATM   25  H   UNL     1       6.299  29.107  50.889  1.00  0.00     0.213 HD
ENDBRANCH   2  24
BRANCH   1  26
HETATM   26  C   UNL     1       5.643  26.360  52.273  1.00  0.00     0.042 A 
HETATM   27  C   UNL     1       7.026  26.211  52.118  1.00  0.00     0.030 A 
HETATM   28  C   UNL     1       7.705  25.182  52.776  1.00  0.00     0.002 A 
HETATM   29  C   UNL     1       7.005  24.282  53.577  1.00  0.00     0.000 A 
HETATM   30  C   UNL     1       5.624  24.402  53.710  1.00  0.00     0.002 A 
HETATM   31  C   UNL     1       4.946  25.432  53.055  1.00  0.00     0.030 A 
ENDBRANCH   1  26
TORSDOF 5
ENDMDL
