MODEL 1
REMARK VINA RESULT:      -8.2      0.000      0.000
REMARK  3 active torsions:
REMARK  status: ('A' for Active; 'I' for Inactive)
REMARK    1  A    between atoms: C_9  and  C_10 
REMARK    2  A    between atoms: C_16  and  C_17 
REMARK       I    between atoms: C_17  and  N_18 
REMARK    3  A    between atoms: N_18  and  C_19 
ROOT
HETATM    1  C   UNL     1       8.699  27.175  56.938  1.00  0.00     0.070 C 
HETATM    2  C   UNL     1       7.429  27.499  56.193  1.00  0.00     0.037 C 
HETATM    3  N   UNL     1       7.091  28.848  56.138  1.00  0.00    -0.192 N 
HETATM    4  C   UNL     1       5.881  29.282  55.736  1.00  0.00     0.725 A 
HETATM    5  N   UNL     1       4.991  28.391  55.198  1.00  0.00    -0.082 N 
HETATM    6  N   UNL     1       3.784  28.968  54.992  1.00  0.00    -0.149 NA
HETATM    7  C   UNL     1       4.052  30.228  55.355  1.00  0.00     0.275 A 
HETATM    8  N   UNL     1       5.321  30.463  55.817  1.00  0.00    -0.054 NA
HETATM    9  C   UNL     1       5.273  26.969  54.998  1.00  0.00     0.221 C 
HETATM   10  C   UNL     1       6.592  26.578  55.653  1.00  0.00     0.064 C 
HETATM   11  H   UNL     1       7.696  29.505  56.623  1.00  0.00     0.184 HD
ENDROOT
BRANCH  10  12
HETATM   12  C   UNL     1       6.798  25.108  55.725  1.00  0.00     0.257 C 
HETATM   13  N   UNL     1       7.449  24.595  54.629  1.00  0.00    -0.308 N 
HETATM   14  H   UNL     1       7.628  25.216  53.855  1.00  0.00     0.170 HD
HETATM   15  O   UNL     1       6.350  24.514  56.696  1.00  0.00    -0.267 OA
BRANCH  13  16
HETATM   16  C   UNL     1       7.899  23.274  54.509  1.00  0.00     0.129 A 
HETATM   17  N   UNL     1       8.724  22.744  55.429  1.00  0.00    -0.243 NA
HETATM   18  C   UNL     1       9.154  21.477  55.246  1.00  0.00     0.119 A 
HETATM   19  C   UNL     1       8.807  20.699  54.157  1.00  0.00     0.019 A 
HETATM   20  C   UNL     1       7.961  21.255  53.207  1.00  0.00     0.005 A 
HETATM   21  C   UNL     1       7.495  22.557  53.386  1.00  0.00     0.050 A 
ENDBRANCH  13  16
ENDBRANCH  10  12
BRANCH   9  22
HETATM   22  C   UNL     1       5.251  26.676  53.501  1.00  0.00     0.064 A 
HETATM   23  N   UNL     1       4.785  25.465  53.081  1.00  0.00    -0.263 NA
HETATM   24  C   UNL     1       4.844  25.201  51.757  1.00  0.00     0.117 A 
HETATM   25  C   UNL     1       5.334  26.086  50.812  1.00  0.00     0.019 A 
HETATM   26  C   UNL     1       5.793  27.322  51.248  1.00  0.00     0.003 A 
HETATM   27  C   UNL     1       5.757  27.623  52.606  1.00  0.00     0.030 A 
ENDBRANCH   9  22
TORSDOF 3
ENDMDL
MODEL 2
REMARK VINA RESULT:      -8.2      3.088      5.083
REMARK  3 active torsions:
REMARK  status: ('A' for Active; 'I' for Inactive)
REMARK    1  A    between atoms: C_9  and  C_10 
REMARK    2  A    between atoms: C_16  and  C_17 
REMARK       I    between atoms: C_17  and  N_18 
REMARK    3  A    between atoms: N_18  and  C_19 
ROOT
HETATM    1  C   UNL     1      10.837  29.352  56.575  1.00  0.00     0.070 C 
HETATM    2  C   UNL     1       9.667  29.891  57.359  1.00  0.00     0.037 C 
HETATM    3  N   UNL     1       9.884  31.104  58.006  1.00  0.00    -0.192 N 
HETATM    4  C   UNL     1       9.045  31.595  58.938  1.00  0.00     0.725 A 
HETATM    5  N   UNL     1       7.842  30.976  59.153  1.00  0.00    -0.082 N 
HETATM    6  N   UNL     1       7.201  31.509  60.219  1.00  0.00    -0.149 NA
HETATM    7  C   UNL     1       8.045  32.497  60.542  1.00  0.00     0.275 A 
HETATM    8  N   UNL     1       9.185  32.583  59.786  1.00  0.00    -0.054 NA
HETATM    9  C   UNL     1       7.376  29.806  58.408  1.00  0.00     0.221 C 
HETATM   10  C   UNL     1       8.483  29.250  57.520  1.00  0.00     0.064 C 
HETATM   11  H   UNL     1      10.809  31.518  57.933  1.00  0.00     0.184 HD
ENDROOT
BRANCH  10  12
HETATM   12  C   UNL     1       8.165  27.913  56.955  1.00  0.00     0.257 C 
HETATM   13  N   UNL     1       7.493  27.973  55.759  1.00  0.00    -0.308 N 
HETATM   14  H   UNL     1       7.191  28.879  55.434  1.00  0.00     0.170 HD
HETATM   15  O   UNL     1       8.484  26.925  57.604  1.00  0.00    -0.267 OA
BRANCH  13  16
HETATM   16  C   UNL     1       7.206  26.870  54.943  1.00  0.00     0.129 A 
HETATM   17  N   UNL     1       6.409  25.881  55.381  1.00  0.00    -0.243 NA
HETATM   18  C   UNL     1       6.193  24.827  54.566  1.00  0.00     0.119 A 
HETATM   19  C   UNL     1       6.758  24.699  53.311  1.00  0.00     0.019 A 
HETATM   20  C   UNL     1       7.586  25.721  52.867  1.00  0.00     0.005 A 
HETATM   21  C   UNL     1       7.810  26.825  53.689  1.00  0.00     0.050 A 
ENDBRANCH  13  16
ENDBRANCH  10  12
BRANCH   9  22
HETATM   22  C   UNL     1       6.132  30.197  57.619  1.00  0.00     0.064 A 
HETATM   23  N   UNL     1       5.149  29.267  57.449  1.00  0.00    -0.263 NA
HETATM   24  C   UNL     1       4.089  29.614  56.684  1.00  0.00     0.117 A 
HETATM   25  C   UNL     1       3.942  30.851  56.081  1.00  0.00     0.019 A 
HETATM   26  C   UNL     1       4.941  31.796  56.271  1.00  0.00     0.003 A 
HETATM   27  C   UNL     1       6.051  31.469  57.045  1.00  0.00     0.030 A 
ENDBRANCH   9  22
TORSDOF 3
ENDMDL
MODEL 3
REMARK VINA RESULT:      -8.1      2.724      5.711
REMARK  3 active torsions:
REMARK  status: ('A' for Active; 'I' for Inactive)
REMARK    1  A    between atoms: C_9  and  C_10 
REMARK    2  A    between atoms: C_16  and  C_17 
REMARK       I    between atoms: C_17  and  N_18 
REMARK    3  A    between atoms: N_18  and  C_19 
ROOT
HETATM    1  C   UNL     1       3.398  29.953  53.598  1.00  0.00     0.070 C 
HETATM    2  C   UNL     1       4.659  29.233  54.006  1.00  0.00     0.037 C 
HETATM    3  N   UNL     1       4.958  29.266  55.365  1.00  0.00    -0.192 N 
HETATM    4  C   UNL     1       6.155  28.895  55.858  1.00  0.00     0.725 A 
HETATM    5  N   UNL     1       7.071  28.303  55.029  1.00  0.00    -0.082 N 
HETATM    6  N   UNL     1       8.260  28.138  55.652  1.00  0.00    -0.149 NA
HETATM    7  C   UNL     1       7.957  28.581  56.878  1.00  0.00     0.275 A 
HETATM    8  N   UNL     1       6.682  29.054  57.046  1.00  0.00    -0.054 NA
HETATM    9  C   UNL     1       6.829  28.011  53.616  1.00  0.00     0.221 C 
HETATM   10  C   UNL     1       5.522  28.636  53.146  1.00  0.00     0.064 C 
HETATM   11  H   UNL     1       4.335  29.791  55.972  1.00  0.00     0.184 HD
ENDROOT
BRANCH  10  12
HETATM   12  C   UNL     1       5.358  28.613  51.669  1.00  0.00     0.257 C 
HETATM   13  N   UNL     1       4.507  27.628  51.231  1.00  0.00    -0.308 N 
HETATM   14  H   UNL     1       4.165  26.965  51.910  1.00  0.00     0.170 HD
HETATM   15  O   UNL     1       6.002  29.417  51.008  1.00  0.00    -0.267 OA
BRANCH  13  16
HETATM   16  C   UNL     1       4.062  27.480  49.910  1.00  0.00     0.129 A 
HETATM   17  N   UNL     1       3.080  28.258  49.426  1.00  0.00    -0.243 NA
HETATM   18  C   UNL     1       2.667  28.050  48.158  1.00  0.00     0.119 A 
HETATM   19  C   UNL     1       3.188  27.070  47.332  1.00  0.00     0.019 A 
HETATM   20  C   UNL     1       4.197  26.265  47.841  1.00  0.00     0.005 A 
HETATM   21  C   UNL     1       4.647  26.474  49.145  1.00  0.00     0.050 A 
ENDBRANCH  13  16
ENDBRANCH  10  12
BRANCH   9  22
HETATM   22  C   UNL     1       6.860  26.499  53.420  1.00  0.00     0.064 A 
HETATM   23  N   UNL     1       6.006  25.730  54.154  1.00  0.00    -0.263 NA
HETATM   24  C   UNL     1       6.103  24.388  54.017  1.00  0.00     0.117 A 
HETATM   25  C   UNL     1       7.002  23.759  53.173  1.00  0.00     0.019 A 
HETATM   26  C   UNL     1       7.857  24.551  52.420  1.00  0.00     0.003 A 
HETATM   27  C   UNL     1       7.792  25.936  52.543  1.00  0.00     0.030 A 
ENDBRANCH   9  22
TORSDOF 3
ENDMDL
MODEL 4
REMARK VINA RESULT:      -8.1      1.973      3.460
REMARK  3 active torsions:
REMARK  status: ('A' for Active; 'I' for Inactive)
REMARK    1  A    between atoms: C_9  and  C_10 
REMARK    2  A    between atoms: C_16  and  C_17 
REMARK       I    between atoms: C_17  and  N_18 
REMARK    3  A    between atoms: N_18  and  C_19 
ROOT
HETATM    1  C   UNL     1       4.591  25.231  57.484  1.00  0.00     0.070 C 
HETATM    2  C   UNL     1       5.041  26.432  56.693  1.00  0.00     0.037 C 
HETATM    3  N   UNL     1       4.181  27.527  56.719  1.00  0.00    -0.192 N 
HETATM    4  C   UNL     1       4.305  28.573  55.879  1.00  0.00     0.725 A 
HETATM    5  N   UNL     1       5.409  28.662  55.074  1.00  0.00    -0.082 N 
HETATM    6  N   UNL     1       5.294  29.686  54.196  1.00  0.00    -0.149 NA
HETATM    7  C   UNL     1       4.129  30.215  54.591  1.00  0.00     0.275 A 
HETATM    8  N   UNL     1       3.491  29.564  55.615  1.00  0.00    -0.054 NA
HETATM    9  C   UNL     1       6.507  27.694  55.076  1.00  0.00     0.221 C 
HETATM   10  C   UNL     1       6.161  26.481  55.929  1.00  0.00     0.064 C 
HETATM   11  H   UNL     1       3.310  27.430  57.233  1.00  0.00     0.184 HD
ENDROOT
BRANCH  10  12
HETATM   12  C   UNL     1       7.108  25.349  55.750  1.00  0.00     0.257 C 
HETATM   13  N   UNL     1       6.576  24.302  55.039  1.00  0.00    -0.308 N 
HETATM   14  H   UNL     1       5.596  24.343  54.801  1.00  0.00     0.170 HD
HETATM   15  O   UNL     1       8.213  25.439  56.268  1.00  0.00    -0.267 OA
BRANCH  13  16
HETATM   16  C   UNL     1       7.295  23.181  54.601  1.00  0.00     0.129 A 
HETATM   17  N   UNL     1       7.713  22.250  55.475  1.00  0.00    -0.243 NA
HETATM   18  C   UNL     1       8.430  21.208  55.002  1.00  0.00     0.119 A 
HETATM   19  C   UNL     1       8.773  21.053  53.672  1.00  0.00     0.019 A 
HETATM   20  C   UNL     1       8.344  22.022  52.776  1.00  0.00     0.005 A 
HETATM   21  C   UNL     1       7.590  23.099  53.242  1.00  0.00     0.050 A 
ENDBRANCH  13  16
ENDBRANCH  10  12
BRANCH   9  22
HETATM   22  C   UNL     1       7.775  28.400  55.544  1.00  0.00     0.064 A 
HETATM   23  N   UNL     1       8.730  28.705  54.620  1.00  0.00    -0.263 NA
HETATM   24  C   UNL     1       9.876  29.263  55.070  1.00  0.00     0.117 A 
HETATM   25  C   UNL     1      10.126  29.551  56.401  1.00  0.00     0.019 A 
HETATM   26  C   UNL     1       9.142  29.250  57.333  1.00  0.00     0.003 A 
HETATM   27  C   UNL     1       7.953  28.665  56.905  1.00  0.00     0.030 A 
ENDBRANCH   9  22
TORSDOF 3
ENDMDL
MODEL 5
REMARK VINA RESULT:      -7.8      1.658      1.863
REMARK  3 active torsions:
REMARK  status: ('A' for Active; 'I' for Inactive)
REMARK    1  A    between atoms: C_9  and  C_10 
REMARK    2  A    between atoms: C_16  and  C_17 
REMARK       I    between atoms: C_17  and  N_18 
REMARK    3  A    between atoms: N_18  and  C_19 
ROOT
HETATM    1  C   UNL     1       8.046  27.244  57.802  1.00  0.00     0.070 C 
HETATM    2  C   UNL     1       6.830  27.874  57.172  1.00  0.00     0.037 C 
HETATM    3  N   UNL     1       6.540  29.170  57.586  1.00  0.00    -0.192 N 
HETATM    4  C   UNL     1       5.369  29.779  57.317  1.00  0.00     0.725 A 
HETATM    5  N   UNL     1       4.480  29.181  56.463  1.00  0.00    -0.082 N 
HETATM    6  N   UNL     1       3.306  29.853  56.429  1.00  0.00    -0.149 NA
HETATM    7  C   UNL     1       3.595  30.888  57.226  1.00  0.00     0.275 A 
HETATM    8  N   UNL     1       4.844  30.881  57.791  1.00  0.00    -0.054 NA
HETATM    9  C   UNL     1       4.726  27.909  55.782  1.00  0.00     0.221 C 
HETATM   10  C   UNL     1       5.994  27.246  56.307  1.00  0.00     0.064 C 
HETATM   11  H   UNL     1       7.138  29.582  58.297  1.00  0.00     0.184 HD
ENDROOT
BRANCH  10  12
HETATM   12  C   UNL     1       6.147  25.837  55.860  1.00  0.00     0.257 C 
HETATM   13  N   UNL     1       7.238  25.639  55.049  1.00  0.00    -0.308 N 
HETATM   14  H   UNL     1       7.758  26.451  54.753  1.00  0.00     0.170 HD
HETATM   15  O   UNL     1       5.297  25.029  56.210  1.00  0.00    -0.267 OA
BRANCH  13  16
HETATM   16  C   UNL     1       7.697  24.389  54.613  1.00  0.00     0.129 A 
HETATM   17  N   UNL     1       8.570  23.683  55.351  1.00  0.00    -0.243 NA
HETATM   18  C   UNL     1       9.005  22.500  54.867  1.00  0.00     0.119 A 
HETATM   19  C   UNL     1       8.615  21.980  53.646  1.00  0.00     0.019 A 
HETATM   20  C   UNL     1       7.719  22.719  52.885  1.00  0.00     0.005 A 
HETATM   21  C   UNL     1       7.248  23.936  53.375  1.00  0.00     0.050 A 
ENDBRANCH  13  16
ENDBRANCH  10  12
BRANCH   9  22
HETATM   22  C   UNL     1       4.777  28.165  54.280  1.00  0.00     0.064 A 
HETATM   23  N   UNL     1       5.992  28.363  53.693  1.00  0.00    -0.263 NA
HETATM   24  C   UNL     1       6.005  28.661  52.374  1.00  0.00     0.117 A 
HETATM   25  C   UNL     1       4.867  28.762  51.592  1.00  0.00     0.019 A 
HETATM   26  C   UNL     1       3.636  28.545  52.195  1.00  0.00     0.003 A 
HETATM   27  C   UNL     1       3.585  28.246  53.554  1.00  0.00     0.030 A 
ENDBRANCH   9  22
TORSDOF 3
ENDMDL
MODEL 6
REMARK VINA RESULT:      -7.7      3.504      8.252
REMARK  3 active torsions:
REMARK  status: ('A' for Active; 'I' for Inactive)
REMARK    1  A    between atoms: C_9  and  C_10 
REMARK    2  A    between atoms: C_16  and  C_17 
REMARK       I    between atoms: C_17  and  N_18 
REMARK    3  A    between atoms: N_18  and  C_19 
ROOT
HETATM    1  C   UNL     1       4.712  28.895  54.373  1.00  0.00     0.070 C 
HETATM    2  C   UNL     1       5.730  28.422  55.380  1.00  0.00     0.037 C 
HETATM    3  N   UNL     1       6.251  27.150  55.158  1.00  0.00    -0.192 N 
HETATM    4  C   UNL     1       6.970  26.484  56.081  1.00  0.00     0.725 A 
HETATM    5  N   UNL     1       7.358  27.128  57.225  1.00  0.00    -0.082 N 
HETATM    6  N   UNL     1       7.936  26.271  58.098  1.00  0.00    -0.149 NA
HETATM    7  C   UNL     1       7.933  25.146  57.373  1.00  0.00     0.275 A 
HETATM    8  N   UNL     1       7.350  25.232  56.135  1.00  0.00    -0.054 NA
HETATM    9  C   UNL     1       7.064  28.532  57.516  1.00  0.00     0.221 C 
HETATM   10  C   UNL     1       6.102  29.112  56.487  1.00  0.00     0.064 C 
HETATM   11  H   UNL     1       5.890  26.626  54.365  1.00  0.00     0.184 HD
ENDROOT
BRANCH  10  12
HETATM   12  C   UNL     1       5.551  30.435  56.879  1.00  0.00     0.257 C 
HETATM   13  N   UNL     1       5.125  30.483  58.184  1.00  0.00    -0.308 N 
HETATM   14  H   UNL     1       5.123  29.622  58.710  1.00  0.00     0.170 HD
HETATM   15  O   UNL     1       5.496  31.309  56.024  1.00  0.00    -0.267 OA
BRANCH  13  16
HETATM   16  C   UNL     1       4.705  31.642  58.850  1.00  0.00     0.129 A 
HETATM   17  N   UNL     1       3.468  32.131  58.663  1.00  0.00    -0.243 NA
HETATM   18  C   UNL     1       3.128  33.269  59.304  1.00  0.00     0.119 A 
HETATM   19  C   UNL     1       3.986  33.971  60.130  1.00  0.00     0.019 A 
HETATM   20  C   UNL     1       5.266  33.465  60.312  1.00  0.00     0.005 A 
HETATM   21  C   UNL     1       5.631  32.283  59.670  1.00  0.00     0.050 A 
ENDBRANCH  13  16
ENDBRANCH  10  12
BRANCH   9  22
HETATM   22  C   UNL     1       8.380  29.299  57.587  1.00  0.00     0.064 A 
HETATM   23  N   UNL     1       8.569  30.176  58.614  1.00  0.00    -0.263 NA
HETATM   24  C   UNL     1       9.712  30.898  58.615  1.00  0.00     0.117 A 
HETATM   25  C   UNL     1      10.696  30.788  57.648  1.00  0.00     0.019 A 
HETATM   26  C   UNL     1      10.502  29.882  56.614  1.00  0.00     0.003 A 
HETATM   27  C   UNL     1       9.331  29.130  56.577  1.00  0.00     0.030 A 
ENDBRANCH   9  22
TORSDOF 3
ENDMDL
MODEL 7
REMARK VINA RESULT:      -7.7      2.508      5.999
REMARK  3 active torsions:
REMARK  status: ('A' for Active; 'I' for Inactive)
REMARK    1  A    between atoms: C_9  and  C_10 
REMARK    2  A    between atoms: C_16  and  C_17 
REMARK       I    between atoms: C_17  and  N_18 
REMARK    3  A    between atoms: N_18  and  C_19 
ROOT
HETATM    1  C   UNL     1       7.103  25.322  57.706  1.00  0.00     0.070 C 
HETATM    2  C   UNL     1       7.129  25.493  56.208  1.00  0.00     0.037 C 
HETATM    3  N   UNL     1       7.069  24.316  55.466  1.00  0.00    -0.192 N 
HETATM    4  C   UNL     1       7.330  24.271  54.146  1.00  0.00     0.725 A 
HETATM    5  N   UNL     1       7.499  25.440  53.453  1.00  0.00    -0.082 N 
HETATM    6  N   UNL     1       7.899  25.203  52.182  1.00  0.00    -0.149 NA
HETATM    7  C   UNL     1       7.870  23.865  52.164  1.00  0.00     0.275 A 
HETATM    8  N   UNL     1       7.529  23.256  53.343  1.00  0.00    -0.054 NA
HETATM    9  C   UNL     1       7.388  26.771  54.051  1.00  0.00     0.221 C 
HETATM   10  C   UNL     1       7.272  26.680  55.567  1.00  0.00     0.064 C 
HETATM   11  H   UNL     1       7.046  23.438  55.978  1.00  0.00     0.184 HD
ENDROOT
BRANCH  10  12
HETATM   12  C   UNL     1       7.435  27.990  56.248  1.00  0.00     0.257 C 
HETATM   13  N   UNL     1       8.557  28.058  57.037  1.00  0.00    -0.308 N 
HETATM   14  H   UNL     1       9.093  27.213  57.165  1.00  0.00     0.170 HD
HETATM   15  O   UNL     1       6.567  28.836  56.079  1.00  0.00    -0.267 OA
BRANCH  13  16
HETATM   16  C   UNL     1       9.027  29.217  57.668  1.00  0.00     0.129 A 
HETATM   17  N   UNL     1       8.428  29.686  58.776  1.00  0.00    -0.243 NA
HETATM   18  C   UNL     1       8.901  30.826  59.323  1.00  0.00     0.119 A 
HETATM   19  C   UNL     1       9.958  31.548  58.799  1.00  0.00     0.019 A 
HETATM   20  C   UNL     1      10.567  31.062  57.650  1.00  0.00     0.005 A 
HETATM   21  C   UNL     1      10.101  29.879  57.078  1.00  0.00     0.050 A 
ENDBRANCH  13  16
ENDBRANCH  10  12
BRANCH   9  22
HETATM   22  C   UNL     1       6.206  27.493  53.413  1.00  0.00     0.064 A 
HETATM   23  N   UNL     1       6.456  28.542  52.578  1.00  0.00    -0.263 NA
HETATM   24  C   UNL     1       5.390  29.212  52.084  1.00  0.00     0.117 A 
HETATM   25  C   UNL     1       4.074  28.887  52.365  1.00  0.00     0.019 A 
HETATM   26  C   UNL     1       3.830  27.809  53.204  1.00  0.00     0.003 A 
HETATM   27  C   UNL     1       4.903  27.103  53.739  1.00  0.00     0.030 A 
ENDBRANCH   9  22
TORSDOF 3
ENDMDL
MODEL 8
REMARK VINA RESULT:      -7.6      3.187      6.938
REMARK  3 active torsions:
REMARK  status: ('A' for Active; 'I' for Inactive)
REMARK    1  A    between atoms: C_9  and  C_10 
REMARK    2  A    between atoms: C_16  and  C_17 
REMARK       I    between atoms: C_17  and  N_18 
REMARK    3  A    between atoms: N_18  and  C_19 
ROOT
HETATM    1  C   UNL     1       7.725  26.100  57.748  1.00  0.00     0.070 C 
HETATM    2  C   UNL     1       6.979  26.918  56.724  1.00  0.00     0.037 C 
HETATM    3  N   UNL     1       6.180  26.195  55.842  1.00  0.00    -0.192 N 
HETATM    4  C   UNL     1       5.651  26.733  54.727  1.00  0.00     0.725 A 
HETATM    5  N   UNL     1       5.751  28.083  54.518  1.00  0.00    -0.082 N 
HETATM    6  N   UNL     1       5.302  28.423  53.288  1.00  0.00    -0.149 NA
HETATM    7  C   UNL     1       4.873  27.234  52.848  1.00  0.00     0.275 A 
HETATM    8  N   UNL     1       5.069  26.175  53.696  1.00  0.00    -0.054 NA
HETATM    9  C   UNL     1       6.384  29.013  55.455  1.00  0.00     0.221 C 
HETATM   10  C   UNL     1       7.092  28.261  56.575  1.00  0.00     0.064 C 
HETATM   11  H   UNL     1       6.181  25.182  55.928  1.00  0.00     0.184 HD
ENDROOT
BRANCH  10  12
HETATM   12  C   UNL     1       7.979  29.128  57.393  1.00  0.00     0.257 C 
HETATM   13  N   UNL     1       7.322  29.767  58.417  1.00  0.00    -0.308 N 
HETATM   14  H   UNL     1       6.317  29.681  58.457  1.00  0.00     0.170 HD
HETATM   15  O   UNL     1       9.155  29.217  57.066  1.00  0.00    -0.267 OA
BRANCH  13  16
HETATM   16  C   UNL     1       7.942  30.520  59.423  1.00  0.00     0.129 A 
HETATM   17  N   UNL     1       8.801  29.943  60.280  1.00  0.00    -0.243 NA
HETATM   18  C   UNL     1       9.345  30.708  61.250  1.00  0.00     0.119 A 
HETATM   19  C   UNL     1       9.055  32.049  61.423  1.00  0.00     0.019 A 
HETATM   20  C   UNL     1       8.160  32.637  60.539  1.00  0.00     0.005 A 
HETATM   21  C   UNL     1       7.600  31.866  59.521  1.00  0.00     0.050 A 
ENDBRANCH  13  16
ENDBRANCH  10  12
BRANCH   9  22
HETATM   22  C   UNL     1       5.322  29.976  55.974  1.00  0.00     0.064 A 
HETATM   23  N   UNL     1       5.613  31.308  56.012  1.00  0.00    -0.263 NA
HETATM   24  C   UNL     1       4.684  32.134  56.545  1.00  0.00     0.117 A 
HETATM   25  C   UNL     1       3.462  31.708  57.036  1.00  0.00     0.019 A 
HETATM   26  C   UNL     1       3.169  30.353  56.981  1.00  0.00     0.003 A 
HETATM   27  C   UNL     1       4.107  29.473  56.448  1.00  0.00     0.030 A 
ENDBRANCH   9  22
TORSDOF 3
ENDMDL
MODEL 9
REMARK VINA RESULT:      -7.1      2.956      6.555
REMARK  3 active torsions:
REMARK  status: ('A' for Active; 'I' for Inactive)
REMARK    1  A    between atoms: C_9  and  C_10 
REMARK    2  A    between atoms: C_16  and  C_17 
REMARK       I    between atoms: C_17  and  N_18 
REMARK    3  A    between atoms: N_18  and  C_19 
ROOT
HETATM    1  C   UNL     1       5.682  30.850  50.537  1.00  0.00     0.070 C 
HETATM    2  C   UNL     1       5.328  29.396  50.351  1.00  0.00     0.037 C 
HETATM    3  N   UNL     1       5.502  28.894  49.065  1.00  0.00    -0.192 N 
HETATM    4  C   UNL     1       5.006  27.705  48.672  1.00  0.00     0.725 A 
HETATM    5  N   UNL     1       4.452  26.866  49.602  1.00  0.00    -0.082 N 
HETATM    6  N   UNL     1       3.875  25.794  49.012  1.00  0.00    -0.149 NA
HETATM    7  C   UNL     1       4.195  26.018  47.732  1.00  0.00     0.275 A 
HETATM    8  N   UNL     1       4.885  27.176  47.480  1.00  0.00    -0.054 NA
HETATM    9  C   UNL     1       4.380  27.162  51.033  1.00  0.00     0.221 C 
HETATM   10  C   UNL     1       4.806  28.597  51.315  1.00  0.00     0.064 C 
HETATM   11  H   UNL     1       5.817  29.540  48.346  1.00  0.00     0.184 HD
ENDROOT
BRANCH  10  12
HETATM   12  C   UNL     1       4.492  29.041  52.698  1.00  0.00     0.257 C 
HETATM   13  N   UNL     1       5.520  28.829  53.585  1.00  0.00    -0.308 N 
HETATM   14  H   UNL     1       6.324  28.315  53.258  1.00  0.00     0.170 HD
HETATM   15  O   UNL     1       3.378  29.498  52.915  1.00  0.00    -0.267 OA
BRANCH  13  16
HETATM   16  C   UNL     1       5.546  29.287  54.908  1.00  0.00     0.129 A 
HETATM   17  N   UNL     1       5.173  30.543  55.207  1.00  0.00    -0.243 NA
HETATM   18  C   UNL     1       5.250  30.942  56.495  1.00  0.00     0.119 A 
HETATM   19  C   UNL     1       5.706  30.136  57.522  1.00  0.00     0.019 A 
HETATM   20  C   UNL     1       6.097  28.843  57.205  1.00  0.00     0.005 A 
HETATM   21  C   UNL     1       6.012  28.408  55.883  1.00  0.00     0.050 A 
ENDBRANCH  13  16
ENDBRANCH  10  12
BRANCH   9  22
HETATM   22  C   UNL     1       5.227  26.140  51.784  1.00  0.00     0.064 A 
HETATM   23  N   UNL     1       4.712  25.567  52.909  1.00  0.00    -0.263 NA
HETATM   24  C   UNL     1       5.509  24.719  53.597  1.00  0.00     0.117 A 
HETATM   25  C   UNL     1       6.801  24.395  53.220  1.00  0.00     0.019 A 
HETATM   26  C   UNL     1       7.312  24.972  52.066  1.00  0.00     0.003 A 
HETATM   27  C   UNL     1       6.521  25.857  51.338  1.00  0.00     0.030 A 
ENDBRANCH   9  22
TORSDOF 3
ENDMDL
MODEL 10
REMARK VINA RESULT:      -6.9      2.588      4.448
REMARK  3 active torsions:
REMARK  status: ('A' for Active; 'I' for Inactive)
REMARK    1  A    between atoms: C_9  and  C_10 
REMARK    2  A    between atoms: C_16  and  C_17 
REMARK       I    between atoms: C_17  and  N_18 
REMARK    3  A    between atoms: N_18  and  C_19 
ROOT
HETATM    1  C   UNL     1       9.104  28.686  57.187  1.00  0.00     0.070 C 
HETATM    2  C   UNL     1       7.864  29.515  57.401  1.00  0.00     0.037 C 
HETATM    3  N   UNL     1       8.045  30.696  58.115  1.00  0.00    -0.192 N 
HETATM    4  C   UNL     1       7.019  31.418  58.604  1.00  0.00     0.725 A 
HETATM    5  N   UNL     1       5.736  31.088  58.256  1.00  0.00    -0.082 N 
HETATM    6  N   UNL     1       4.835  31.818  58.953  1.00  0.00    -0.149 NA
HETATM    7  C   UNL     1       5.655  32.623  59.641  1.00  0.00     0.275 A 
HETATM    8  N   UNL     1       6.996  32.411  59.458  1.00  0.00    -0.054 NA
HETATM    9  C   UNL     1       5.389  29.995  57.346  1.00  0.00     0.221 C 
HETATM   10  C   UNL     1       6.615  29.155  57.011  1.00  0.00     0.064 C 
HETATM   11  H   UNL     1       8.978  30.897  58.464  1.00  0.00     0.184 HD
ENDROOT
BRANCH  10  12
HETATM   12  C   UNL     1       6.283  27.880  56.323  1.00  0.00     0.257 C 
HETATM   13  N   UNL     1       6.435  27.941  54.960  1.00  0.00    -0.308 N 
HETATM   14  H   UNL     1       6.647  28.839  54.550  1.00  0.00     0.170 HD
HETATM   15  O   UNL     1       5.882  26.947  57.007  1.00  0.00    -0.267 OA
BRANCH  13  16
HETATM   16  C   UNL     1       6.334  26.847  54.090  1.00  0.00     0.129 A 
HETATM   17  N   UNL     1       5.144  26.275  53.842  1.00  0.00    -0.243 NA
HETATM   18  C   UNL     1       5.110  25.203  53.023  1.00  0.00     0.119 A 
HETATM   19  C   UNL     1       6.233  24.649  52.436  1.00  0.00     0.019 A 
HETATM   20  C   UNL     1       7.460  25.240  52.702  1.00  0.00     0.005 A 
HETATM   21  C   UNL     1       7.514  26.357  53.535  1.00  0.00     0.050 A 
ENDBRANCH  13  16
ENDBRANCH  10  12
BRANCH   9  22
HETATM   22  C   UNL     1       4.727  30.587  56.107  1.00  0.00     0.064 A 
HETATM   23  N   UNL     1       3.901  29.792  55.367  1.00  0.00    -0.263 NA
HETATM   24  C   UNL     1       3.384  30.317  54.233  1.00  0.00     0.117 A 
HETATM   25  C   UNL     1       3.633  31.605  53.793  1.00  0.00     0.019 A 
HETATM   26  C   UNL     1       4.464  32.411  54.560  1.00  0.00     0.003 A 
HETATM   27  C   UNL     1       5.021  31.900  55.728  1.00  0.00     0.030 A 
ENDBRANCH   9  22
TORSDOF 3
ENDMDL
