MODEL 1
REMARK VINA RESULT:      -8.7      0.000      0.000
REMARK  4 active torsions:
REMARK  status: ('A' for Active; 'I' for Inactive)
REMARK    1  A    between atoms: C_4  and  C_5 
REMARK       I    between atoms: C_5  and  N_6 
REMARK    2  A    between atoms: N_6  and  C_7 
REMARK    3  A    between atoms: C_7  and  N_8 
REMARK    4  A    between atoms: N_8  and  C_9 
ROOT
HETATM    1  C   UNL     1       7.572  25.281  53.071  1.00  0.00     0.257 C 
HETATM    2  N   UNL     1       7.338  26.331  53.951  1.00  0.00    -0.299 N 
HETATM    3  O   UNL     1       7.761  25.358  51.865  1.00  0.00    -0.267 OA
HETATM    4  H   UNL     1       7.443  26.108  54.939  1.00  0.00     0.171 HD
ENDROOT
BRANCH   2   5
HETATM    5  C   UNL     1       6.982  27.645  53.741  1.00  0.00     0.180 C 
HETATM    6  S   UNL     1       5.583  28.207  53.021  1.00  0.00    -0.040 SA
BRANCH   5   7
HETATM    7  N   UNL     1       7.877  28.590  54.185  1.00  0.00    -0.318 N 
HETATM    8  H   UNL     1       8.367  29.072  53.442  1.00  0.00     0.170 HD
BRANCH   7   9
HETATM    9  C   UNL     1       8.216  28.924  55.505  1.00  0.00     0.129 A 
HETATM   10  N   UNL     1       9.489  29.278  55.795  1.00  0.00    -0.236 NA
HETATM   11  C   UNL     1       9.780  29.626  57.073  1.00  0.00     0.033 A 
HETATM   12  C   UNL     1      11.192  30.036  57.370  1.00  0.00     0.070 C 
HETATM   13  C   UNL     1       8.831  29.606  58.087  1.00  0.00     0.027 A 
HETATM   14  C   UNL     1       7.531  29.226  57.776  1.00  0.00     0.006 A 
HETATM   15  C   UNL     1       7.215  28.880  56.465  1.00  0.00     0.050 A 
ENDBRANCH   7   9
ENDBRANCH   5   7
ENDBRANCH   2   5
BRANCH   1  16
HETATM   16  C   UNL     1       7.709  23.965  53.744  1.00  0.00     0.032 A 
HETATM   17  C   UNL     1       7.979  22.807  53.001  1.00  0.00     0.023 A 
HETATM   18  C   UNL     1       8.083  21.568  53.645  1.00  0.00    -0.061 A 
HETATM   19  C   UNL     1       8.354  20.318  52.861  1.00  0.00     0.048 C 
HETATM   20  C   UNL     1       7.889  21.502  55.030  1.00  0.00     0.007 A 
HETATM   21  C   UNL     1       7.632  22.659  55.770  1.00  0.00     0.002 A 
HETATM   22  C   UNL     1       7.553  23.894  55.130  1.00  0.00     0.017 A 
ENDBRANCH   1  16
TORSDOF 4
ENDMDL
MODEL 2
REMARK VINA RESULT:      -8.6      2.184      2.912
REMARK  4 active torsions:
REMARK  status: ('A' for Active; 'I' for Inactive)
REMARK    1  A    between atoms: C_4  and  C_5 
REMARK       I    between atoms: C_5  and  N_6 
REMARK    2  A    between atoms: N_6  and  C_7 
REMARK    3  A    between atoms: C_7  and  N_8 
REMARK    4  A    between atoms: N_8  and  C_9 
ROOT
HETATM    1  C   UNL     1       7.451  25.320  56.319  1.00  0.00     0.257 C 
HETATM    2  N   UNL     1       6.736  26.494  56.115  1.00  0.00    -0.299 N 
HETATM    3  O   UNL     1       7.883  24.895  57.381  1.00  0.00    -0.267 OA
HETATM    4  H   UNL     1       6.255  26.566  55.221  1.00  0.00     0.171 HD
ENDROOT
BRANCH   2   5
HETATM    5  C   UNL     1       6.547  27.605  56.908  1.00  0.00     0.180 C 
HETATM    6  S   UNL     1       5.251  28.658  56.874  1.00  0.00    -0.040 SA
BRANCH   5   7
HETATM    7  N   UNL     1       7.534  27.861  57.832  1.00  0.00    -0.318 N 
HETATM    8  H   UNL     1       7.524  27.233  58.626  1.00  0.00     0.170 HD
BRANCH   7   9
HETATM    9  C   UNL     1       8.493  28.883  57.829  1.00  0.00     0.129 A 
HETATM   10  N   UNL     1       8.498  29.793  58.831  1.00  0.00    -0.236 NA
HETATM   11  C   UNL     1       9.457  30.752  58.818  1.00  0.00     0.033 A 
HETATM   12  C   UNL     1       9.459  31.739  59.948  1.00  0.00     0.070 C 
HETATM   13  C   UNL     1      10.408  30.845  57.809  1.00  0.00     0.027 A 
HETATM   14  C   UNL     1      10.381  29.911  56.780  1.00  0.00     0.006 A 
HETATM   15  C   UNL     1       9.411  28.913  56.788  1.00  0.00     0.050 A 
ENDBRANCH   7   9
ENDBRANCH   5   7
ENDBRANCH   2   5
BRANCH   1  16
HETATM   16  C   UNL     1       7.572  24.483  55.100  1.00  0.00     0.032 A 
HETATM   17  C   UNL     1       7.639  23.085  55.197  1.00  0.00     0.023 A 
HETATM   18  C   UNL     1       7.775  22.307  54.040  1.00  0.00    -0.061 A 
HETATM   19  C   UNL     1       7.866  20.812  54.129  1.00  0.00     0.048 C 
HETATM   20  C   UNL     1       7.870  22.946  52.797  1.00  0.00     0.007 A 
HETATM   21  C   UNL     1       7.790  24.337  52.702  1.00  0.00     0.002 A 
HETATM   22  C   UNL     1       7.629  25.108  53.852  1.00  0.00     0.017 A 
ENDBRANCH   1  16
TORSDOF 4
ENDMDL
MODEL 3
REMARK VINA RESULT:      -8.4      3.785      6.190
REMARK  4 active torsions:
REMARK  status: ('A' for Active; 'I' for Inactive)
REMARK    1  A    between atoms: C_4  and  C_5 
REMARK       I    between atoms: C_5  and  N_6 
REMARK    2  A    between atoms: N_6  and  C_7 
REMARK    3  A    between atoms: C_7  and  N_8 
REMARK    4  A    between atoms: N_8  and  C_9 
ROOT
HETATM    1  C   UNL     1       7.312  25.187  52.735  1.00  0.00     0.257 C 
HETATM    2  N   UNL     1       6.068  25.771  52.940  1.00  0.00    -0.299 N 
HETATM    3  O   UNL     1       8.246  25.645  52.092  1.00  0.00    -0.267 OA
HETATM    4  H   UNL     1       5.510  25.367  53.689  1.00  0.00     0.171 HD
ENDROOT
BRANCH   2   5
HETATM    5  C   UNL     1       5.428  26.817  52.309  1.00  0.00     0.180 C 
HETATM    6  S   UNL     1       4.181  27.746  52.917  1.00  0.00    -0.040 SA
BRANCH   5   7
HETATM    7  N   UNL     1       5.881  27.127  51.048  1.00  0.00    -0.318 N 
HETATM    8  H   UNL     1       6.854  27.404  51.019  1.00  0.00     0.170 HD
BRANCH   7   9
HETATM    9  C   UNL     1       5.166  27.150  49.842  1.00  0.00     0.129 A 
HETATM   10  N   UNL     1       4.460  26.059  49.467  1.00  0.00    -0.236 NA
HETATM   11  C   UNL     1       3.754  26.121  48.310  1.00  0.00     0.033 A 
HETATM   12  C   UNL     1       2.961  24.908  47.923  1.00  0.00     0.070 C 
HETATM   13  C   UNL     1       3.752  27.246  47.496  1.00  0.00     0.027 A 
HETATM   14  C   UNL     1       4.493  28.354  47.888  1.00  0.00     0.006 A 
HETATM   15  C   UNL     1       5.212  28.309  49.080  1.00  0.00     0.050 A 
ENDBRANCH   7   9
ENDBRANCH   5   7
ENDBRANCH   2   5
BRANCH   1  16
HETATM   16  C   UNL     1       7.505  23.928  53.497  1.00  0.00     0.032 A 
HETATM   17  C   UNL     1       7.878  22.746  52.841  1.00  0.00     0.023 A 
HETATM   18  C   UNL     1       8.037  21.560  53.568  1.00  0.00    -0.061 A 
HETATM   19  C   UNL     1       8.417  20.283  52.877  1.00  0.00     0.048 C 
HETATM   20  C   UNL     1       7.792  21.568  54.947  1.00  0.00     0.007 A 
HETATM   21  C   UNL     1       7.434  22.749  55.600  1.00  0.00     0.002 A 
HETATM   22  C   UNL     1       7.301  23.934  54.879  1.00  0.00     0.017 A 
ENDBRANCH   1  16
TORSDOF 4
ENDMDL
MODEL 4
REMARK VINA RESULT:      -8.4      2.124      7.394
REMARK  4 active torsions:
REMARK  status: ('A' for Active; 'I' for Inactive)
REMARK    1  A    between atoms: C_4  and  C_5 
REMARK       I    between atoms: C_5  and  N_6 
REMARK    2  A    between atoms: N_6  and  C_7 
REMARK    3  A    between atoms: C_7  and  N_8 
REMARK    4  A    between atoms: N_8  and  C_9 
ROOT
HETATM    1  C   UNL     1       7.914  27.675  57.295  1.00  0.00     0.257 C 
HETATM    2  N   UNL     1       7.410  27.626  56.001  1.00  0.00    -0.299 N 
HETATM    3  O   UNL     1       7.769  26.840  58.176  1.00  0.00    -0.267 OA
HETATM    4  H   UNL     1       7.826  28.280  55.341  1.00  0.00     0.171 HD
ENDROOT
BRANCH   2   5
HETATM    5  C   UNL     1       6.432  26.843  55.425  1.00  0.00     0.180 C 
HETATM    6  S   UNL     1       5.205  27.349  54.412  1.00  0.00    -0.040 SA
BRANCH   5   7
HETATM    7  N   UNL     1       6.490  25.499  55.712  1.00  0.00    -0.318 N 
HETATM    8  H   UNL     1       6.093  25.254  56.610  1.00  0.00     0.170 HD
BRANCH   7   9
HETATM    9  C   UNL     1       7.057  24.465  54.953  1.00  0.00     0.129 A 
HETATM   10  N   UNL     1       7.191  23.235  55.501  1.00  0.00    -0.236 NA
HETATM   11  C   UNL     1       7.714  22.246  54.733  1.00  0.00     0.033 A 
HETATM   12  C   UNL     1       7.834  20.885  55.351  1.00  0.00     0.070 C 
HETATM   13  C   UNL     1       8.135  22.459  53.426  1.00  0.00     0.027 A 
HETATM   14  C   UNL     1       8.003  23.732  52.882  1.00  0.00     0.006 A 
HETATM   15  C   UNL     1       7.455  24.752  53.655  1.00  0.00     0.050 A 
ENDBRANCH   7   9
ENDBRANCH   5   7
ENDBRANCH   2   5
BRANCH   1  16
HETATM   16  C   UNL     1       8.809  28.836  57.535  1.00  0.00     0.032 A 
HETATM   17  C   UNL     1       8.473  29.811  58.486  1.00  0.00     0.023 A 
HETATM   18  C   UNL     1       9.315  30.911  58.689  1.00  0.00    -0.061 A 
HETATM   19  C   UNL     1       8.961  31.972  59.690  1.00  0.00     0.048 C 
HETATM   20  C   UNL     1      10.474  31.035  57.912  1.00  0.00     0.007 A 
HETATM   21  C   UNL     1      10.812  30.056  56.975  1.00  0.00     0.002 A 
HETATM   22  C   UNL     1       9.986  28.948  56.793  1.00  0.00     0.017 A 
ENDBRANCH   1  16
TORSDOF 4
ENDMDL
MODEL 5
REMARK VINA RESULT:      -8.4      2.375      3.057
REMARK  4 active torsions:
REMARK  status: ('A' for Active; 'I' for Inactive)
REMARK    1  A    between atoms: C_4  and  C_5 
REMARK       I    between atoms: C_5  and  N_6 
REMARK    2  A    between atoms: N_6  and  C_7 
REMARK    3  A    between atoms: C_7  and  N_8 
REMARK    4  A    between atoms: N_8  and  C_9 
ROOT
HETATM    1  C   UNL     1       7.382  24.163  53.173  1.00  0.00     0.257 C 
HETATM    2  N   UNL     1       6.066  24.555  53.385  1.00  0.00    -0.299 N 
HETATM    3  O   UNL     1       8.287  24.840  52.707  1.00  0.00    -0.267 OA
HETATM    4  H   UNL     1       5.520  23.950  53.996  1.00  0.00     0.171 HD
ENDROOT
BRANCH   2   5
HETATM    5  C   UNL     1       5.339  25.629  52.918  1.00  0.00     0.180 C 
HETATM    6  S   UNL     1       5.192  26.131  51.332  1.00  0.00    -0.040 SA
BRANCH   5   7
HETATM    7  N   UNL     1       4.656  26.352  53.867  1.00  0.00    -0.318 N 
HETATM    8  H   UNL     1       3.668  26.454  53.672  1.00  0.00     0.170 HD
BRANCH   7   9
HETATM    9  C   UNL     1       5.156  26.985  55.015  1.00  0.00     0.129 A 
HETATM   10  N   UNL     1       6.204  26.437  55.672  1.00  0.00    -0.236 NA
HETATM   11  C   UNL     1       6.686  27.087  56.760  1.00  0.00     0.033 A 
HETATM   12  C   UNL     1       7.861  26.475  57.464  1.00  0.00     0.070 C 
HETATM   13  C   UNL     1       6.131  28.271  57.231  1.00  0.00     0.027 A 
HETATM   14  C   UNL     1       5.047  28.814  56.551  1.00  0.00     0.006 A 
HETATM   15  C   UNL     1       4.550  28.164  55.425  1.00  0.00     0.050 A 
ENDBRANCH   7   9
ENDBRANCH   5   7
ENDBRANCH   2   5
BRANCH   1  16
HETATM   16  C   UNL     1       7.685  22.806  53.692  1.00  0.00     0.032 A 
HETATM   17  C   UNL     1       7.825  22.583  55.070  1.00  0.00     0.023 A 
HETATM   18  C   UNL     1       8.132  21.302  55.545  1.00  0.00    -0.061 A 
HETATM   19  C   UNL     1       8.302  21.051  57.015  1.00  0.00     0.048 C 
HETATM   20  C   UNL     1       8.323  20.262  54.627  1.00  0.00     0.007 A 
HETATM   21  C   UNL     1       8.172  20.485  53.256  1.00  0.00     0.002 A 
HETATM   22  C   UNL     1       7.841  21.754  52.787  1.00  0.00     0.017 A 
ENDBRANCH   1  16
TORSDOF 4
ENDMDL
MODEL 6
REMARK VINA RESULT:      -8.2      1.842      2.102
REMARK  4 active torsions:
REMARK  status: ('A' for Active; 'I' for Inactive)
REMARK    1  A    between atoms: C_4  and  C_5 
REMARK       I    between atoms: C_5  and  N_6 
REMARK    2  A    between atoms: N_6  and  C_7 
REMARK    3  A    between atoms: C_7  and  N_8 
REMARK    4  A    between atoms: N_8  and  C_9 
ROOT
HETATM    1  C   UNL     1       7.376  24.422  56.227  1.00  0.00     0.257 C 
HETATM    2  N   UNL     1       7.360  25.273  55.130  1.00  0.00    -0.299 N 
HETATM    3  O   UNL     1       7.014  24.679  57.367  1.00  0.00    -0.267 OA
HETATM    4  H   UNL     1       7.467  24.823  54.222  1.00  0.00     0.171 HD
ENDROOT
BRANCH   2   5
HETATM    5  C   UNL     1       7.225  26.641  55.029  1.00  0.00     0.180 C 
HETATM    6  S   UNL     1       7.402  27.571  53.653  1.00  0.00    -0.040 SA
BRANCH   5   7
HETATM    7  N   UNL     1       6.896  27.301  56.190  1.00  0.00    -0.318 N 
HETATM    8  H   UNL     1       5.994  27.041  56.568  1.00  0.00     0.170 HD
BRANCH   7   9
HETATM    9  C   UNL     1       7.619  28.293  56.869  1.00  0.00     0.129 A 
HETATM   10  N   UNL     1       8.943  28.434  56.625  1.00  0.00    -0.236 NA
HETATM   11  C   UNL     1       9.609  29.423  57.273  1.00  0.00     0.033 A 
HETATM   12  C   UNL     1      11.071  29.577  56.974  1.00  0.00     0.070 C 
HETATM   13  C   UNL     1       8.990  30.268  58.185  1.00  0.00     0.027 A 
HETATM   14  C   UNL     1       7.633  30.101  58.433  1.00  0.00     0.006 A 
HETATM   15  C   UNL     1       6.934  29.100  57.766  1.00  0.00     0.050 A 
ENDBRANCH   7   9
ENDBRANCH   5   7
ENDBRANCH   2   5
BRANCH   1  16
HETATM   16  C   UNL     1       7.778  23.032  55.892  1.00  0.00     0.032 A 
HETATM   17  C   UNL     1       7.652  22.549  54.581  1.00  0.00     0.023 A 
HETATM   18  C   UNL     1       8.015  21.231  54.281  1.00  0.00    -0.061 A 
HETATM   19  C   UNL     1       7.869  20.694  52.887  1.00  0.00     0.048 C 
HETATM   20  C   UNL     1       8.477  20.400  55.311  1.00  0.00     0.007 A 
HETATM   21  C   UNL     1       8.612  20.888  56.613  1.00  0.00     0.002 A 
HETATM   22  C   UNL     1       8.275  22.209  56.903  1.00  0.00     0.017 A 
ENDBRANCH   1  16
TORSDOF 4
ENDMDL
MODEL 7
REMARK VINA RESULT:      -8.1      3.307      4.869
REMARK  4 active torsions:
REMARK  status: ('A' for Active; 'I' for Inactive)
REMARK    1  A    between atoms: C_4  and  C_5 
REMARK       I    between atoms: C_5  and  N_6 
REMARK    2  A    between atoms: N_6  and  C_7 
REMARK    3  A    between atoms: C_7  and  N_8 
REMARK    4  A    between atoms: N_8  and  C_9 
ROOT
HETATM    1  C   UNL     1       7.473  24.508  53.733  1.00  0.00     0.257 C 
HETATM    2  N   UNL     1       6.573  25.052  54.641  1.00  0.00    -0.299 N 
HETATM    3  O   UNL     1       8.100  25.104  52.868  1.00  0.00    -0.267 OA
HETATM    4  H   UNL     1       6.334  24.458  55.432  1.00  0.00     0.171 HD
ENDROOT
BRANCH   2   5
HETATM    5  C   UNL     1       5.927  26.269  54.679  1.00  0.00     0.180 C 
HETATM    6  S   UNL     1       6.265  27.556  55.688  1.00  0.00    -0.040 SA
BRANCH   5   7
HETATM    7  N   UNL     1       4.903  26.435  53.776  1.00  0.00    -0.318 N 
HETATM    8  H   UNL     1       3.991  26.189  54.141  1.00  0.00     0.170 HD
BRANCH   7   9
HETATM    9  C   UNL     1       4.973  26.850  52.438  1.00  0.00     0.129 A 
HETATM   10  N   UNL     1       5.132  28.164  52.157  1.00  0.00    -0.236 NA
HETATM   11  C   UNL     1       5.227  28.531  50.855  1.00  0.00     0.033 A 
HETATM   12  C   UNL     1       5.424  29.989  50.564  1.00  0.00     0.070 C 
HETATM   13  C   UNL     1       5.143  27.617  49.812  1.00  0.00     0.027 A 
HETATM   14  C   UNL     1       4.966  26.272  50.118  1.00  0.00     0.006 A 
HETATM   15  C   UNL     1       4.880  25.879  51.450  1.00  0.00     0.050 A 
ENDBRANCH   7   9
ENDBRANCH   5   7
ENDBRANCH   2   5
BRANCH   1  16
HETATM   16  C   UNL     1       7.744  23.066  53.961  1.00  0.00     0.032 A 
HETATM   17  C   UNL     1       7.939  22.573  55.259  1.00  0.00     0.023 A 
HETATM   18  C   UNL     1       8.214  21.215  55.459  1.00  0.00    -0.061 A 
HETATM   19  C   UNL     1       8.443  20.675  56.841  1.00  0.00     0.048 C 
HETATM   20  C   UNL     1       8.319  20.369  54.347  1.00  0.00     0.007 A 
HETATM   21  C   UNL     1       8.113  20.862  53.056  1.00  0.00     0.002 A 
HETATM   22  C   UNL     1       7.813  22.208  52.861  1.00  0.00     0.017 A 
ENDBRANCH   1  16
TORSDOF 4
ENDMDL
MODEL 8
REMARK VINA RESULT:      -8.0      1.924      6.828
REMARK  4 active torsions:
REMARK  status: ('A' for Active; 'I' for Inactive)
REMARK    1  A    between atoms: C_4  and  C_5 
REMARK       I    between atoms: C_5  and  N_6 
REMARK    2  A    between atoms: N_6  and  C_7 
REMARK    3  A    between atoms: C_7  and  N_8 
REMARK    4  A    between atoms: N_8  and  C_9 
ROOT
HETATM    1  C   UNL     1       6.984  27.151  56.705  1.00  0.00     0.257 C 
HETATM    2  N   UNL     1       6.669  27.225  55.354  1.00  0.00    -0.299 N 
HETATM    3  O   UNL     1       6.781  26.210  57.460  1.00  0.00    -0.267 OA
HETATM    4  H   UNL     1       7.122  27.977  54.837  1.00  0.00     0.171 HD
ENDROOT
BRANCH   2   5
HETATM    5  C   UNL     1       5.842  26.461  54.559  1.00  0.00     0.180 C 
HETATM    6  S   UNL     1       4.946  26.978  53.248  1.00  0.00    -0.040 SA
BRANCH   5   7
HETATM    7  N   UNL     1       5.762  25.126  54.882  1.00  0.00    -0.318 N 
HETATM    8  H   UNL     1       4.957  24.889  55.447  1.00  0.00     0.170 HD
BRANCH   7   9
HETATM    9  C   UNL     1       6.660  24.094  54.570  1.00  0.00     0.129 A 
HETATM   10  N   UNL     1       7.131  23.302  55.561  1.00  0.00    -0.236 NA
HETATM   11  C   UNL     1       7.973  22.293  55.225  1.00  0.00     0.033 A 
HETATM   12  C   UNL     1       8.469  21.413  56.334  1.00  0.00     0.070 C 
HETATM   13  C   UNL     1       8.382  22.064  53.917  1.00  0.00     0.027 A 
HETATM   14  C   UNL     1       7.899  22.895  52.914  1.00  0.00     0.006 A 
HETATM   15  C   UNL     1       7.023  23.926  53.242  1.00  0.00     0.050 A 
ENDBRANCH   7   9
ENDBRANCH   5   7
ENDBRANCH   2   5
BRANCH   1  16
HETATM   16  C   UNL     1       7.747  28.324  57.199  1.00  0.00     0.032 A 
HETATM   17  C   UNL     1       9.113  28.460  56.913  1.00  0.00     0.023 A 
HETATM   18  C   UNL     1       9.827  29.561  57.403  1.00  0.00    -0.061 A 
HETATM   19  C   UNL     1      11.293  29.712  57.120  1.00  0.00     0.048 C 
HETATM   20  C   UNL     1       9.164  30.503  58.201  1.00  0.00     0.007 A 
HETATM   21  C   UNL     1       7.800  30.371  58.474  1.00  0.00     0.002 A 
HETATM   22  C   UNL     1       7.086  29.288  57.964  1.00  0.00     0.017 A 
ENDBRANCH   1  16
TORSDOF 4
ENDMDL
MODEL 9
REMARK VINA RESULT:      -8.0      2.671      3.319
REMARK  4 active torsions:
REMARK  status: ('A' for Active; 'I' for Inactive)
REMARK    1  A    between atoms: C_4  and  C_5 
REMARK       I    between atoms: C_5  and  N_6 
REMARK    2  A    between atoms: N_6  and  C_7 
REMARK    3  A    between atoms: C_7  and  N_8 
REMARK    4  A    between atoms: N_8  and  C_9 
ROOT
HETATM    1  C   UNL     1       6.952  25.118  53.656  1.00  0.00     0.257 C 
HETATM    2  N   UNL     1       5.692  25.121  53.073  1.00  0.00    -0.299 N 
HETATM    3  O   UNL     1       7.663  26.087  53.884  1.00  0.00    -0.267 OA
HETATM    4  H   UNL     1       5.154  24.263  53.182  1.00  0.00     0.171 HD
ENDROOT
BRANCH   2   5
HETATM    5  C   UNL     1       5.011  26.083  52.359  1.00  0.00     0.180 C 
HETATM    6  S   UNL     1       5.215  26.474  50.749  1.00  0.00    -0.040 SA
BRANCH   5   7
HETATM    7  N   UNL     1       4.054  26.785  53.055  1.00  0.00    -0.318 N 
HETATM    8  H   UNL     1       3.107  26.476  52.874  1.00  0.00     0.170 HD
BRANCH   7   9
HETATM    9  C   UNL     1       4.224  27.873  53.924  1.00  0.00     0.129 A 
HETATM   10  N   UNL     1       4.808  27.676  55.129  1.00  0.00    -0.236 NA
HETATM   11  C   UNL     1       4.987  28.753  55.935  1.00  0.00     0.033 A 
HETATM   12  C   UNL     1       5.654  28.518  57.257  1.00  0.00     0.070 C 
HETATM   13  C   UNL     1       4.573  30.030  55.579  1.00  0.00     0.027 A 
HETATM   14  C   UNL     1       3.963  30.213  54.343  1.00  0.00     0.006 A 
HETATM   15  C   UNL     1       3.786  29.119  53.500  1.00  0.00     0.050 A 
ENDBRANCH   7   9
ENDBRANCH   5   7
ENDBRANCH   2   5
BRANCH   1  16
HETATM   16  C   UNL     1       7.379  23.778  54.135  1.00  0.00     0.032 A 
HETATM   17  C   UNL     1       7.675  22.755  53.222  1.00  0.00     0.023 A 
HETATM   18  C   UNL     1       8.056  21.490  53.686  1.00  0.00    -0.061 A 
HETATM   19  C   UNL     1       8.359  20.380  52.723  1.00  0.00     0.048 C 
HETATM   20  C   UNL     1       8.108  21.258  55.067  1.00  0.00     0.007 A 
HETATM   21  C   UNL     1       7.824  22.282  55.973  1.00  0.00     0.002 A 
HETATM   22  C   UNL     1       7.471  23.548  55.508  1.00  0.00     0.017 A 
ENDBRANCH   1  16
TORSDOF 4
ENDMDL
MODEL 10
REMARK VINA RESULT:      -7.7     11.178     14.201
REMARK  4 active torsions:
REMARK  status: ('A' for Active; 'I' for Inactive)
REMARK    1  A    between atoms: C_4  and  C_5 
REMARK       I    between atoms: C_5  and  N_6 
REMARK    2  A    between atoms: N_6  and  C_7 
REMARK    3  A    between atoms: C_7  and  N_8 
REMARK    4  A    between atoms: N_8  and  C_9 
ROOT
HETATM    1  C   UNL     1       6.545  33.719  65.213  1.00  0.00     0.257 C 
HETATM    2  N   UNL     1       5.211  33.697  65.601  1.00  0.00    -0.299 N 
HETATM    3  O   UNL     1       7.513  33.988  65.910  1.00  0.00    -0.267 OA
HETATM    4  H   UNL     1       4.575  33.223  64.963  1.00  0.00     0.171 HD
ENDROOT
BRANCH   2   5
HETATM    5  C   UNL     1       4.568  34.204  66.709  1.00  0.00     0.180 C 
HETATM    6  S   UNL     1       3.403  35.402  66.737  1.00  0.00    -0.040 SA
BRANCH   5   7
HETATM    7  N   UNL     1       4.921  33.650  67.917  1.00  0.00    -0.318 N 
HETATM    8  H   UNL     1       4.364  32.846  68.178  1.00  0.00     0.170 HD
BRANCH   7   9
HETATM    9  C   UNL     1       5.901  34.079  68.825  1.00  0.00     0.129 A 
HETATM   10  N   UNL     1       6.314  33.239  69.802  1.00  0.00    -0.236 NA
HETATM   11  C   UNL     1       7.285  33.670  70.646  1.00  0.00     0.033 A 
HETATM   12  C   UNL     1       7.744  32.717  71.710  1.00  0.00     0.070 C 
HETATM   13  C   UNL     1       7.845  34.938  70.556  1.00  0.00     0.027 A 
HETATM   14  C   UNL     1       7.400  35.793  69.554  1.00  0.00     0.006 A 
HETATM   15  C   UNL     1       6.414  35.359  68.673  1.00  0.00     0.050 A 
ENDBRANCH   7   9
ENDBRANCH   5   7
ENDBRANCH   2   5
BRANCH   1  16
HETATM   16  C   UNL     1       6.763  33.247  63.822  1.00  0.00     0.032 A 
HETATM   17  C   UNL     1       7.960  32.609  63.464  1.00  0.00     0.023 A 
HETATM   18  C   UNL     1       8.162  32.188  62.144  1.00  0.00    -0.061 A 
HETATM   19  C   UNL     1       9.444  31.520  61.741  1.00  0.00     0.048 C 
HETATM   20  C   UNL     1       7.168  32.437  61.189  1.00  0.00     0.007 A 
HETATM   21  C   UNL     1       5.972  33.061  61.552  1.00  0.00     0.002 A 
HETATM   22  C   UNL     1       5.762  33.457  62.871  1.00  0.00     0.017 A 
ENDBRANCH   1  16
TORSDOF 4
ENDMDL
