MODEL 1
REMARK VINA RESULT:      -8.9      0.000      0.000
REMARK  4 active torsions:
REMARK  status: ('A' for Active; 'I' for Inactive)
REMARK    1  A    between atoms: C_7  and  C_8 
REMARK    2  A    between atoms: C_11  and  O_12 
REMARK    3  A    between atoms: C_17  and  C_18 
REMARK    4  A    between atoms: C_25  and  C_26 
REMARK       I    between atoms: C_26  and  N_27 
ROOT
HETATM    1  C   UNL     1       3.503  28.364  49.767  1.00  0.00     0.070 C 
HETATM    2  C   UNL     1       4.411  27.904  50.881  1.00  0.00     0.037 C 
HETATM    3  N   UNL     1       4.365  26.540  51.171  1.00  0.00    -0.192 N 
HETATM    4  C   UNL     1       5.258  25.937  51.979  1.00  0.00     0.726 A 
HETATM    5  N   UNL     1       6.123  26.705  52.700  1.00  0.00    -0.083 N 
HETATM    6  N   UNL     1       7.012  25.956  53.377  1.00  0.00    -0.135 NA
HETATM    7  C   UNL     1       6.585  24.713  53.082  1.00  0.00     0.199 A 
HETATM    8  N   UNL     1       5.505  24.676  52.213  1.00  0.00    -0.041 NA
HETATM    9  C   UNL     1       6.091  28.169  52.724  1.00  0.00     0.202 C 
HETATM   10  C   UNL     1       5.237  28.723  51.586  1.00  0.00     0.062 C 
HETATM   11  H   UNL     1       3.809  25.955  50.552  1.00  0.00     0.184 HD
ENDROOT
BRANCH   7  12
HETATM   12  C   UNL     1       7.190  23.499  53.624  1.00  0.00     0.014 A 
HETATM   13  C   UNL     1       7.223  23.264  55.006  1.00  0.00     0.018 A 
HETATM   14  C   UNL     1       7.791  22.092  55.513  1.00  0.00     0.037 A 
HETATM   15  C   UNL     1       8.331  21.133  54.655  1.00  0.00     0.068 A 
HETATM   16  C   UNL     1       8.310  21.361  53.279  1.00  0.00     0.037 A 
HETATM   17  C   UNL     1       7.744  22.537  52.769  1.00  0.00     0.018 A 
BRANCH  15  18
HETATM   18  O   UNL     1       8.846  20.031  55.280  1.00  0.00    -0.356 OA
HETATM   19  C   UNL     1       9.077  20.137  56.679  1.00  0.00     0.210 C 
ENDBRANCH  15  18
ENDBRANCH   7  12
BRANCH   9  20
HETATM   20  C   UNL     1       5.638  28.619  54.118  1.00  0.00    -0.028 A 
HETATM   21  C   UNL     1       6.602  28.999  55.070  1.00  0.00     0.012 A 
HETATM   22  C   UNL     1       6.216  29.400  56.351  1.00  0.00     0.043 A 
HETATM   23  C   UNL     1       4.869  29.418  56.687  1.00  0.00     0.116 A 
HETATM   24  F   UNL     1       4.501  29.804  57.916  1.00  0.00    -0.206 F 
HETATM   25  C   UNL     1       3.899  29.034  55.771  1.00  0.00     0.043 A 
HETATM   26  C   UNL     1       4.280  28.628  54.491  1.00  0.00     0.012 A 
ENDBRANCH   9  20
BRANCH  10  27
HETATM   27  C   UNL     1       5.459  30.131  51.161  1.00  0.00     0.249 C 
HETATM   28  N   UNL     1       4.777  31.099  51.823  1.00  0.00    -0.366 N 
HETATM   29  H   UNL     1       4.007  30.941  52.457  1.00  0.00     0.159 HD
HETATM   30  H   UNL     1       4.908  32.047  51.489  1.00  0.00     0.159 HD
HETATM   31  O   UNL     1       6.244  30.440  50.272  1.00  0.00    -0.268 OA
ENDBRANCH  10  27
TORSDOF 4
ENDMDL
MODEL 2
REMARK VINA RESULT:      -8.9      3.879      7.828
REMARK  4 active torsions:
REMARK  status: ('A' for Active; 'I' for Inactive)
REMARK    1  A    between atoms: C_7  and  C_8 
REMARK    2  A    between atoms: C_11  and  O_12 
REMARK    3  A    between atoms: C_17  and  C_18 
REMARK    4  A    between atoms: C_25  and  C_26 
REMARK       I    between atoms: C_26  and  N_27 
ROOT
HETATM    1  C   UNL     1       7.735  21.183  56.766  1.00  0.00     0.070 C 
HETATM    2  C   UNL     1       7.865  22.600  56.264  1.00  0.00     0.037 C 
HETATM    3  N   UNL     1       7.609  23.598  57.204  1.00  0.00    -0.192 N 
HETATM    4  C   UNL     1       7.887  24.897  56.981  1.00  0.00     0.726 A 
HETATM    5  N   UNL     1       8.250  25.291  55.728  1.00  0.00    -0.083 N 
HETATM    6  N   UNL     1       8.591  26.592  55.692  1.00  0.00    -0.135 NA
HETATM    7  C   UNL     1       8.341  26.963  56.962  1.00  0.00     0.199 A 
HETATM    8  N   UNL     1       7.912  25.930  57.781  1.00  0.00    -0.041 NA
HETATM    9  C   UNL     1       8.273  24.400  54.566  1.00  0.00     0.202 C 
HETATM   10  C   UNL     1       8.205  22.935  54.990  1.00  0.00     0.062 C 
HETATM   11  H   UNL     1       7.457  23.300  58.165  1.00  0.00     0.184 HD
ENDROOT
BRANCH   7  12
HETATM   12  C   UNL     1       8.498  28.330  57.452  1.00  0.00     0.014 A 
HETATM   13  C   UNL     1       7.475  28.960  58.173  1.00  0.00     0.018 A 
HETATM   14  C   UNL     1       7.641  30.264  58.650  1.00  0.00     0.037 A 
HETATM   15  C   UNL     1       8.829  30.959  58.422  1.00  0.00     0.068 A 
HETATM   16  C   UNL     1       9.850  30.344  57.699  1.00  0.00     0.037 A 
HETATM   17  C   UNL     1       9.684  29.039  57.216  1.00  0.00     0.018 A 
BRANCH  15  18
HETATM   18  O   UNL     1       8.864  32.221  58.950  1.00  0.00    -0.356 OA
HETATM   19  C   UNL     1       8.454  32.361  60.304  1.00  0.00     0.210 C 
ENDBRANCH  15  18
ENDBRANCH   7  12
BRANCH   9  20
HETATM   20  C   UNL     1       7.151  24.823  53.610  1.00  0.00    -0.028 A 
HETATM   21  C   UNL     1       7.478  25.306  52.329  1.00  0.00     0.012 A 
HETATM   22  C   UNL     1       6.476  25.711  51.446  1.00  0.00     0.043 A 
HETATM   23  C   UNL     1       5.146  25.641  51.838  1.00  0.00     0.116 A 
HETATM   24  F   UNL     1       4.186  26.029  50.988  1.00  0.00    -0.206 F 
HETATM   25  C   UNL     1       4.797  25.182  53.101  1.00  0.00     0.043 A 
HETATM   26  C   UNL     1       5.795  24.780  53.990  1.00  0.00     0.012 A 
ENDBRANCH   9  20
BRANCH  10  27
HETATM   27  C   UNL     1       8.683  21.902  54.033  1.00  0.00     0.249 C 
HETATM   28  N   UNL     1       7.767  21.350  53.198  1.00  0.00    -0.366 N 
HETATM   29  H   UNL     1       6.765  21.448  53.284  1.00  0.00     0.159 HD
HETATM   30  H   UNL     1       8.104  20.617  52.584  1.00  0.00     0.159 HD
HETATM   31  O   UNL     1       9.858  21.564  53.954  1.00  0.00    -0.268 OA
ENDBRANCH  10  27
TORSDOF 4
ENDMDL
MODEL 3
REMARK VINA RESULT:      -8.5      3.234      7.481
REMARK  4 active torsions:
REMARK  status: ('A' for Active; 'I' for Inactive)
REMARK    1  A    between atoms: C_7  and  C_8 
REMARK    2  A    between atoms: C_11  and  O_12 
REMARK    3  A    between atoms: C_17  and  C_18 
REMARK    4  A    between atoms: C_25  and  C_26 
REMARK       I    between atoms: C_26  and  N_27 
ROOT
HETATM    1  C   UNL     1       5.364  28.766  57.396  1.00  0.00     0.070 C 
HETATM    2  C   UNL     1       5.540  28.340  55.959  1.00  0.00     0.037 C 
HETATM    3  N   UNL     1       4.381  28.350  55.182  1.00  0.00    -0.192 N 
HETATM    4  C   UNL     1       4.402  28.206  53.843  1.00  0.00     0.726 A 
HETATM    5  N   UNL     1       5.566  27.845  53.233  1.00  0.00    -0.083 N 
HETATM    6  N   UNL     1       5.450  27.842  51.893  1.00  0.00    -0.135 NA
HETATM    7  C   UNL     1       4.146  28.145  51.744  1.00  0.00     0.199 A 
HETATM    8  N   UNL     1       3.479  28.382  52.936  1.00  0.00    -0.041 NA
HETATM    9  C   UNL     1       6.796  27.509  53.955  1.00  0.00     0.202 C 
HETATM   10  C   UNL     1       6.726  27.962  55.411  1.00  0.00     0.062 C 
HETATM   11  H   UNL     1       3.542  28.734  55.609  1.00  0.00     0.184 HD
ENDROOT
BRANCH   7  12
HETATM   12  C   UNL     1       3.475  28.218  50.448  1.00  0.00     0.014 A 
HETATM   13  C   UNL     1       3.993  27.553  49.329  1.00  0.00     0.018 A 
HETATM   14  C   UNL     1       3.335  27.618  48.097  1.00  0.00     0.037 A 
HETATM   15  C   UNL     1       2.149  28.341  47.961  1.00  0.00     0.068 A 
HETATM   16  C   UNL     1       1.630  29.013  49.066  1.00  0.00     0.037 A 
HETATM   17  C   UNL     1       2.290  28.952  50.301  1.00  0.00     0.018 A 
BRANCH  15  18
HETATM   18  O   UNL     1       1.605  28.315  46.706  1.00  0.00    -0.356 OA
HETATM   19  C   UNL     1       0.494  27.450  46.506  1.00  0.00     0.210 C 
ENDBRANCH  15  18
ENDBRANCH   7  12
BRANCH   9  20
HETATM   20  C   UNL     1       7.062  26.009  53.782  1.00  0.00    -0.028 A 
HETATM   21  C   UNL     1       7.743  25.553  52.637  1.00  0.00     0.012 A 
HETATM   22  C   UNL     1       7.986  24.191  52.450  1.00  0.00     0.043 A 
HETATM   23  C   UNL     1       7.547  23.279  53.400  1.00  0.00     0.116 A 
HETATM   24  F   UNL     1       7.783  21.973  53.220  1.00  0.00    -0.206 F 
HETATM   25  C   UNL     1       6.861  23.701  54.531  1.00  0.00     0.043 A 
HETATM   26  C   UNL     1       6.612  25.060  54.721  1.00  0.00     0.012 A 
ENDBRANCH   9  20
BRANCH  10  27
HETATM   27  C   UNL     1       8.001  28.143  56.154  1.00  0.00     0.249 C 
HETATM   28  N   UNL     1       8.706  29.278  55.920  1.00  0.00    -0.366 N 
HETATM   29  H   UNL     1       8.535  29.925  55.164  1.00  0.00     0.159 HD
HETATM   30  H   UNL     1       9.593  29.362  56.403  1.00  0.00     0.159 HD
HETATM   31  O   UNL     1       8.410  27.332  56.977  1.00  0.00    -0.268 OA
ENDBRANCH  10  27
TORSDOF 4
ENDMDL
MODEL 4
REMARK VINA RESULT:      -8.5      3.851      5.633
REMARK  4 active torsions:
REMARK  status: ('A' for Active; 'I' for Inactive)
REMARK    1  A    between atoms: C_7  and  C_8 
REMARK    2  A    between atoms: C_11  and  O_12 
REMARK    3  A    between atoms: C_17  and  C_18 
REMARK    4  A    between atoms: C_25  and  C_26 
REMARK       I    between atoms: C_26  and  N_27 
ROOT
HETATM    1  C   UNL     1       9.971  31.571  58.527  1.00  0.00     0.070 C 
HETATM    2  C   UNL     1       8.967  30.495  58.194  1.00  0.00     0.037 C 
HETATM    3  N   UNL     1       9.445  29.448  57.405  1.00  0.00    -0.192 N 
HETATM    4  C   UNL     1       8.748  28.315  57.200  1.00  0.00     0.726 A 
HETATM    5  N   UNL     1       7.449  28.252  57.609  1.00  0.00    -0.083 N 
HETATM    6  N   UNL     1       6.924  27.027  57.425  1.00  0.00    -0.135 NA
HETATM    7  C   UNL     1       7.947  26.393  56.821  1.00  0.00     0.199 A 
HETATM    8  N   UNL     1       9.089  27.167  56.678  1.00  0.00    -0.041 NA
HETATM    9  C   UNL     1       6.719  29.384  58.187  1.00  0.00     0.202 C 
HETATM   10  C   UNL     1       7.671  30.499  58.609  1.00  0.00     0.062 C 
HETATM   11  H   UNL     1      10.442  29.439  57.205  1.00  0.00     0.184 HD
ENDROOT
BRANCH   7  12
HETATM   12  C   UNL     1       7.879  25.013  56.348  1.00  0.00     0.014 A 
HETATM   13  C   UNL     1       8.421  23.963  57.103  1.00  0.00     0.018 A 
HETATM   14  C   UNL     1       8.337  22.645  56.648  1.00  0.00     0.037 A 
HETATM   15  C   UNL     1       7.708  22.347  55.438  1.00  0.00     0.068 A 
HETATM   16  C   UNL     1       7.173  23.385  54.676  1.00  0.00     0.037 A 
HETATM   17  C   UNL     1       7.259  24.708  55.128  1.00  0.00     0.018 A 
BRANCH  15  18
HETATM   18  O   UNL     1       7.688  21.018  55.116  1.00  0.00    -0.356 OA
HETATM   19  C   UNL     1       7.889  20.687  53.747  1.00  0.00     0.210 C 
ENDBRANCH  15  18
ENDBRANCH   7  12
BRANCH   9  20
HETATM   20  C   UNL     1       5.646  29.827  57.186  1.00  0.00    -0.028 A 
HETATM   21  C   UNL     1       4.356  30.146  57.651  1.00  0.00     0.012 A 
HETATM   22  C   UNL     1       3.357  30.540  56.758  1.00  0.00     0.043 A 
HETATM   23  C   UNL     1       3.639  30.612  55.400  1.00  0.00     0.116 A 
HETATM   24  F   UNL     1       2.679  30.991  54.547  1.00  0.00    -0.206 F 
HETATM   25  C   UNL     1       4.899  30.289  54.915  1.00  0.00     0.043 A 
HETATM   26  C   UNL     1       5.900  29.891  55.802  1.00  0.00     0.012 A 
ENDBRANCH   9  20
BRANCH  10  27
HETATM   27  C   UNL     1       7.197  31.486  59.615  1.00  0.00     0.249 C 
HETATM   28  N   UNL     1       7.298  31.143  60.924  1.00  0.00    -0.366 N 
HETATM   29  H   UNL     1       7.502  30.216  61.270  1.00  0.00     0.159 HD
HETATM   30  H   UNL     1       6.929  31.810  61.592  1.00  0.00     0.159 HD
HETATM   31  O   UNL     1       6.758  32.588  59.308  1.00  0.00    -0.268 OA
ENDBRANCH  10  27
TORSDOF 4
ENDMDL
MODEL 5
REMARK VINA RESULT:      -8.4      2.695      4.291
REMARK  4 active torsions:
REMARK  status: ('A' for Active; 'I' for Inactive)
REMARK    1  A    between atoms: C_7  and  C_8 
REMARK    2  A    between atoms: C_11  and  O_12 
REMARK    3  A    between atoms: C_17  and  C_18 
REMARK    4  A    between atoms: C_25  and  C_26 
REMARK       I    between atoms: C_26  and  N_27 
ROOT
HETATM    1  C   UNL     1       6.276  30.815  57.143  1.00  0.00     0.070 C 
HETATM    2  C   UNL     1       5.939  29.636  56.264  1.00  0.00     0.037 C 
HETATM    3  N   UNL     1       6.953  28.691  56.108  1.00  0.00    -0.192 N 
HETATM    4  C   UNL     1       6.745  27.488  55.540  1.00  0.00     0.726 A 
HETATM    5  N   UNL     1       5.558  27.246  54.915  1.00  0.00    -0.083 N 
HETATM    6  N   UNL     1       5.467  25.973  54.489  1.00  0.00    -0.135 NA
HETATM    7  C   UNL     1       6.682  25.498  54.824  1.00  0.00     0.199 A 
HETATM    8  N   UNL     1       7.488  26.414  55.482  1.00  0.00    -0.041 NA
HETATM    9  C   UNL     1       4.508  28.251  54.740  1.00  0.00     0.202 C 
HETATM   10  C   UNL     1       4.741  29.460  55.642  1.00  0.00     0.062 C 
HETATM   11  H   UNL     1       7.791  28.815  56.671  1.00  0.00     0.184 HD
ENDROOT
BRANCH   7  12
HETATM   12  C   UNL     1       7.131  24.140  54.525  1.00  0.00     0.014 A 
HETATM   13  C   UNL     1       7.322  23.202  55.548  1.00  0.00     0.018 A 
HETATM   14  C   UNL     1       7.739  21.901  55.251  1.00  0.00     0.037 A 
HETATM   15  C   UNL     1       7.966  21.511  53.930  1.00  0.00     0.068 A 
HETATM   16  C   UNL     1       7.786  22.440  52.905  1.00  0.00     0.037 A 
HETATM   17  C   UNL     1       7.372  23.745  53.202  1.00  0.00     0.018 A 
BRANCH  15  18
HETATM   18  O   UNL     1       8.360  20.210  53.777  1.00  0.00    -0.356 OA
HETATM   19  C   UNL     1       9.012  19.604  54.886  1.00  0.00     0.210 C 
ENDBRANCH  15  18
ENDBRANCH   7  12
BRANCH   9  20
HETATM   20  C   UNL     1       4.414  28.597  53.249  1.00  0.00    -0.028 A 
HETATM   21  C   UNL     1       3.150  28.682  52.636  1.00  0.00     0.012 A 
HETATM   22  C   UNL     1       3.039  28.982  51.277  1.00  0.00     0.043 A 
HETATM   23  C   UNL     1       4.187  29.192  50.524  1.00  0.00     0.116 A 
HETATM   24  F   UNL     1       4.077  29.482  49.221  1.00  0.00    -0.206 F 
HETATM   25  C   UNL     1       5.446  29.100  51.102  1.00  0.00     0.043 A 
HETATM   26  C   UNL     1       5.563  28.797  52.459  1.00  0.00     0.012 A 
ENDBRANCH   9  20
BRANCH  10  27
HETATM   27  C   UNL     1       3.583  30.337  55.959  1.00  0.00     0.249 C 
HETATM   28  N   UNL     1       2.884  30.067  57.089  1.00  0.00    -0.366 N 
HETATM   29  H   UNL     1       2.969  29.225  57.641  1.00  0.00     0.159 HD
HETATM   30  H   UNL     1       2.072  30.648  57.264  1.00  0.00     0.159 HD
HETATM   31  O   UNL     1       3.266  31.295  55.262  1.00  0.00    -0.268 OA
ENDBRANCH  10  27
TORSDOF 4
ENDMDL
MODEL 6
REMARK VINA RESULT:      -8.3      3.196      4.921
REMARK  4 active torsions:
REMARK  status: ('A' for Active; 'I' for Inactive)
REMARK    1  A    between atoms: C_7  and  C_8 
REMARK    2  A    between atoms: C_11  and  O_12 
REMARK    3  A    between atoms: C_17  and  C_18 
REMARK    4  A    between atoms: C_25  and  C_26 
REMARK       I    between atoms: C_26  and  N_27 
ROOT
HETATM    1  C   UNL     1       6.530  31.449  58.433  1.00  0.00     0.070 C 
HETATM    2  C   UNL     1       6.153  30.288  57.545  1.00  0.00     0.037 C 
HETATM    3  N   UNL     1       7.212  29.483  57.126  1.00  0.00    -0.192 N 
HETATM    4  C   UNL     1       7.027  28.297  56.515  1.00  0.00     0.726 A 
HETATM    5  N   UNL     1       5.773  27.948  56.112  1.00  0.00    -0.083 N 
HETATM    6  N   UNL     1       5.737  26.699  55.613  1.00  0.00    -0.135 NA
HETATM    7  C   UNL     1       7.038  26.357  55.672  1.00  0.00     0.199 A 
HETATM    8  N   UNL     1       7.855  27.326  56.234  1.00  0.00    -0.041 NA
HETATM    9  C   UNL     1       4.607  28.828  56.218  1.00  0.00     0.202 C 
HETATM   10  C   UNL     1       4.883  30.004  57.151  1.00  0.00     0.062 C 
HETATM   11  H   UNL     1       8.127  29.677  57.527  1.00  0.00     0.184 HD
ENDROOT
BRANCH   7  12
HETATM   12  C   UNL     1       7.563  25.082  55.188  1.00  0.00     0.014 A 
HETATM   13  C   UNL     1       7.306  24.645  53.881  1.00  0.00     0.018 A 
HETATM   14  C   UNL     1       7.824  23.431  53.424  1.00  0.00     0.037 A 
HETATM   15  C   UNL     1       8.611  22.634  54.256  1.00  0.00     0.068 A 
HETATM   16  C   UNL     1       8.866  23.056  55.560  1.00  0.00     0.037 A 
HETATM   17  C   UNL     1       8.344  24.271  56.022  1.00  0.00     0.018 A 
BRANCH  15  18
HETATM   18  O   UNL     1       9.062  21.477  53.681  1.00  0.00    -0.356 OA
HETATM   19  C   UNL     1       8.113  20.713  52.949  1.00  0.00     0.210 C 
ENDBRANCH  15  18
ENDBRANCH   7  12
BRANCH   9  20
HETATM   20  C   UNL     1       4.183  29.241  54.804  1.00  0.00    -0.028 A 
HETATM   21  C   UNL     1       3.670  28.271  53.923  1.00  0.00     0.012 A 
HETATM   22  C   UNL     1       3.289  28.620  52.626  1.00  0.00     0.043 A 
HETATM   23  C   UNL     1       3.425  29.935  52.201  1.00  0.00     0.116 A 
HETATM   24  F   UNL     1       3.058  30.267  50.957  1.00  0.00    -0.206 F 
HETATM   25  C   UNL     1       3.942  30.908  53.046  1.00  0.00     0.043 A 
HETATM   26  C   UNL     1       4.327  30.564  54.342  1.00  0.00     0.012 A 
ENDBRANCH   9  20
BRANCH  10  27
HETATM   27  C   UNL     1       3.722  30.716  57.749  1.00  0.00     0.249 C 
HETATM   28  N   UNL     1       3.252  30.258  58.937  1.00  0.00    -0.366 N 
HETATM   29  H   UNL     1       3.503  29.378  59.364  1.00  0.00     0.159 HD
HETATM   30  H   UNL     1       2.434  30.729  59.306  1.00  0.00     0.159 HD
HETATM   31  O   UNL     1       3.209  31.700  57.231  1.00  0.00    -0.268 OA
ENDBRANCH  10  27
TORSDOF 4
ENDMDL
MODEL 7
REMARK VINA RESULT:      -7.9      2.355      7.119
REMARK  4 active torsions:
REMARK  status: ('A' for Active; 'I' for Inactive)
REMARK    1  A    between atoms: C_7  and  C_8 
REMARK    2  A    between atoms: C_11  and  O_12 
REMARK    3  A    between atoms: C_17  and  C_18 
REMARK    4  A    between atoms: C_25  and  C_26 
REMARK       I    between atoms: C_26  and  N_27 
ROOT
HETATM    1  C   UNL     1       9.605  22.174  53.969  1.00  0.00     0.070 C 
HETATM    2  C   UNL     1       8.477  23.177  53.968  1.00  0.00     0.037 C 
HETATM    3  N   UNL     1       8.352  23.942  52.808  1.00  0.00    -0.192 N 
HETATM    4  C   UNL     1       7.281  24.720  52.561  1.00  0.00     0.726 A 
HETATM    5  N   UNL     1       6.371  24.929  53.554  1.00  0.00    -0.083 N 
HETATM    6  N   UNL     1       5.313  25.640  53.123  1.00  0.00    -0.135 NA
HETATM    7  C   UNL     1       5.677  25.905  51.853  1.00  0.00     0.199 A 
HETATM    8  N   UNL     1       6.887  25.339  51.480  1.00  0.00    -0.041 NA
HETATM    9  C   UNL     1       6.525  24.428  54.922  1.00  0.00     0.202 C 
HETATM   10  C   UNL     1       7.613  23.361  55.002  1.00  0.00     0.062 C 
HETATM   11  H   UNL     1       8.956  23.699  52.027  1.00  0.00     0.184 HD
ENDROOT
BRANCH   7  12
HETATM   12  C   UNL     1       4.882  26.717  50.936  1.00  0.00     0.014 A 
HETATM   13  C   UNL     1       4.592  26.267  49.640  1.00  0.00     0.018 A 
HETATM   14  C   UNL     1       3.819  27.046  48.775  1.00  0.00     0.037 A 
HETATM   15  C   UNL     1       3.317  28.282  49.185  1.00  0.00     0.068 A 
HETATM   16  C   UNL     1       3.606  28.742  50.469  1.00  0.00     0.037 A 
HETATM   17  C   UNL     1       4.385  27.964  51.337  1.00  0.00     0.018 A 
BRANCH  15  18
HETATM   18  O   UNL     1       2.569  28.936  48.245  1.00  0.00    -0.356 OA
HETATM   19  C   UNL     1       2.015  28.145  47.202  1.00  0.00     0.210 C 
ENDBRANCH  15  18
ENDBRANCH   7  12
BRANCH   9  20
HETATM   20  C   UNL     1       6.760  25.626  55.850  1.00  0.00    -0.028 A 
HETATM   21  C   UNL     1       5.655  26.296  56.408  1.00  0.00     0.012 A 
HETATM   22  C   UNL     1       5.842  27.398  57.246  1.00  0.00     0.043 A 
HETATM   23  C   UNL     1       7.129  27.838  57.525  1.00  0.00     0.116 A 
HETATM   24  F   UNL     1       7.305  28.893  58.330  1.00  0.00    -0.206 F 
HETATM   25  C   UNL     1       8.235  27.203  56.976  1.00  0.00     0.043 A 
HETATM   26  C   UNL     1       8.054  26.104  56.135  1.00  0.00     0.012 A 
ENDBRANCH   9  20
BRANCH  10  27
HETATM   27  C   UNL     1       7.594  22.421  56.155  1.00  0.00     0.249 C 
HETATM   28  N   UNL     1       8.105  22.864  57.331  1.00  0.00    -0.366 N 
HETATM   29  H   UNL     1       8.652  23.704  57.450  1.00  0.00     0.159 HD
HETATM   30  H   UNL     1       8.123  22.194  58.092  1.00  0.00     0.159 HD
HETATM   31  O   UNL     1       7.112  21.296  56.086  1.00  0.00    -0.268 OA
ENDBRANCH  10  27
TORSDOF 4
ENDMDL
MODEL 8
REMARK VINA RESULT:      -7.7      2.520      3.081
REMARK  4 active torsions:
REMARK  status: ('A' for Active; 'I' for Inactive)
REMARK    1  A    between atoms: C_7  and  C_8 
REMARK    2  A    between atoms: C_11  and  O_12 
REMARK    3  A    between atoms: C_17  and  C_18 
REMARK    4  A    between atoms: C_25  and  C_26 
REMARK       I    between atoms: C_26  and  N_27 
ROOT
HETATM    1  C   UNL     1       2.927  26.278  47.463  1.00  0.00     0.070 C 
HETATM    2  C   UNL     1       3.790  26.575  48.665  1.00  0.00     0.037 C 
HETATM    3  N   UNL     1       3.816  25.585  49.647  1.00  0.00    -0.192 N 
HETATM    4  C   UNL     1       4.693  25.596  50.669  1.00  0.00     0.726 A 
HETATM    5  N   UNL     1       5.459  26.706  50.873  1.00  0.00    -0.083 N 
HETATM    6  N   UNL     1       6.350  26.524  51.864  1.00  0.00    -0.135 NA
HETATM    7  C   UNL     1       6.026  25.286  52.283  1.00  0.00     0.199 A 
HETATM    8  N   UNL     1       5.008  24.688  51.554  1.00  0.00    -0.041 NA
HETATM    9  C   UNL     1       5.328  27.942  50.098  1.00  0.00     0.202 C 
HETATM   10  C   UNL     1       4.514  27.715  48.827  1.00  0.00     0.062 C 
HETATM   11  H   UNL     1       3.341  24.711  49.435  1.00  0.00     0.184 HD
ENDROOT
BRANCH   7  12
HETATM   12  C   UNL     1       6.674  24.615  53.408  1.00  0.00     0.014 A 
HETATM   13  C   UNL     1       6.525  25.095  54.716  1.00  0.00     0.018 A 
HETATM   14  C   UNL     1       7.138  24.438  55.787  1.00  0.00     0.037 A 
HETATM   15  C   UNL     1       7.904  23.291  55.574  1.00  0.00     0.068 A 
HETATM   16  C   UNL     1       8.065  22.811  54.275  1.00  0.00     0.037 A 
HETATM   17  C   UNL     1       7.454  23.470  53.200  1.00  0.00     0.018 A 
BRANCH  15  18
HETATM   18  O   UNL     1       8.439  22.742  56.707  1.00  0.00    -0.356 OA
HETATM   19  C   UNL     1       8.403  21.325  56.812  1.00  0.00     0.210 C 
ENDBRANCH  15  18
ENDBRANCH   7  12
BRANCH   9  20
HETATM   20  C   UNL     1       4.758  29.029  51.016  1.00  0.00    -0.028 A 
HETATM   21  C   UNL     1       3.754  28.696  51.945  1.00  0.00     0.012 A 
HETATM   22  C   UNL     1       3.210  29.670  52.783  1.00  0.00     0.043 A 
HETATM   23  C   UNL     1       3.660  30.981  52.695  1.00  0.00     0.116 A 
HETATM   24  F   UNL     1       3.138  31.914  53.501  1.00  0.00    -0.206 F 
HETATM   25  C   UNL     1       4.640  31.339  51.778  1.00  0.00     0.043 A 
HETATM   26  C   UNL     1       5.184  30.369  50.935  1.00  0.00     0.012 A 
ENDBRANCH   9  20
BRANCH  10  27
HETATM   27  C   UNL     1       4.668  28.685  47.710  1.00  0.00     0.249 C 
HETATM   28  N   UNL     1       3.785  29.713  47.647  1.00  0.00    -0.366 N 
HETATM   29  H   UNL     1       2.932  29.783  48.183  1.00  0.00     0.159 HD
HETATM   30  H   UNL     1       3.880  30.337  46.854  1.00  0.00     0.159 HD
HETATM   31  O   UNL     1       5.567  28.604  46.881  1.00  0.00    -0.268 OA
ENDBRANCH  10  27
TORSDOF 4
ENDMDL
MODEL 9
REMARK VINA RESULT:      -7.7      3.733      7.309
REMARK  4 active torsions:
REMARK  status: ('A' for Active; 'I' for Inactive)
REMARK    1  A    between atoms: C_7  and  C_8 
REMARK    2  A    between atoms: C_11  and  O_12 
REMARK    3  A    between atoms: C_17  and  C_18 
REMARK    4  A    between atoms: C_25  and  C_26 
REMARK       I    between atoms: C_26  and  N_27 
ROOT
HETATM    1  C   UNL     1       7.362  22.752  55.381  1.00  0.00     0.070 C 
HETATM    2  C   UNL     1       7.408  24.257  55.271  1.00  0.00     0.037 C 
HETATM    3  N   UNL     1       7.424  24.949  56.482  1.00  0.00    -0.192 N 
HETATM    4  C   UNL     1       7.679  26.269  56.562  1.00  0.00     0.726 A 
HETATM    5  N   UNL     1       7.732  27.004  55.416  1.00  0.00    -0.083 N 
HETATM    6  N   UNL     1       8.093  28.278  55.654  1.00  0.00    -0.135 NA
HETATM    7  C   UNL     1       8.177  28.278  56.998  1.00  0.00     0.199 A 
HETATM    8  N   UNL     1       7.933  27.044  57.582  1.00  0.00    -0.041 NA
HETATM    9  C   UNL     1       7.438  26.466  54.085  1.00  0.00     0.202 C 
HETATM   10  C   UNL     1       7.432  24.940  54.095  1.00  0.00     0.062 C 
HETATM   11  H   UNL     1       7.506  24.394  57.330  1.00  0.00     0.184 HD
ENDROOT
BRANCH   7  12
HETATM   12  C   UNL     1       8.494  29.465  57.790  1.00  0.00     0.014 A 
HETATM   13  C   UNL     1       7.532  30.055  58.622  1.00  0.00     0.018 A 
HETATM   14  C   UNL     1       7.849  31.181  59.386  1.00  0.00     0.037 A 
HETATM   15  C   UNL     1       9.129  31.736  59.339  1.00  0.00     0.068 A 
HETATM   16  C   UNL     1      10.090  31.161  58.509  1.00  0.00     0.037 A 
HETATM   17  C   UNL     1       9.773  30.034  57.739  1.00  0.00     0.018 A 
BRANCH  15  18
HETATM   18  O   UNL     1       9.308  32.829  60.141  1.00  0.00    -0.356 OA
HETATM   19  C   UNL     1       8.682  32.797  61.418  1.00  0.00     0.210 C 
ENDBRANCH  15  18
ENDBRANCH   7  12
BRANCH   9  20
HETATM   20  C   UNL     1       6.129  27.090  53.590  1.00  0.00    -0.028 A 
HETATM   21  C   UNL     1       5.110  27.388  54.515  1.00  0.00     0.012 A 
HETATM   22  C   UNL     1       3.903  27.944  54.087  1.00  0.00     0.043 A 
HETATM   23  C   UNL     1       3.706  28.201  52.737  1.00  0.00     0.116 A 
HETATM   24  F   UNL     1       2.548  28.737  52.330  1.00  0.00    -0.206 F 
HETATM   25  C   UNL     1       4.689  27.904  51.803  1.00  0.00     0.043 A 
HETATM   26  C   UNL     1       5.896  27.344  52.224  1.00  0.00     0.012 A 
ENDBRANCH   9  20
BRANCH  10  27
HETATM   27  C   UNL     1       7.626  24.227  52.804  1.00  0.00     0.249 C 
HETATM   28  N   UNL     1       8.258  24.898  51.808  1.00  0.00    -0.366 N 
HETATM   29  H   UNL     1       8.451  25.889  51.803  1.00  0.00     0.159 HD
HETATM   30  H   UNL     1       8.341  24.410  50.923  1.00  0.00     0.159 HD
HETATM   31  O   UNL     1       7.270  23.068  52.626  1.00  0.00    -0.268 OA
ENDBRANCH  10  27
TORSDOF 4
ENDMDL
MODEL 10
REMARK VINA RESULT:      -7.7      3.404      5.228
REMARK  4 active torsions:
REMARK  status: ('A' for Active; 'I' for Inactive)
REMARK    1  A    between atoms: C_7  and  C_8 
REMARK    2  A    between atoms: C_11  and  O_12 
REMARK    3  A    between atoms: C_17  and  C_18 
REMARK    4  A    between atoms: C_25  and  C_26 
REMARK       I    between atoms: C_26  and  N_27 
ROOT
HETATM    1  C   UNL     1       4.904  32.328  50.339  1.00  0.00     0.070 C 
HETATM    2  C   UNL     1       4.660  30.870  50.646  1.00  0.00     0.037 C 
HETATM    3  N   UNL     1       5.761  30.165  51.133  1.00  0.00    -0.192 N 
HETATM    4  C   UNL     1       5.660  28.927  51.652  1.00  0.00     0.726 A 
HETATM    5  N   UNL     1       4.484  28.250  51.528  1.00  0.00    -0.083 N 
HETATM    6  N   UNL     1       4.510  27.075  52.183  1.00  0.00    -0.135 NA
HETATM    7  C   UNL     1       5.779  27.057  52.635  1.00  0.00     0.199 A 
HETATM    8  N   UNL     1       6.508  28.196  52.326  1.00  0.00    -0.041 NA
HETATM    9  C   UNL     1       3.329  28.749  50.777  1.00  0.00     0.202 C 
HETATM   10  C   UNL     1       3.467  30.239  50.475  1.00  0.00     0.062 C 
HETATM   11  H   UNL     1       6.600  30.702  51.336  1.00  0.00     0.184 HD
ENDROOT
BRANCH   7  12
HETATM   12  C   UNL     1       6.356  25.944  53.384  1.00  0.00     0.014 A 
HETATM   13  C   UNL     1       5.938  25.660  54.692  1.00  0.00     0.018 A 
HETATM   14  C   UNL     1       6.486  24.584  55.395  1.00  0.00     0.037 A 
HETATM   15  C   UNL     1       7.455  23.769  54.807  1.00  0.00     0.068 A 
HETATM   16  C   UNL     1       7.883  24.048  53.510  1.00  0.00     0.037 A 
HETATM   17  C   UNL     1       7.337  25.128  52.805  1.00  0.00     0.018 A 
BRANCH  15  18
HETATM   18  O   UNL     1       7.900  22.747  55.600  1.00  0.00    -0.356 OA
HETATM   19  C   UNL     1       8.347  23.095  56.904  1.00  0.00     0.210 C 
ENDBRANCH  15  18
ENDBRANCH   7  12
BRANCH   9  20
HETATM   20  C   UNL     1       3.150  27.876  49.530  1.00  0.00    -0.028 A 
HETATM   21  C   UNL     1       1.874  27.753  48.949  1.00  0.00     0.012 A 
HETATM   22  C   UNL     1       1.682  26.953  47.821  1.00  0.00     0.043 A 
HETATM   23  C   UNL     1       2.759  26.269  47.272  1.00  0.00     0.116 A 
HETATM   24  F   UNL     1       2.572  25.504  46.189  1.00  0.00    -0.206 F 
HETATM   25  C   UNL     1       4.025  26.363  47.835  1.00  0.00     0.043 A 
HETATM   26  C   UNL     1       4.222  27.158  48.965  1.00  0.00     0.012 A 
ENDBRANCH   9  20
BRANCH  10  27
HETATM   27  C   UNL     1       2.235  31.011  50.161  1.00  0.00     0.249 C 
HETATM   28  N   UNL     1       1.507  31.480  51.205  1.00  0.00    -0.366 N 
HETATM   29  H   UNL     1       1.628  31.208  52.170  1.00  0.00     0.159 HD
HETATM   30  H   UNL     1       0.649  31.965  50.970  1.00  0.00     0.159 HD
HETATM   31  O   UNL     1       1.882  31.257  49.013  1.00  0.00    -0.268 OA
ENDBRANCH  10  27
TORSDOF 4
ENDMDL
