MODEL 1
REMARK VINA RESULT:      -9.3      0.000      0.000
REMARK  4 active torsions:
REMARK  status: ('A' for Active; 'I' for Inactive)
REMARK    1  A    between atoms: C_9  and  C_10 
REMARK       I    between atoms: C_10  and  N_11 
REMARK    2  A    between atoms: N_11  and  N_12 
REMARK       I    between atoms: N_12  and  C_13 
REMARK    3  A    between atoms: C_13  and  C_14 
REMARK    4  A    between atoms: C_14  and  C_15 
ROOT
HETATM    1  C   UNL     1       8.006  27.909  57.084  1.00  0.00     0.291 C 
HETATM    2  N   UNL     1       7.244  28.142  55.954  1.00  0.00    -0.262 N 
HETATM    3  O   UNL     1       7.898  26.883  57.757  1.00  0.00    -0.264 OA
HETATM    4  H   UNL     1       7.501  28.921  55.344  1.00  0.00     0.190 HD
ENDROOT
BRANCH   2   5
HETATM    5  N   UNL     1       6.484  27.099  55.413  1.00  0.00    -0.267 N 
HETATM    6  C   UNL     1       6.921  26.524  54.236  1.00  0.00     0.240 C 
HETATM    7  O   UNL     1       7.848  26.982  53.571  1.00  0.00    -0.272 OA
HETATM    8  H   UNL     1       5.828  26.641  56.042  1.00  0.00     0.190 HD
BRANCH   6   9
HETATM    9  C   UNL     1       6.149  25.286  53.822  1.00  0.00     0.143 C 
BRANCH   9  10
HETATM   10  C   UNL     1       6.892  23.991  54.057  1.00  0.00    -0.049 A 
HETATM   11  C   UNL     1       7.079  23.487  55.354  1.00  0.00     0.009 A 
HETATM   12  C   UNL     1       7.732  22.268  55.555  1.00  0.00     0.024 A 
HETATM   13  C   UNL     1       8.186  21.536  54.462  1.00  0.00     0.034 A 
HETATM   14 CL   UNL     1       8.981  20.031  54.709  1.00  0.00    -0.084 Cl
HETATM   15  C   UNL     1       7.991  22.012  53.168  1.00  0.00     0.024 A 
HETATM   16  C   UNL     1       7.343  23.233  52.966  1.00  0.00     0.009 A 
ENDBRANCH   9  10
ENDBRANCH   6   9
ENDBRANCH   2   5
BRANCH   1  17
HETATM   17  C   UNL     1       8.953  28.992  57.380  1.00  0.00     0.158 A 
HETATM   18  C   UNL     1       8.825  30.014  58.367  1.00  0.00     0.029 A 
HETATM   19  C   UNL     1       7.869  30.377  59.337  1.00  0.00     0.023 A 
HETATM   20  C   UNL     1       9.981  30.777  58.250  1.00  0.00     0.063 A 
HETATM   21  C   UNL     1       8.099  31.500  60.151  1.00  0.00    -0.061 A 
HETATM   22  C   UNL     1       7.102  31.890  61.204  1.00  0.00     0.048 C 
HETATM   23  C   UNL     1       9.283  32.234  60.006  1.00  0.00     0.009 A 
HETATM   24  C   UNL     1      10.246  31.890  59.052  1.00  0.00     0.032 A 
HETATM   25  N   UNL     1      10.700  30.191  57.246  1.00  0.00    -0.277 N 
HETATM   26  H   UNL     1      11.603  30.481  56.888  1.00  0.00     0.189 HD
HETATM   27  N   UNL     1      10.113  29.115  56.696  1.00  0.00    -0.168 NA
ENDBRANCH   1  17
TORSDOF 4
ENDMDL
MODEL 2
REMARK VINA RESULT:      -9.3      6.265      9.724
REMARK  4 active torsions:
REMARK  status: ('A' for Active; 'I' for Inactive)
REMARK    1  A    between atoms: C_9  and  C_10 
REMARK       I    between atoms: C_10  and  N_11 
REMARK    2  A    between atoms: N_11  and  N_12 
REMARK       I    between atoms: N_12  and  C_13 
REMARK    3  A    between atoms: C_13  and  C_14 
REMARK    4  A    between atoms: C_14  and  C_15 
ROOT
HETATM    1  C   UNL     1       4.641  27.188  48.873  1.00  0.00     0.291 C 
HETATM    2  N   UNL     1       4.758  26.270  49.900  1.00  0.00    -0.262 N 
HETATM    3  O   UNL     1       5.427  28.126  48.730  1.00  0.00    -0.264 OA
HETATM    4  H   UNL     1       4.189  25.422  49.864  1.00  0.00     0.190 HD
ENDROOT
BRANCH   2   5
HETATM    5  N   UNL     1       5.922  26.255  50.677  1.00  0.00    -0.267 N 
HETATM    6  C   UNL     1       5.959  25.410  51.768  1.00  0.00     0.240 C 
HETATM    7  O   UNL     1       4.974  24.794  52.173  1.00  0.00    -0.272 OA
HETATM    8  H   UNL     1       6.759  26.641  50.247  1.00  0.00     0.190 HD
BRANCH   6   9
HETATM    9  C   UNL     1       7.316  25.317  52.439  1.00  0.00     0.143 C 
BRANCH   9  10
HETATM   10  C   UNL     1       7.475  24.115  53.342  1.00  0.00    -0.049 A 
HETATM   11  C   UNL     1       7.194  24.195  54.715  1.00  0.00     0.009 A 
HETATM   12  C   UNL     1       7.306  23.067  55.531  1.00  0.00     0.024 A 
HETATM   13  C   UNL     1       7.683  21.846  54.978  1.00  0.00     0.034 A 
HETATM   14 CL   UNL     1       7.812  20.454  55.981  1.00  0.00    -0.084 Cl
HETATM   15  C   UNL     1       7.946  21.744  53.614  1.00  0.00     0.024 A 
HETATM   16  C   UNL     1       7.839  22.874  52.799  1.00  0.00     0.009 A 
ENDBRANCH   9  10
ENDBRANCH   6   9
ENDBRANCH   2   5
BRANCH   1  17
HETATM   17  C   UNL     1       3.508  26.918  47.977  1.00  0.00     0.158 A 
HETATM   18  C   UNL     1       2.395  27.767  47.702  1.00  0.00     0.029 A 
HETATM   19  C   UNL     1       1.962  29.043  48.117  1.00  0.00     0.023 A 
HETATM   20  C   UNL     1       1.618  27.059  46.793  1.00  0.00     0.063 A 
HETATM   21  C   UNL     1       0.757  29.562  47.613  1.00  0.00    -0.061 A 
HETATM   22  C   UNL     1       0.289  30.928  48.028  1.00  0.00     0.048 C 
HETATM   23  C   UNL     1       0.010  28.819  46.690  1.00  0.00     0.009 A 
HETATM   24  C   UNL     1       0.423  27.553  46.263  1.00  0.00     0.032 A 
HETATM   25  N   UNL     1       2.282  25.883  46.587  1.00  0.00    -0.277 N 
HETATM   26  H   UNL     1       2.006  25.120  45.979  1.00  0.00     0.189 HD
HETATM   27  N   UNL     1       3.424  25.760  47.284  1.00  0.00    -0.168 NA
ENDBRANCH   1  17
TORSDOF 4
ENDMDL
MODEL 3
REMARK VINA RESULT:      -9.2      1.946      2.682
REMARK  4 active torsions:
REMARK  status: ('A' for Active; 'I' for Inactive)
REMARK    1  A    between atoms: C_9  and  C_10 
REMARK       I    between atoms: C_10  and  N_11 
REMARK    2  A    between atoms: N_11  and  N_12 
REMARK       I    between atoms: N_12  and  C_13 
REMARK    3  A    between atoms: C_13  and  C_14 
REMARK    4  A    between atoms: C_14  and  C_15 
ROOT
HETATM    1  C   UNL     1       5.635  27.509  56.315  1.00  0.00     0.291 C 
HETATM    2  N   UNL     1       5.764  27.714  54.953  1.00  0.00    -0.262 N 
HETATM    3  O   UNL     1       5.294  26.426  56.792  1.00  0.00    -0.264 OA
HETATM    4  H   UNL     1       6.217  28.572  54.629  1.00  0.00     0.190 HD
ENDROOT
BRANCH   2   5
HETATM    5  N   UNL     1       5.731  26.615  54.088  1.00  0.00    -0.267 N 
HETATM    6  C   UNL     1       6.916  26.220  53.500  1.00  0.00     0.240 C 
HETATM    7  O   UNL     1       7.955  26.874  53.580  1.00  0.00    -0.272 OA
HETATM    8  H   UNL     1       4.918  26.008  54.157  1.00  0.00     0.190 HD
BRANCH   6   9
HETATM    9  C   UNL     1       6.827  24.916  52.731  1.00  0.00     0.143 C 
BRANCH   9  10
HETATM   10  C   UNL     1       7.272  23.705  53.519  1.00  0.00    -0.049 A 
HETATM   11  C   UNL     1       7.167  23.670  54.918  1.00  0.00     0.009 A 
HETATM   12  C   UNL     1       7.545  22.528  55.631  1.00  0.00     0.024 A 
HETATM   13  C   UNL     1       8.014  21.409  54.949  1.00  0.00     0.034 A 
HETATM   14 CL   UNL     1       8.471  20.001  55.825  1.00  0.00    -0.084 Cl
HETATM   15  C   UNL     1       8.107  21.421  53.560  1.00  0.00     0.024 A 
HETATM   16  C   UNL     1       7.734  22.563  52.847  1.00  0.00     0.009 A 
ENDBRANCH   9  10
ENDBRANCH   6   9
ENDBRANCH   2   5
BRANCH   1  17
HETATM   17  C   UNL     1       5.959  28.698  57.115  1.00  0.00     0.158 A 
HETATM   18  C   UNL     1       7.247  29.264  57.349  1.00  0.00     0.029 A 
HETATM   19  C   UNL     1       8.573  28.966  56.973  1.00  0.00     0.023 A 
HETATM   20  C   UNL     1       7.013  30.374  58.154  1.00  0.00     0.063 A 
HETATM   21  C   UNL     1       9.622  29.784  57.427  1.00  0.00    -0.061 A 
HETATM   22  C   UNL     1      11.039  29.494  57.022  1.00  0.00     0.048 C 
HETATM   23  C   UNL     1       9.340  30.898  58.228  1.00  0.00     0.009 A 
HETATM   24  C   UNL     1       8.032  31.214  58.610  1.00  0.00     0.032 A 
HETATM   25  N   UNL     1       5.660  30.404  58.344  1.00  0.00    -0.277 N 
HETATM   26  H   UNL     1       5.131  31.081  58.882  1.00  0.00     0.189 HD
HETATM   27  N   UNL     1       4.991  29.409  57.736  1.00  0.00    -0.168 NA
ENDBRANCH   1  17
TORSDOF 4
ENDMDL
MODEL 4
REMARK VINA RESULT:      -9.0      6.480      9.142
REMARK  4 active torsions:
REMARK  status: ('A' for Active; 'I' for Inactive)
REMARK    1  A    between atoms: C_9  and  C_10 
REMARK       I    between atoms: C_10  and  N_11 
REMARK    2  A    between atoms: N_11  and  N_12 
REMARK       I    between atoms: N_12  and  C_13 
REMARK    3  A    between atoms: C_13  and  C_14 
REMARK    4  A    between atoms: C_14  and  C_15 
ROOT
HETATM    1  C   UNL     1       5.447  25.154  52.240  1.00  0.00     0.291 C 
HETATM    2  N   UNL     1       6.062  26.234  51.635  1.00  0.00    -0.262 N 
HETATM    3  O   UNL     1       4.504  24.553  51.723  1.00  0.00    -0.264 OA
HETATM    4  H   UNL     1       6.943  26.577  52.025  1.00  0.00     0.190 HD
ENDROOT
BRANCH   2   5
HETATM    5  N   UNL     1       5.771  26.528  50.298  1.00  0.00    -0.267 N 
HETATM    6  C   UNL     1       5.025  27.659  50.033  1.00  0.00     0.240 C 
HETATM    7  O   UNL     1       4.483  28.326  50.913  1.00  0.00    -0.272 OA
HETATM    8  H   UNL     1       6.346  26.067  49.596  1.00  0.00     0.190 HD
BRANCH   6   9
HETATM    9  C   UNL     1       4.917  28.005  48.560  1.00  0.00     0.143 C 
BRANCH   9  10
HETATM   10  C   UNL     1       3.503  27.982  48.025  1.00  0.00    -0.049 A 
HETATM   11  C   UNL     1       2.981  29.069  47.307  1.00  0.00     0.009 A 
HETATM   12  C   UNL     1       1.686  29.019  46.783  1.00  0.00     0.024 A 
HETATM   13  C   UNL     1       0.912  27.876  46.958  1.00  0.00     0.034 A 
HETATM   14 CL   UNL     1      -0.678  27.811  46.305  1.00  0.00    -0.084 Cl
HETATM   15  C   UNL     1       1.422  26.781  47.650  1.00  0.00     0.024 A 
HETATM   16  C   UNL     1       2.714  26.832  48.179  1.00  0.00     0.009 A 
ENDBRANCH   9  10
ENDBRANCH   6   9
ENDBRANCH   2   5
BRANCH   1  17
HETATM   17  C   UNL     1       6.040  24.799  53.536  1.00  0.00     0.158 A 
HETATM   18  C   UNL     1       6.859  23.670  53.838  1.00  0.00     0.029 A 
HETATM   19  C   UNL     1       7.371  22.566  53.126  1.00  0.00     0.023 A 
HETATM   20  C   UNL     1       7.166  23.796  55.188  1.00  0.00     0.063 A 
HETATM   21  C   UNL     1       8.164  21.618  53.796  1.00  0.00    -0.061 A 
HETATM   22  C   UNL     1       8.735  20.445  53.051  1.00  0.00     0.048 C 
HETATM   23  C   UNL     1       8.457  21.790  55.155  1.00  0.00     0.009 A 
HETATM   24  C   UNL     1       7.962  22.880  55.879  1.00  0.00     0.032 A 
HETATM   25  N   UNL     1       6.541  24.942  55.595  1.00  0.00    -0.277 N 
HETATM   26  H   UNL     1       6.548  25.347  56.524  1.00  0.00     0.189 HD
HETATM   27  N   UNL     1       5.851  25.572  54.629  1.00  0.00    -0.168 NA
ENDBRANCH   1  17
TORSDOF 4
ENDMDL
MODEL 5
REMARK VINA RESULT:      -9.0      4.321      9.535
REMARK  4 active torsions:
REMARK  status: ('A' for Active; 'I' for Inactive)
REMARK    1  A    between atoms: C_9  and  C_10 
REMARK       I    between atoms: C_10  and  N_11 
REMARK    2  A    between atoms: N_11  and  N_12 
REMARK       I    between atoms: N_12  and  C_13 
REMARK    3  A    between atoms: C_13  and  C_14 
REMARK    4  A    between atoms: C_14  and  C_15 
ROOT
HETATM    1  C   UNL     1       8.075  28.916  57.867  1.00  0.00     0.291 C 
HETATM    2  N   UNL     1       7.399  29.693  58.790  1.00  0.00    -0.262 N 
HETATM    3  O   UNL     1       9.303  28.827  57.850  1.00  0.00    -0.264 OA
HETATM    4  H   UNL     1       6.384  29.589  58.866  1.00  0.00     0.190 HD
ENDROOT
BRANCH   2   5
HETATM    5  N   UNL     1       8.094  30.221  59.883  1.00  0.00    -0.267 N 
HETATM    6  C   UNL     1       8.185  31.595  59.990  1.00  0.00     0.240 C 
HETATM    7  O   UNL     1       7.820  32.361  59.099  1.00  0.00    -0.272 OA
HETATM    8  H   UNL     1       8.247  29.594  60.669  1.00  0.00     0.190 HD
BRANCH   6   9
HETATM    9  C   UNL     1       8.788  32.081  61.293  1.00  0.00     0.143 C 
BRANCH   9  10
HETATM   10  C   UNL     1       7.766  32.431  62.351  1.00  0.00    -0.049 A 
HETATM   11  C   UNL     1       8.153  33.003  63.573  1.00  0.00     0.009 A 
HETATM   12  C   UNL     1       7.195  33.358  64.526  1.00  0.00     0.024 A 
HETATM   13  C   UNL     1       5.843  33.161  64.258  1.00  0.00     0.034 A 
HETATM   14 CL   UNL     1       4.664  33.607  65.428  1.00  0.00    -0.084 Cl
HETATM   15  C   UNL     1       5.441  32.613  63.043  1.00  0.00     0.024 A 
HETATM   16  C   UNL     1       6.399  32.252  62.091  1.00  0.00     0.009 A 
ENDBRANCH   9  10
ENDBRANCH   6   9
ENDBRANCH   2   5
BRANCH   1  17
HETATM   17  C   UNL     1       7.184  28.210  56.937  1.00  0.00     0.158 A 
HETATM   18  C   UNL     1       7.207  26.826  56.592  1.00  0.00     0.029 A 
HETATM   19  C   UNL     1       7.988  25.704  56.938  1.00  0.00     0.023 A 
HETATM   20  C   UNL     1       6.162  26.661  55.690  1.00  0.00     0.063 A 
HETATM   21  C   UNL     1       7.702  24.456  56.359  1.00  0.00    -0.061 A 
HETATM   22  C   UNL     1       8.510  23.245  56.730  1.00  0.00     0.048 C 
HETATM   23  C   UNL     1       6.633  24.332  55.462  1.00  0.00     0.009 A 
HETATM   24  C   UNL     1       5.844  25.432  55.107  1.00  0.00     0.032 A 
HETATM   25  N   UNL     1       5.601  27.900  55.556  1.00  0.00    -0.277 N 
HETATM   26  H   UNL     1       4.810  28.156  54.976  1.00  0.00     0.189 HD
HETATM   27  N   UNL     1       6.190  28.859  56.290  1.00  0.00    -0.168 NA
ENDBRANCH   1  17
TORSDOF 4
ENDMDL
MODEL 6
REMARK VINA RESULT:      -9.0      5.780      8.065
REMARK  4 active torsions:
REMARK  status: ('A' for Active; 'I' for Inactive)
REMARK    1  A    between atoms: C_9  and  C_10 
REMARK       I    between atoms: C_10  and  N_11 
REMARK    2  A    between atoms: N_11  and  N_12 
REMARK       I    between atoms: N_12  and  C_13 
REMARK    3  A    between atoms: C_13  and  C_14 
REMARK    4  A    between atoms: C_14  and  C_15 
ROOT
HETATM    1  C   UNL     1       5.255  25.579  53.512  1.00  0.00     0.291 C 
HETATM    2  N   UNL     1       4.583  26.711  53.935  1.00  0.00    -0.262 N 
HETATM    3  O   UNL     1       5.022  25.035  52.432  1.00  0.00    -0.264 OA
HETATM    4  H   UNL     1       4.939  27.215  54.750  1.00  0.00     0.190 HD
ENDROOT
BRANCH   2   5
HETATM    5  N   UNL     1       3.770  27.404  53.031  1.00  0.00    -0.267 N 
HETATM    6  C   UNL     1       4.327  28.462  52.341  1.00  0.00     0.240 C 
HETATM    7  O   UNL     1       5.443  28.913  52.594  1.00  0.00    -0.272 OA
HETATM    8  H   UNL     1       2.922  26.930  52.727  1.00  0.00     0.190 HD
BRANCH   6   9
HETATM    9  C   UNL     1       3.440  29.034  51.253  1.00  0.00     0.143 C 
BRANCH   9  10
HETATM   10  C   UNL     1       3.271  28.126  50.056  1.00  0.00    -0.049 A 
HETATM   11  C   UNL     1       4.272  27.213  49.690  1.00  0.00     0.009 A 
HETATM   12  C   UNL     1       4.086  26.351  48.605  1.00  0.00     0.024 A 
HETATM   13  C   UNL     1       2.892  26.384  47.890  1.00  0.00     0.034 A 
HETATM   14 CL   UNL     1       2.660  25.318  46.561  1.00  0.00    -0.084 Cl
HETATM   15  C   UNL     1       1.881  27.271  48.252  1.00  0.00     0.024 A 
HETATM   16  C   UNL     1       2.069  28.136  49.334  1.00  0.00     0.009 A 
ENDBRANCH   9  10
ENDBRANCH   6   9
ENDBRANCH   2   5
BRANCH   1  17
HETATM   17  C   UNL     1       6.271  25.116  54.466  1.00  0.00     0.158 A 
HETATM   18  C   UNL     1       7.063  23.932  54.388  1.00  0.00     0.029 A 
HETATM   19  C   UNL     1       7.187  22.849  53.494  1.00  0.00     0.023 A 
HETATM   20  C   UNL     1       7.868  23.960  55.520  1.00  0.00     0.063 A 
HETATM   21  C   UNL     1       8.107  21.823  53.771  1.00  0.00    -0.061 A 
HETATM   22  C   UNL     1       8.268  20.671  52.821  1.00  0.00     0.048 C 
HETATM   23  C   UNL     1       8.907  21.897  54.919  1.00  0.00     0.009 A 
HETATM   24  C   UNL     1       8.802  22.964  55.818  1.00  0.00     0.032 A 
HETATM   25  N   UNL     1       7.527  25.108  56.179  1.00  0.00    -0.277 N 
HETATM   26  H   UNL     1       7.915  25.455  57.048  1.00  0.00     0.189 HD
HETATM   27  N   UNL     1       6.567  25.830  55.576  1.00  0.00    -0.168 NA
ENDBRANCH   1  17
TORSDOF 4
ENDMDL
MODEL 7
REMARK VINA RESULT:      -8.9      3.462      8.749
REMARK  4 active torsions:
REMARK  status: ('A' for Active; 'I' for Inactive)
REMARK    1  A    between atoms: C_9  and  C_10 
REMARK       I    between atoms: C_10  and  N_11 
REMARK    2  A    between atoms: N_11  and  N_12 
REMARK       I    between atoms: N_12  and  C_13 
REMARK    3  A    between atoms: C_13  and  C_14 
REMARK    4  A    between atoms: C_14  and  C_15 
ROOT
HETATM    1  C   UNL     1       6.458  25.870  55.280  1.00  0.00     0.291 C 
HETATM    2  N   UNL     1       7.212  26.989  55.582  1.00  0.00    -0.262 N 
HETATM    3  O   UNL     1       5.373  25.638  55.816  1.00  0.00    -0.264 OA
HETATM    4  H   UNL     1       8.009  27.218  54.982  1.00  0.00     0.190 HD
ENDROOT
BRANCH   2   5
HETATM    5  N   UNL     1       6.644  28.014  56.346  1.00  0.00    -0.267 N 
HETATM    6  C   UNL     1       7.248  29.255  56.316  1.00  0.00     0.240 C 
HETATM    7  O   UNL     1       8.335  29.458  55.777  1.00  0.00    -0.272 OA
HETATM    8  H   UNL     1       5.682  27.874  56.650  1.00  0.00     0.190 HD
BRANCH   6   9
HETATM    9  C   UNL     1       6.466  30.348  57.017  1.00  0.00     0.143 C 
BRANCH   9  10
HETATM   10  C   UNL     1       7.073  30.798  58.326  1.00  0.00    -0.049 A 
HETATM   11  C   UNL     1       6.544  31.885  59.037  1.00  0.00     0.009 A 
HETATM   12  C   UNL     1       7.090  32.265  60.266  1.00  0.00     0.024 A 
HETATM   13  C   UNL     1       8.158  31.550  60.801  1.00  0.00     0.034 A 
HETATM   14 CL   UNL     1       8.825  32.011  62.318  1.00  0.00    -0.084 Cl
HETATM   15  C   UNL     1       8.683  30.456  60.117  1.00  0.00     0.024 A 
HETATM   16  C   UNL     1       8.140  30.079  58.886  1.00  0.00     0.009 A 
ENDBRANCH   9  10
ENDBRANCH   6   9
ENDBRANCH   2   5
BRANCH   1  17
HETATM   17  C   UNL     1       7.072  25.014  54.257  1.00  0.00     0.158 A 
HETATM   18  C   UNL     1       7.450  23.644  54.383  1.00  0.00     0.029 A 
HETATM   19  C   UNL     1       7.409  22.666  55.398  1.00  0.00     0.023 A 
HETATM   20  C   UNL     1       7.972  23.298  53.142  1.00  0.00     0.063 A 
HETATM   21  C   UNL     1       7.904  21.377  55.137  1.00  0.00    -0.061 A 
HETATM   22  C   UNL     1       7.851  20.316  56.199  1.00  0.00     0.048 C 
HETATM   23  C   UNL     1       8.412  21.068  53.869  1.00  0.00     0.009 A 
HETATM   24  C   UNL     1       8.459  22.022  52.847  1.00  0.00     0.032 A 
HETATM   25  N   UNL     1       7.879  24.430  52.382  1.00  0.00    -0.277 N 
HETATM   26  H   UNL     1       8.165  24.547  51.416  1.00  0.00     0.189 HD
HETATM   27  N   UNL     1       7.345  25.485  53.020  1.00  0.00    -0.168 NA
ENDBRANCH   1  17
TORSDOF 4
ENDMDL
MODEL 8
REMARK VINA RESULT:      -8.7      1.633      2.240
REMARK  4 active torsions:
REMARK  status: ('A' for Active; 'I' for Inactive)
REMARK    1  A    between atoms: C_9  and  C_10 
REMARK       I    between atoms: C_10  and  N_11 
REMARK    2  A    between atoms: N_11  and  N_12 
REMARK       I    between atoms: N_12  and  C_13 
REMARK    3  A    between atoms: C_13  and  C_14 
REMARK    4  A    between atoms: C_14  and  C_15 
ROOT
HETATM    1  C   UNL     1       7.332  28.693  57.136  1.00  0.00     0.291 C 
HETATM    2  N   UNL     1       6.954  28.512  55.818  1.00  0.00    -0.262 N 
HETATM    3  O   UNL     1       8.095  27.921  57.717  1.00  0.00    -0.264 OA
HETATM    4  H   UNL     1       6.466  29.274  55.341  1.00  0.00     0.190 HD
ENDROOT
BRANCH   2   5
HETATM    5  N   UNL     1       7.622  27.562  55.037  1.00  0.00    -0.267 N 
HETATM    6  C   UNL     1       6.858  26.696  54.280  1.00  0.00     0.240 C 
HETATM    7  O   UNL     1       5.635  26.622  54.377  1.00  0.00    -0.272 OA
HETATM    8  H   UNL     1       8.607  27.738  54.852  1.00  0.00     0.190 HD
BRANCH   6   9
HETATM    9  C   UNL     1       7.658  25.830  53.326  1.00  0.00     0.143 C 
BRANCH   9  10
HETATM   10  C   UNL     1       7.830  24.401  53.789  1.00  0.00    -0.049 A 
HETATM   11  C   UNL     1       7.851  24.078  55.155  1.00  0.00     0.009 A 
HETATM   12  C   UNL     1       7.970  22.748  55.569  1.00  0.00     0.024 A 
HETATM   13  C   UNL     1       8.052  21.732  54.621  1.00  0.00     0.034 A 
HETATM   14 CL   UNL     1       8.190  20.095  55.131  1.00  0.00    -0.084 Cl
HETATM   15  C   UNL     1       8.014  22.034  53.262  1.00  0.00     0.024 A 
HETATM   16  C   UNL     1       7.899  23.363  52.848  1.00  0.00     0.009 A 
ENDBRANCH   9  10
ENDBRANCH   6   9
ENDBRANCH   2   5
BRANCH   1  17
HETATM   17  C   UNL     1       6.747  29.892  57.749  1.00  0.00     0.158 A 
HETATM   18  C   UNL     1       7.276  30.666  58.824  1.00  0.00     0.029 A 
HETATM   19  C   UNL     1       8.420  30.616  59.647  1.00  0.00     0.023 A 
HETATM   20  C   UNL     1       6.357  31.691  59.019  1.00  0.00     0.063 A 
HETATM   21  C   UNL     1       8.598  31.588  60.646  1.00  0.00    -0.061 A 
HETATM   22  C   UNL     1       9.820  31.563  61.519  1.00  0.00     0.048 C 
HETATM   23  C   UNL     1       7.652  32.610  60.801  1.00  0.00     0.009 A 
HETATM   24  C   UNL     1       6.511  32.680  59.993  1.00  0.00     0.032 A 
HETATM   25  N   UNL     1       5.377  31.479  58.090  1.00  0.00    -0.277 N 
HETATM   26  H   UNL     1       4.543  32.035  57.940  1.00  0.00     0.189 HD
HETATM   27  N   UNL     1       5.575  30.404  57.308  1.00  0.00    -0.168 NA
ENDBRANCH   1  17
TORSDOF 4
ENDMDL
MODEL 9
REMARK VINA RESULT:      -8.7      2.251      3.236
REMARK  4 active torsions:
REMARK  status: ('A' for Active; 'I' for Inactive)
REMARK    1  A    between atoms: C_9  and  C_10 
REMARK       I    between atoms: C_10  and  N_11 
REMARK    2  A    between atoms: N_11  and  N_12 
REMARK       I    between atoms: N_12  and  C_13 
REMARK    3  A    between atoms: C_13  and  C_14 
REMARK    4  A    between atoms: C_14  and  C_15 
ROOT
HETATM    1  C   UNL     1       7.317  30.570  58.466  1.00  0.00     0.291 C 
HETATM    2  N   UNL     1       7.597  29.315  57.956  1.00  0.00    -0.262 N 
HETATM    3  O   UNL     1       6.625  31.391  57.862  1.00  0.00    -0.264 OA
HETATM    4  H   UNL     1       8.024  28.621  58.574  1.00  0.00     0.190 HD
ENDROOT
BRANCH   2   5
HETATM    5  N   UNL     1       6.901  28.861  56.831  1.00  0.00    -0.267 N 
HETATM    6  C   UNL     1       7.614  28.663  55.665  1.00  0.00     0.240 C 
HETATM    7  O   UNL     1       8.787  29.009  55.531  1.00  0.00    -0.272 OA
HETATM    8  H   UNL     1       5.989  28.441  57.000  1.00  0.00     0.190 HD
BRANCH   6   9
HETATM    9  C   UNL     1       6.825  27.995  54.556  1.00  0.00     0.143 C 
BRANCH   9  10
HETATM   10  C   UNL     1       7.253  26.575  54.265  1.00  0.00    -0.049 A 
HETATM   11  C   UNL     1       7.245  25.594  55.270  1.00  0.00     0.009 A 
HETATM   12  C   UNL     1       7.604  24.275  54.978  1.00  0.00     0.024 A 
HETATM   13  C   UNL     1       7.956  23.924  53.678  1.00  0.00     0.034 A 
HETATM   14 CL   UNL     1       8.389  22.299  53.317  1.00  0.00    -0.084 Cl
HETATM   15  C   UNL     1       7.949  24.880  52.666  1.00  0.00     0.024 A 
HETATM   16  C   UNL     1       7.595  26.200  52.958  1.00  0.00     0.009 A 
ENDBRANCH   9  10
ENDBRANCH   6   9
ENDBRANCH   2   5
BRANCH   1  17
HETATM   17  C   UNL     1       7.911  30.806  59.788  1.00  0.00     0.158 A 
HETATM   18  C   UNL     1       7.464  31.714  60.793  1.00  0.00     0.029 A 
HETATM   19  C   UNL     1       6.415  32.646  60.927  1.00  0.00     0.023 A 
HETATM   20  C   UNL     1       8.354  31.552  61.849  1.00  0.00     0.063 A 
HETATM   21  C   UNL     1       6.300  33.394  62.112  1.00  0.00    -0.061 A 
HETATM   22  C   UNL     1       5.178  34.378  62.282  1.00  0.00     0.048 C 
HETATM   23  C   UNL     1       7.213  33.191  63.155  1.00  0.00     0.009 A 
HETATM   24  C   UNL     1       8.259  32.269  63.044  1.00  0.00     0.032 A 
HETATM   25  N   UNL     1       9.240  30.599  61.432  1.00  0.00    -0.277 N 
HETATM   26  H   UNL     1      10.029  30.227  61.948  1.00  0.00     0.189 HD
HETATM   27  N   UNL     1       9.008  30.127  60.195  1.00  0.00    -0.168 NA
ENDBRANCH   1  17
TORSDOF 4
ENDMDL
MODEL 10
REMARK VINA RESULT:      -8.6      3.860      8.996
REMARK  4 active torsions:
REMARK  status: ('A' for Active; 'I' for Inactive)
REMARK    1  A    between atoms: C_9  and  C_10 
REMARK       I    between atoms: C_10  and  N_11 
REMARK    2  A    between atoms: N_11  and  N_12 
REMARK       I    between atoms: N_12  and  C_13 
REMARK    3  A    between atoms: C_13  and  C_14 
REMARK    4  A    between atoms: C_14  and  C_15 
ROOT
HETATM    1  C   UNL     1       7.781  27.872  56.734  1.00  0.00     0.291 C 
HETATM    2  N   UNL     1       7.255  28.445  57.877  1.00  0.00    -0.262 N 
HETATM    3  O   UNL     1       8.166  28.542  55.774  1.00  0.00    -0.264 OA
HETATM    4  H   UNL     1       7.118  27.855  58.701  1.00  0.00     0.190 HD
ENDROOT
BRANCH   2   5
HETATM    5  N   UNL     1       7.362  29.827  58.064  1.00  0.00    -0.267 N 
HETATM    6  C   UNL     1       6.206  30.579  58.008  1.00  0.00     0.240 C 
HETATM    7  O   UNL     1       5.122  30.117  57.655  1.00  0.00    -0.272 OA
HETATM    8  H   UNL     1       8.219  30.161  58.500  1.00  0.00     0.190 HD
BRANCH   6   9
HETATM    9  C   UNL     1       6.385  32.032  58.405  1.00  0.00     0.143 C 
BRANCH   9  10
HETATM   10  C   UNL     1       6.763  32.231  59.855  1.00  0.00    -0.049 A 
HETATM   11  C   UNL     1       8.105  32.210  60.265  1.00  0.00     0.009 A 
HETATM   12  C   UNL     1       8.444  32.436  61.602  1.00  0.00     0.024 A 
HETATM   13  C   UNL     1       7.445  32.702  62.535  1.00  0.00     0.034 A 
HETATM   14 CL   UNL     1       7.862  32.989  64.179  1.00  0.00    -0.084 Cl
HETATM   15  C   UNL     1       6.110  32.746  62.141  1.00  0.00     0.024 A 
HETATM   16  C   UNL     1       5.771  32.515  60.805  1.00  0.00     0.009 A 
ENDBRANCH   9  10
ENDBRANCH   6   9
ENDBRANCH   2   5
BRANCH   1  17
HETATM   17  C   UNL     1       7.843  26.406  56.794  1.00  0.00     0.158 A 
HETATM   18  C   UNL     1       7.785  25.487  55.704  1.00  0.00     0.029 A 
HETATM   19  C   UNL     1       7.654  25.578  54.303  1.00  0.00     0.023 A 
HETATM   20  C   UNL     1       7.894  24.229  56.286  1.00  0.00     0.063 A 
HETATM   21  C   UNL     1       7.625  24.403  53.533  1.00  0.00    -0.061 A 
HETATM   22  C   UNL     1       7.506  24.479  52.038  1.00  0.00     0.048 C 
HETATM   23  C   UNL     1       7.748  23.156  54.159  1.00  0.00     0.009 A 
HETATM   24  C   UNL     1       7.882  23.043  55.547  1.00  0.00     0.032 A 
HETATM   25  N   UNL     1       8.006  24.460  57.628  1.00  0.00    -0.277 N 
HETATM   26  H   UNL     1       8.106  23.769  58.363  1.00  0.00     0.189 HD
HETATM   27  N   UNL     1       7.978  25.758  57.973  1.00  0.00    -0.168 NA
ENDBRANCH   1  17
TORSDOF 4
ENDMDL
