MODEL 1
REMARK VINA RESULT:     -10.4      0.000      0.000
REMARK  7 active torsions:
REMARK  status: ('A' for Active; 'I' for Inactive)
REMARK    1  A    between atoms: O_2  and  C_3 
REMARK    2  A    between atoms: C_4  and  C_5 
REMARK       I    between atoms: C_5  and  N_6 
REMARK    3  A    between atoms: N_6  and  C_7 
REMARK    4  A    between atoms: C_7  and  N_8 
REMARK    5  A    between atoms: N_8  and  C_9 
REMARK    6  A    between atoms: C_10  and  N_11 
REMARK       I    between atoms: N_14  and  C_15 
REMARK    7  A    between atoms: C_15  and  C_16 
ROOT
HETATM    1  C   UNL     1       5.917  27.346  54.468  1.00  0.00     0.060 A 
HETATM    2  C   UNL     1       5.725  28.565  55.158  1.00  0.00     0.057 A 
HETATM    3  C   UNL     1       4.690  29.404  54.727  1.00  0.00     0.031 A 
HETATM    4  C   UNL     1       3.878  29.044  53.647  1.00  0.00     0.002 A 
HETATM    5  C   UNL     1       4.089  27.842  52.974  1.00  0.00     0.002 A 
HETATM    6  C   UNL     1       5.112  26.988  53.384  1.00  0.00     0.032 A 
ENDROOT
BRANCH   1   7
HETATM    7  N   UNL     1       6.964  26.497  54.896  1.00  0.00    -0.336 N 
HETATM    8  H   UNL     1       7.549  26.164  54.140  1.00  0.00     0.168 HD
BRANCH   7   9
HETATM    9  C   UNL     1       6.918  25.548  55.890  1.00  0.00     0.157 C 
HETATM   10  S   UNL     1       5.448  25.356  56.671  1.00  0.00    -0.047 SA
BRANCH   9  11
HETATM   11  N   UNL     1       8.116  24.931  56.193  1.00  0.00    -0.201 NA
HETATM   12  C   UNL     1       8.275  23.575  56.438  1.00  0.00     0.240 C 
HETATM   13  O   UNL     1       8.562  23.225  57.579  1.00  0.00    -0.274 OA
HETATM   14  H   UNL     1       8.526  25.410  56.986  1.00  0.00     0.139 HD
BRANCH  12  15
HETATM   15  C   UNL     1       8.175  22.609  55.308  1.00  0.00     0.060 A 
HETATM   16  C   UNL     1       8.195  23.052  53.975  1.00  0.00     0.083 A 
HETATM   17  C   UNL     1       8.000  22.149  52.925  1.00  0.00     0.038 A 
HETATM   18  C   UNL     1       7.820  20.793  53.192  1.00  0.00     0.003 A 
HETATM   19  C   UNL     1       7.824  20.338  54.510  1.00  0.00     0.001 A 
HETATM   20  C   UNL     1       7.990  21.241  55.563  1.00  0.00     0.019 A 
BRANCH  16  21
HETATM   21  O   UNL     1       8.329  24.374  53.644  1.00  0.00    -0.355 OA
HETATM   22  C   UNL     1       7.993  24.586  52.273  1.00  0.00     0.210 C 
ENDBRANCH  16  21
ENDBRANCH  12  15
ENDBRANCH   9  11
ENDBRANCH   7   9
ENDBRANCH   1   7
BRANCH   2  23
HETATM   23  N   UNL     1       6.657  28.947  56.130  1.00  0.00    -0.376 N 
HETATM   24  C   UNL     1       6.159  29.775  57.244  1.00  0.00     0.143 C 
HETATM   25  C   UNL     1       7.142  29.627  58.432  1.00  0.00     0.146 C 
HETATM   26  N   UNL     1       8.522  29.946  58.024  1.00  0.00    -0.345 N 
HETATM   27  C   UNL     1       9.301  30.946  58.586  1.00  0.00     0.253 C 
HETATM   28  C   UNL     1       8.993  29.260  56.813  1.00  0.00     0.146 C 
HETATM   29  O   UNL     1      10.246  31.477  58.014  1.00  0.00    -0.267 OA
HETATM   30  C   UNL     1       7.989  29.384  55.654  1.00  0.00     0.143 C 
BRANCH  27  31
HETATM   31  C   UNL     1       8.998  31.358  59.972  1.00  0.00     0.032 A 
HETATM   32  C   UNL     1       8.275  32.536  60.205  1.00  0.00     0.017 A 
HETATM   33  C   UNL     1       7.967  32.908  61.513  1.00  0.00     0.001 A 
HETATM   34  C   UNL     1       8.375  32.105  62.579  1.00  0.00     0.000 A 
HETATM   35  C   UNL     1       9.081  30.922  62.341  1.00  0.00     0.001 A 
HETATM   36  C   UNL     1       9.387  30.541  61.034  1.00  0.00     0.017 A 
ENDBRANCH  27  31
ENDBRANCH   2  23
TORSDOF 7
ENDMDL
MODEL 2
REMARK VINA RESULT:     -10.2      2.760      4.971
REMARK  7 active torsions:
REMARK  status: ('A' for Active; 'I' for Inactive)
REMARK    1  A    between atoms: O_2  and  C_3 
REMARK    2  A    between atoms: C_4  and  C_5 
REMARK       I    between atoms: C_5  and  N_6 
REMARK    3  A    between atoms: N_6  and  C_7 
REMARK    4  A    between atoms: C_7  and  N_8 
REMARK    5  A    between atoms: N_8  and  C_9 
REMARK    6  A    between atoms: C_10  and  N_11 
REMARK       I    between atoms: N_14  and  C_15 
REMARK    7  A    between atoms: C_15  and  C_16 
ROOT
HETATM    1  C   UNL     1       8.426  29.390  57.765  1.00  0.00     0.060 A 
HETATM    2  C   UNL     1       8.989  30.432  58.538  1.00  0.00     0.057 A 
HETATM    3  C   UNL     1      10.283  30.860  58.214  1.00  0.00     0.031 A 
HETATM    4  C   UNL     1      10.992  30.270  57.163  1.00  0.00     0.002 A 
HETATM    5  C   UNL     1      10.423  29.238  56.419  1.00  0.00     0.002 A 
HETATM    6  C   UNL     1       9.136  28.794  56.719  1.00  0.00     0.032 A 
ENDROOT
BRANCH   1   7
HETATM    7  N   UNL     1       7.122  28.950  58.089  1.00  0.00    -0.336 N 
HETATM    8  H   UNL     1       7.003  28.729  59.070  1.00  0.00     0.168 HD
BRANCH   7   9
HETATM    9  C   UNL     1       6.299  28.148  57.336  1.00  0.00     0.157 C 
HETATM   10  S   UNL     1       5.331  28.920  56.207  1.00  0.00    -0.047 SA
BRANCH   9  11
HETATM   11  N   UNL     1       6.296  26.806  57.665  1.00  0.00    -0.201 NA
HETATM   12  C   UNL     1       5.655  25.809  56.944  1.00  0.00     0.240 C 
HETATM   13  O   UNL     1       4.683  25.262  57.457  1.00  0.00    -0.274 OA
HETATM   14  H   UNL     1       5.972  26.716  58.620  1.00  0.00     0.139 HD
BRANCH  12  15
HETATM   15  C   UNL     1       6.208  25.386  55.627  1.00  0.00     0.060 A 
HETATM   16  C   UNL     1       7.486  24.812  55.529  1.00  0.00     0.083 A 
HETATM   17  C   UNL     1       8.035  24.511  54.279  1.00  0.00     0.038 A 
HETATM   18  C   UNL     1       7.300  24.744  53.118  1.00  0.00     0.003 A 
HETATM   19  C   UNL     1       6.020  25.289  53.203  1.00  0.00     0.001 A 
HETATM   20  C   UNL     1       5.479  25.618  54.449  1.00  0.00     0.019 A 
BRANCH  16  21
HETATM   21  O   UNL     1       8.275  24.592  56.627  1.00  0.00    -0.355 OA
HETATM   22  C   UNL     1       8.365  23.196  56.910  1.00  0.00     0.210 C 
ENDBRANCH  16  21
ENDBRANCH  12  15
ENDBRANCH   9  11
ENDBRANCH   7   9
ENDBRANCH   1   7
BRANCH   2  23
HETATM   23  N   UNL     1       8.301  30.882  59.670  1.00  0.00    -0.376 N 
HETATM   24  C   UNL     1       7.542  32.139  59.534  1.00  0.00     0.143 C 
HETATM   25  C   UNL     1       6.460  32.171  60.643  1.00  0.00     0.146 C 
HETATM   26  N   UNL     1       7.059  31.978  61.976  1.00  0.00    -0.345 N 
HETATM   27  C   UNL     1       6.969  32.883  63.022  1.00  0.00     0.253 C 
HETATM   28  C   UNL     1       7.958  30.822  62.099  1.00  0.00     0.146 C 
HETATM   29  O   UNL     1       7.765  32.933  63.952  1.00  0.00    -0.267 OA
HETATM   30  C   UNL     1       9.002  30.783  60.970  1.00  0.00     0.143 C 
BRANCH  27  31
HETATM   31  C   UNL     1       5.817  33.810  63.033  1.00  0.00     0.032 A 
HETATM   32  C   UNL     1       4.604  33.405  63.607  1.00  0.00     0.017 A 
HETATM   33  C   UNL     1       3.529  34.291  63.641  1.00  0.00     0.001 A 
HETATM   34  C   UNL     1       3.667  35.574  63.108  1.00  0.00     0.000 A 
HETATM   35  C   UNL     1       4.884  35.979  62.552  1.00  0.00     0.001 A 
HETATM   36  C   UNL     1       5.967  35.100  62.521  1.00  0.00     0.017 A 
ENDBRANCH  27  31
ENDBRANCH   2  23
TORSDOF 7
ENDMDL
MODEL 3
REMARK VINA RESULT:     -10.0      1.221      2.064
REMARK  7 active torsions:
REMARK  status: ('A' for Active; 'I' for Inactive)
REMARK    1  A    between atoms: O_2  and  C_3 
REMARK    2  A    between atoms: C_4  and  C_5 
REMARK       I    between atoms: C_5  and  N_6 
REMARK    3  A    between atoms: N_6  and  C_7 
REMARK    4  A    between atoms: C_7  and  N_8 
REMARK    5  A    between atoms: N_8  and  C_9 
REMARK    6  A    between atoms: C_10  and  N_11 
REMARK       I    between atoms: N_14  and  C_15 
REMARK    7  A    between atoms: C_15  and  C_16 
ROOT
HETATM    1  C   UNL     1       5.457  27.693  54.164  1.00  0.00     0.060 A 
HETATM    2  C   UNL     1       5.431  28.929  54.852  1.00  0.00     0.057 A 
HETATM    3  C   UNL     1       4.594  29.936  54.356  1.00  0.00     0.031 A 
HETATM    4  C   UNL     1       3.813  29.723  53.215  1.00  0.00     0.002 A 
HETATM    5  C   UNL     1       3.860  28.502  52.545  1.00  0.00     0.002 A 
HETATM    6  C   UNL     1       4.684  27.482  53.019  1.00  0.00     0.032 A 
ENDROOT
BRANCH   1   7
HETATM    7  N   UNL     1       6.304  26.674  54.658  1.00  0.00    -0.336 N 
HETATM    8  H   UNL     1       7.212  26.652  54.210  1.00  0.00     0.168 HD
BRANCH   7   9
HETATM    9  C   UNL     1       5.948  25.401  55.034  1.00  0.00     0.157 C 
HETATM   10  S   UNL     1       5.396  25.213  56.604  1.00  0.00    -0.047 SA
BRANCH   9  11
HETATM   11  N   UNL     1       6.178  24.409  54.101  1.00  0.00    -0.201 NA
HETATM   12  C   UNL     1       7.377  23.731  53.937  1.00  0.00     0.240 C 
HETATM   13  O   UNL     1       8.017  23.933  52.909  1.00  0.00    -0.274 OA
HETATM   14  H   UNL     1       5.932  24.770  53.188  1.00  0.00     0.139 HD
BRANCH  12  15
HETATM   15  C   UNL     1       7.803  22.735  54.960  1.00  0.00     0.060 A 
HETATM   16  C   UNL     1       7.812  21.360  54.670  1.00  0.00     0.083 A 
HETATM   17  C   UNL     1       8.116  20.427  55.666  1.00  0.00     0.038 A 
HETATM   18  C   UNL     1       8.450  20.858  56.949  1.00  0.00     0.003 A 
HETATM   19  C   UNL     1       8.470  22.220  57.242  1.00  0.00     0.001 A 
HETATM   20  C   UNL     1       8.139  23.155  56.257  1.00  0.00     0.019 A 
BRANCH  16  21
HETATM   21  O   UNL     1       7.457  20.869  53.442  1.00  0.00    -0.355 OA
HETATM   22  C   UNL     1       8.593  20.323  52.771  1.00  0.00     0.210 C 
ENDBRANCH  16  21
ENDBRANCH  12  15
ENDBRANCH   9  11
ENDBRANCH   7   9
ENDBRANCH   1   7
BRANCH   2  23
HETATM   23  N   UNL     1       6.341  29.143  55.893  1.00  0.00    -0.376 N 
HETATM   24  C   UNL     1       5.931  30.080  56.956  1.00  0.00     0.143 C 
HETATM   25  C   UNL     1       6.768  29.770  58.222  1.00  0.00     0.146 C 
HETATM   26  N   UNL     1       8.212  29.799  57.926  1.00  0.00    -0.345 N 
HETATM   27  C   UNL     1       9.128  30.638  58.541  1.00  0.00     0.253 C 
HETATM   28  C   UNL     1       8.630  29.003  56.764  1.00  0.00     0.146 C 
HETATM   29  O   UNL     1      10.202  30.956  58.044  1.00  0.00    -0.267 OA
HETATM   30  C   UNL     1       7.767  29.294  55.525  1.00  0.00     0.143 C 
BRANCH  27  31
HETATM   31  C   UNL     1       8.805  31.137  59.895  1.00  0.00     0.032 A 
HETATM   32  C   UNL     1       9.207  30.405  61.020  1.00  0.00     0.017 A 
HETATM   33  C   UNL     1       8.924  30.892  62.295  1.00  0.00     0.001 A 
HETATM   34  C   UNL     1       8.249  32.104  62.443  1.00  0.00     0.000 A 
HETATM   35  C   UNL     1       7.864  32.839  61.317  1.00  0.00     0.001 A 
HETATM   36  C   UNL     1       8.150  32.361  60.038  1.00  0.00     0.017 A 
ENDBRANCH  27  31
ENDBRANCH   2  23
TORSDOF 7
ENDMDL
MODEL 4
REMARK VINA RESULT:     -10.0      4.897      7.945
REMARK  7 active torsions:
REMARK  status: ('A' for Active; 'I' for Inactive)
REMARK    1  A    between atoms: O_2  and  C_3 
REMARK    2  A    between atoms: C_4  and  C_5 
REMARK       I    between atoms: C_5  and  N_6 
REMARK    3  A    between atoms: N_6  and  C_7 
REMARK    4  A    between atoms: C_7  and  N_8 
REMARK    5  A    between atoms: N_8  and  C_9 
REMARK    6  A    between atoms: C_10  and  N_11 
REMARK       I    between atoms: N_14  and  C_15 
REMARK    7  A    between atoms: C_15  and  C_16 
ROOT
HETATM    1  C   UNL     1       8.499  29.573  57.816  1.00  0.00     0.060 A 
HETATM    2  C   UNL     1       9.170  30.476  58.673  1.00  0.00     0.057 A 
HETATM    3  C   UNL     1      10.513  30.764  58.396  1.00  0.00     0.031 A 
HETATM    4  C   UNL     1      11.164  30.172  57.309  1.00  0.00     0.002 A 
HETATM    5  C   UNL     1      10.488  29.278  56.482  1.00  0.00     0.002 A 
HETATM    6  C   UNL     1       9.151  28.975  56.733  1.00  0.00     0.032 A 
ENDROOT
BRANCH   1   7
HETATM    7  N   UNL     1       7.145  29.275  58.093  1.00  0.00    -0.336 N 
HETATM    8  H   UNL     1       7.021  28.432  58.640  1.00  0.00     0.168 HD
BRANCH   7   9
HETATM    9  C   UNL     1       6.065  29.442  57.259  1.00  0.00     0.157 C 
HETATM   10  S   UNL     1       5.101  28.095  57.006  1.00  0.00    -0.047 SA
BRANCH   9  11
HETATM   11  N   UNL     1       5.956  30.677  56.651  1.00  0.00    -0.201 NA
HETATM   12  C   UNL     1       4.795  31.432  56.581  1.00  0.00     0.240 C 
HETATM   13  O   UNL     1       4.268  31.578  55.482  1.00  0.00    -0.274 OA
HETATM   14  H   UNL     1       6.294  30.592  55.700  1.00  0.00     0.139 HD
BRANCH  12  15
HETATM   15  C   UNL     1       4.278  32.099  57.809  1.00  0.00     0.060 A 
HETATM   16  C   UNL     1       4.526  33.460  58.052  1.00  0.00     0.083 A 
HETATM   17  C   UNL     1       4.124  34.051  59.254  1.00  0.00     0.038 A 
HETATM   18  C   UNL     1       3.437  33.300  60.207  1.00  0.00     0.003 A 
HETATM   19  C   UNL     1       3.162  31.955  59.966  1.00  0.00     0.001 A 
HETATM   20  C   UNL     1       3.588  31.354  58.779  1.00  0.00     0.019 A 
BRANCH  16  21
HETATM   21  O   UNL     1       5.228  34.243  57.175  1.00  0.00    -0.355 OA
HETATM   22  C   UNL     1       4.591  35.512  57.014  1.00  0.00     0.210 C 
ENDBRANCH  16  21
ENDBRANCH  12  15
ENDBRANCH   9  11
ENDBRANCH   7   9
ENDBRANCH   1   7
BRANCH   2  23
HETATM   23  N   UNL     1       8.522  30.920  59.830  1.00  0.00    -0.376 N 
HETATM   24  C   UNL     1       7.677  32.122  59.703  1.00  0.00     0.143 C 
HETATM   25  C   UNL     1       6.661  32.124  60.873  1.00  0.00     0.146 C 
HETATM   26  N   UNL     1       7.347  32.012  62.173  1.00  0.00    -0.345 N 
HETATM   27  C   UNL     1       7.259  32.945  63.195  1.00  0.00     0.253 C 
HETATM   28  C   UNL     1       8.324  30.919  62.276  1.00  0.00     0.146 C 
HETATM   29  O   UNL     1       8.103  33.075  64.074  1.00  0.00    -0.267 OA
HETATM   30  C   UNL     1       9.301  30.907  61.089  1.00  0.00     0.143 C 
BRANCH  27  31
HETATM   31  C   UNL     1       6.054  33.798  63.248  1.00  0.00     0.032 A 
HETATM   32  C   UNL     1       6.051  35.039  62.596  1.00  0.00     0.017 A 
HETATM   33  C   UNL     1       4.903  35.829  62.625  1.00  0.00     0.001 A 
HETATM   34  C   UNL     1       3.765  35.379  63.296  1.00  0.00     0.000 A 
HETATM   35  C   UNL     1       3.767  34.133  63.931  1.00  0.00     0.001 A 
HETATM   36  C   UNL     1       4.910  33.334  63.900  1.00  0.00     0.017 A 
ENDBRANCH  27  31
ENDBRANCH   2  23
TORSDOF 7
ENDMDL
MODEL 5
REMARK VINA RESULT:      -9.8      2.658      8.417
REMARK  7 active torsions:
REMARK  status: ('A' for Active; 'I' for Inactive)
REMARK    1  A    between atoms: O_2  and  C_3 
REMARK    2  A    between atoms: C_4  and  C_5 
REMARK       I    between atoms: C_5  and  N_6 
REMARK    3  A    between atoms: N_6  and  C_7 
REMARK    4  A    between atoms: C_7  and  N_8 
REMARK    5  A    between atoms: N_8  and  C_9 
REMARK    6  A    between atoms: C_10  and  N_11 
REMARK       I    between atoms: N_14  and  C_15 
REMARK    7  A    between atoms: C_15  and  C_16 
ROOT
HETATM    1  C   UNL     1       7.100  23.812  55.113  1.00  0.00     0.060 A 
HETATM    2  C   UNL     1       7.057  24.016  53.714  1.00  0.00     0.057 A 
HETATM    3  C   UNL     1       7.748  23.110  52.900  1.00  0.00     0.031 A 
HETATM    4  C   UNL     1       8.458  22.042  53.457  1.00  0.00     0.002 A 
HETATM    5  C   UNL     1       8.497  21.864  54.838  1.00  0.00     0.002 A 
HETATM    6  C   UNL     1       7.816  22.750  55.672  1.00  0.00     0.032 A 
ENDROOT
BRANCH   1   7
HETATM    7  N   UNL     1       6.409  24.727  55.940  1.00  0.00    -0.336 N 
HETATM    8  H   UNL     1       5.489  24.969  55.594  1.00  0.00     0.168 HD
BRANCH   7   9
HETATM    9  C   UNL     1       6.935  25.796  56.627  1.00  0.00     0.157 C 
HETATM   10  S   UNL     1       7.981  25.434  57.884  1.00  0.00    -0.047 SA
BRANCH   9  11
HETATM   11  N   UNL     1       6.463  27.041  56.260  1.00  0.00    -0.201 NA
HETATM   12  C   UNL     1       6.744  28.227  56.922  1.00  0.00     0.240 C 
HETATM   13  O   UNL     1       5.828  28.784  57.521  1.00  0.00    -0.274 OA
HETATM   14  H   UNL     1       5.454  26.989  56.191  1.00  0.00     0.139 HD
BRANCH  12  15
HETATM   15  C   UNL     1       8.107  28.820  56.819  1.00  0.00     0.060 A 
HETATM   16  C   UNL     1       8.745  29.366  57.945  1.00  0.00     0.083 A 
HETATM   17  C   UNL     1       9.980  30.009  57.817  1.00  0.00     0.038 A 
HETATM   18  C   UNL     1      10.607  30.080  56.575  1.00  0.00     0.003 A 
HETATM   19  C   UNL     1       9.996  29.519  55.455  1.00  0.00     0.001 A 
HETATM   20  C   UNL     1       8.749  28.900  55.572  1.00  0.00     0.019 A 
BRANCH  16  21
HETATM   21  O   UNL     1       8.167  29.364  59.186  1.00  0.00    -0.355 OA
HETATM   22  C   UNL     1       8.658  30.452  59.971  1.00  0.00     0.210 C 
ENDBRANCH  16  21
ENDBRANCH  12  15
ENDBRANCH   9  11
ENDBRANCH   7   9
ENDBRANCH   1   7
BRANCH   2  23
HETATM   23  N   UNL     1       6.462  25.181  53.218  1.00  0.00    -0.376 N 
HETATM   24  C   UNL     1       5.415  25.013  52.194  1.00  0.00     0.143 C 
HETATM   25  C   UNL     1       4.537  26.290  52.186  1.00  0.00     0.146 C 
HETATM   26  N   UNL     1       5.360  27.500  52.003  1.00  0.00    -0.345 N 
HETATM   27  C   UNL     1       5.217  28.402  50.960  1.00  0.00     0.253 C 
HETATM   28  C   UNL     1       6.516  27.614  52.902  1.00  0.00     0.146 C 
HETATM   29  O   UNL     1       6.111  29.147  50.576  1.00  0.00    -0.267 OA
HETATM   30  C   UNL     1       7.356  26.326  52.929  1.00  0.00     0.143 C 
BRANCH  27  31
HETATM   31  C   UNL     1       3.894  28.497  50.308  1.00  0.00     0.032 A 
HETATM   32  C   UNL     1       2.879  29.259  50.903  1.00  0.00     0.017 A 
HETATM   33  C   UNL     1       1.641  29.370  50.272  1.00  0.00     0.001 A 
HETATM   34  C   UNL     1       1.422  28.727  49.053  1.00  0.00     0.000 A 
HETATM   35  C   UNL     1       2.442  27.981  48.455  1.00  0.00     0.001 A 
HETATM   36  C   UNL     1       3.686  27.872  49.078  1.00  0.00     0.017 A 
ENDBRANCH  27  31
ENDBRANCH   2  23
TORSDOF 7
ENDMDL
MODEL 6
REMARK VINA RESULT:      -9.7      3.950     10.548
REMARK  7 active torsions:
REMARK  status: ('A' for Active; 'I' for Inactive)
REMARK    1  A    between atoms: O_2  and  C_3 
REMARK    2  A    between atoms: C_4  and  C_5 
REMARK       I    between atoms: C_5  and  N_6 
REMARK    3  A    between atoms: N_6  and  C_7 
REMARK    4  A    between atoms: C_7  and  N_8 
REMARK    5  A    between atoms: N_8  and  C_9 
REMARK    6  A    between atoms: C_10  and  N_11 
REMARK       I    between atoms: N_14  and  C_15 
REMARK    7  A    between atoms: C_15  and  C_16 
ROOT
HETATM    1  C   UNL     1       7.071  31.588  59.865  1.00  0.00     0.060 A 
HETATM    2  C   UNL     1       7.893  30.741  59.084  1.00  0.00     0.057 A 
HETATM    3  C   UNL     1       9.281  30.882  59.210  1.00  0.00     0.031 A 
HETATM    4  C   UNL     1       9.830  31.831  60.078  1.00  0.00     0.002 A 
HETATM    5  C   UNL     1       9.003  32.662  60.831  1.00  0.00     0.002 A 
HETATM    6  C   UNL     1       7.618  32.542  60.726  1.00  0.00     0.032 A 
ENDROOT
BRANCH   1   7
HETATM    7  N   UNL     1       5.669  31.454  59.738  1.00  0.00    -0.336 N 
HETATM    8  H   UNL     1       5.379  31.058  58.853  1.00  0.00     0.168 HD
BRANCH   7   9
HETATM    9  C   UNL     1       4.703  32.321  60.190  1.00  0.00     0.157 C 
HETATM   10  S   UNL     1       4.512  33.743  59.324  1.00  0.00    -0.047 SA
BRANCH   9  11
HETATM   11  N   UNL     1       4.067  31.961  61.362  1.00  0.00    -0.201 NA
HETATM   12  C   UNL     1       4.590  32.129  62.636  1.00  0.00     0.240 C 
HETATM   13  O   UNL     1       4.901  31.124  63.268  1.00  0.00    -0.274 OA
HETATM   14  H   UNL     1       3.804  30.986  61.292  1.00  0.00     0.139 HD
BRANCH  12  15
HETATM   15  C   UNL     1       4.679  33.498  63.218  1.00  0.00     0.060 A 
HETATM   16  C   UNL     1       3.521  34.235  63.512  1.00  0.00     0.083 A 
HETATM   17  C   UNL     1       3.616  35.556  63.963  1.00  0.00     0.038 A 
HETATM   18  C   UNL     1       4.866  36.139  64.162  1.00  0.00     0.003 A 
HETATM   19  C   UNL     1       6.023  35.408  63.898  1.00  0.00     0.001 A 
HETATM   20  C   UNL     1       5.933  34.098  63.420  1.00  0.00     0.019 A 
BRANCH  16  21
HETATM   21  O   UNL     1       2.262  33.736  63.303  1.00  0.00    -0.355 OA
HETATM   22  C   UNL     1       1.581  34.493  62.302  1.00  0.00     0.210 C 
ENDBRANCH  16  21
ENDBRANCH  12  15
ENDBRANCH   9  11
ENDBRANCH   7   9
ENDBRANCH   1   7
BRANCH   2  23
HETATM   23  N   UNL     1       7.297  29.917  58.123  1.00  0.00    -0.376 N 
HETATM   24  C   UNL     1       8.124  28.826  57.574  1.00  0.00     0.143 C 
HETATM   25  C   UNL     1       7.175  27.749  56.990  1.00  0.00     0.146 C 
HETATM   26  N   UNL     1       6.239  28.337  56.014  1.00  0.00    -0.345 N 
HETATM   27  C   UNL     1       6.138  27.952  54.686  1.00  0.00     0.253 C 
HETATM   28  C   UNL     1       5.520  29.533  56.475  1.00  0.00     0.146 C 
HETATM   29  O   UNL     1       5.689  28.670  53.801  1.00  0.00    -0.267 OA
HETATM   30  C   UNL     1       6.470  30.576  57.087  1.00  0.00     0.143 C 
BRANCH  27  31
HETATM   31  C   UNL     1       6.556  26.579  54.333  1.00  0.00     0.032 A 
HETATM   32  C   UNL     1       7.525  26.381  53.340  1.00  0.00     0.017 A 
HETATM   33  C   UNL     1       7.937  25.087  53.028  1.00  0.00     0.001 A 
HETATM   34  C   UNL     1       7.387  23.999  53.708  1.00  0.00     0.000 A 
HETATM   35  C   UNL     1       6.433  24.202  54.710  1.00  0.00     0.001 A 
HETATM   36  C   UNL     1       6.022  25.496  55.031  1.00  0.00     0.017 A 
ENDBRANCH  27  31
ENDBRANCH   2  23
TORSDOF 7
ENDMDL
MODEL 7
REMARK VINA RESULT:      -9.7      2.681      7.072
REMARK  7 active torsions:
REMARK  status: ('A' for Active; 'I' for Inactive)
REMARK    1  A    between atoms: O_2  and  C_3 
REMARK    2  A    between atoms: C_4  and  C_5 
REMARK       I    between atoms: C_5  and  N_6 
REMARK    3  A    between atoms: N_6  and  C_7 
REMARK    4  A    between atoms: C_7  and  N_8 
REMARK    5  A    between atoms: N_8  and  C_9 
REMARK    6  A    between atoms: C_10  and  N_11 
REMARK       I    between atoms: N_14  and  C_15 
REMARK    7  A    between atoms: C_15  and  C_16 
ROOT
HETATM    1  C   UNL     1       7.128  27.871  56.342  1.00  0.00     0.060 A 
HETATM    2  C   UNL     1       6.389  28.883  55.686  1.00  0.00     0.057 A 
HETATM    3  C   UNL     1       6.301  30.134  56.309  1.00  0.00     0.031 A 
HETATM    4  C   UNL     1       6.921  30.369  57.540  1.00  0.00     0.002 A 
HETATM    5  C   UNL     1       7.636  29.356  58.175  1.00  0.00     0.002 A 
HETATM    6  C   UNL     1       7.742  28.101  57.576  1.00  0.00     0.032 A 
ENDROOT
BRANCH   1   7
HETATM    7  N   UNL     1       7.218  26.604  55.721  1.00  0.00    -0.336 N 
HETATM    8  H   UNL     1       6.835  26.586  54.783  1.00  0.00     0.168 HD
BRANCH   7   9
HETATM    9  C   UNL     1       7.050  25.372  56.307  1.00  0.00     0.157 C 
HETATM   10  S   UNL     1       5.489  24.968  56.764  1.00  0.00    -0.047 SA
BRANCH   9  11
HETATM   11  N   UNL     1       8.205  24.650  56.537  1.00  0.00    -0.201 NA
HETATM   12  C   UNL     1       8.286  23.266  56.570  1.00  0.00     0.240 C 
HETATM   13  O   UNL     1       8.519  22.728  57.649  1.00  0.00    -0.274 OA
HETATM   14  H   UNL     1       8.614  24.976  57.404  1.00  0.00     0.139 HD
BRANCH  12  15
HETATM   15  C   UNL     1       8.172  22.494  55.301  1.00  0.00     0.060 A 
HETATM   16  C   UNL     1       8.146  23.146  54.058  1.00  0.00     0.083 A 
HETATM   17  C   UNL     1       7.938  22.421  52.880  1.00  0.00     0.038 A 
HETATM   18  C   UNL     1       7.792  21.036  52.928  1.00  0.00     0.003 A 
HETATM   19  C   UNL     1       7.842  20.374  54.153  1.00  0.00     0.001 A 
HETATM   20  C   UNL     1       8.021  21.098  55.335  1.00  0.00     0.019 A 
BRANCH  16  21
HETATM   21  O   UNL     1       8.245  24.508  53.944  1.00  0.00    -0.355 OA
HETATM   22  C   UNL     1       8.060  24.913  52.587  1.00  0.00     0.210 C 
ENDBRANCH  16  21
ENDBRANCH  12  15
ENDBRANCH   9  11
ENDBRANCH   7   9
ENDBRANCH   1   7
BRANCH   2  23
HETATM   23  N   UNL     1       5.664  28.554  54.536  1.00  0.00    -0.376 N 
HETATM   24  C   UNL     1       6.384  28.622  53.250  1.00  0.00     0.143 C 
HETATM   25  C   UNL     1       5.631  27.734  52.228  1.00  0.00     0.146 C 
HETATM   26  N   UNL     1       4.210  28.115  52.136  1.00  0.00    -0.345 N 
HETATM   27  C   UNL     1       3.579  28.537  50.976  1.00  0.00     0.253 C 
HETATM   28  C   UNL     1       3.504  28.220  53.421  1.00  0.00     0.146 C 
HETATM   29  O   UNL     1       2.562  29.221  50.963  1.00  0.00    -0.267 OA
HETATM   30  C   UNL     1       4.281  29.074  54.437  1.00  0.00     0.143 C 
BRANCH  27  31
HETATM   31  C   UNL     1       4.144  28.094  49.684  1.00  0.00     0.032 A 
HETATM   32  C   UNL     1       4.868  28.998  48.896  1.00  0.00     0.017 A 
HETATM   33  C   UNL     1       5.423  28.570  47.691  1.00  0.00     0.001 A 
HETATM   34  C   UNL     1       5.259  27.247  47.281  1.00  0.00     0.000 A 
HETATM   35  C   UNL     1       4.550  26.343  48.079  1.00  0.00     0.001 A 
HETATM   36  C   UNL     1       3.998  26.764  49.289  1.00  0.00     0.017 A 
ENDBRANCH  27  31
ENDBRANCH   2  23
TORSDOF 7
ENDMDL
MODEL 8
REMARK VINA RESULT:      -9.6      2.234      3.257
REMARK  7 active torsions:
REMARK  status: ('A' for Active; 'I' for Inactive)
REMARK    1  A    between atoms: O_2  and  C_3 
REMARK    2  A    between atoms: C_4  and  C_5 
REMARK       I    between atoms: C_5  and  N_6 
REMARK    3  A    between atoms: N_6  and  C_7 
REMARK    4  A    between atoms: C_7  and  N_8 
REMARK    5  A    between atoms: N_8  and  C_9 
REMARK    6  A    between atoms: C_10  and  N_11 
REMARK       I    between atoms: N_14  and  C_15 
REMARK    7  A    between atoms: C_15  and  C_16 
ROOT
HETATM    1  C   UNL     1       5.012  29.567  56.223  1.00  0.00     0.060 A 
HETATM    2  C   UNL     1       5.074  30.878  56.749  1.00  0.00     0.057 A 
HETATM    3  C   UNL     1       4.566  31.921  55.964  1.00  0.00     0.031 A 
HETATM    4  C   UNL     1       4.019  31.669  54.702  1.00  0.00     0.002 A 
HETATM    5  C   UNL     1       3.976  30.371  54.198  1.00  0.00     0.002 A 
HETATM    6  C   UNL     1       4.473  29.314  54.958  1.00  0.00     0.032 A 
ENDROOT
BRANCH   1   7
HETATM    7  N   UNL     1       5.527  28.510  57.008  1.00  0.00    -0.336 N 
HETATM    8  H   UNL     1       5.504  28.698  58.003  1.00  0.00     0.168 HD
BRANCH   7   9
HETATM    9  C   UNL     1       6.601  27.702  56.720  1.00  0.00     0.157 C 
HETATM   10  S   UNL     1       7.796  28.365  55.751  1.00  0.00    -0.047 SA
BRANCH   9  11
HETATM   11  N   UNL     1       6.523  26.404  57.186  1.00  0.00    -0.201 NA
HETATM   12  C   UNL     1       5.815  25.379  56.577  1.00  0.00     0.240 C 
HETATM   13  O   UNL     1       4.819  24.947  57.149  1.00  0.00    -0.274 OA
HETATM   14  H   UNL     1       6.205  26.432  58.147  1.00  0.00     0.139 HD
BRANCH  12  15
HETATM   15  C   UNL     1       6.325  24.790  55.306  1.00  0.00     0.060 A 
HETATM   16  C   UNL     1       7.569  24.140  55.259  1.00  0.00     0.083 A 
HETATM   17  C   UNL     1       8.083  23.679  54.043  1.00  0.00     0.038 A 
HETATM   18  C   UNL     1       7.345  23.829  52.870  1.00  0.00     0.003 A 
HETATM   19  C   UNL     1       6.098  24.449  52.908  1.00  0.00     0.001 A 
HETATM   20  C   UNL     1       5.593  24.937  54.116  1.00  0.00     0.019 A 
BRANCH  16  21
HETATM   21  O   UNL     1       8.361  23.994  56.367  1.00  0.00    -0.355 OA
HETATM   22  C   UNL     1       8.351  22.638  56.817  1.00  0.00     0.210 C 
ENDBRANCH  16  21
ENDBRANCH  12  15
ENDBRANCH   9  11
ENDBRANCH   7   9
ENDBRANCH   1   7
BRANCH   2  23
HETATM   23  N   UNL     1       5.766  31.096  57.945  1.00  0.00    -0.376 N 
HETATM   24  C   UNL     1       5.219  32.119  58.856  1.00  0.00     0.143 C 
HETATM   25  C   UNL     1       5.755  31.832  60.281  1.00  0.00     0.146 C 
HETATM   26  N   UNL     1       7.228  31.752  60.290  1.00  0.00    -0.345 N 
HETATM   27  C   UNL     1       8.059  32.567  61.043  1.00  0.00     0.253 C 
HETATM   28  C   UNL     1       7.814  30.864  59.276  1.00  0.00     0.146 C 
HETATM   29  O   UNL     1       9.232  32.787  60.765  1.00  0.00    -0.267 OA
HETATM   30  C   UNL     1       7.244  31.135  57.874  1.00  0.00     0.143 C 
BRANCH  27  31
HETATM   31  C   UNL     1       7.504  33.165  62.276  1.00  0.00     0.032 A 
HETATM   32  C   UNL     1       6.544  34.181  62.185  1.00  0.00     0.017 A 
HETATM   33  C   UNL     1       6.003  34.724  63.349  1.00  0.00     0.001 A 
HETATM   34  C   UNL     1       6.417  34.250  64.595  1.00  0.00     0.000 A 
HETATM   35  C   UNL     1       7.364  33.224  64.681  1.00  0.00     0.001 A 
HETATM   36  C   UNL     1       7.904  32.672  63.519  1.00  0.00     0.017 A 
ENDBRANCH  27  31
ENDBRANCH   2  23
TORSDOF 7
ENDMDL
MODEL 9
REMARK VINA RESULT:      -9.6      1.872      9.080
REMARK  7 active torsions:
REMARK  status: ('A' for Active; 'I' for Inactive)
REMARK    1  A    between atoms: O_2  and  C_3 
REMARK    2  A    between atoms: C_4  and  C_5 
REMARK       I    between atoms: C_5  and  N_6 
REMARK    3  A    between atoms: N_6  and  C_7 
REMARK    4  A    between atoms: C_7  and  N_8 
REMARK    5  A    between atoms: N_8  and  C_9 
REMARK    6  A    between atoms: C_10  and  N_11 
REMARK       I    between atoms: N_14  and  C_15 
REMARK    7  A    between atoms: C_15  and  C_16 
ROOT
HETATM    1  C   UNL     1       6.367  28.920  57.363  1.00  0.00     0.060 A 
HETATM    2  C   UNL     1       5.900  27.858  56.554  1.00  0.00     0.057 A 
HETATM    3  C   UNL     1       4.601  27.951  56.040  1.00  0.00     0.031 A 
HETATM    4  C   UNL     1       3.794  29.058  56.322  1.00  0.00     0.002 A 
HETATM    5  C   UNL     1       4.270  30.090  57.129  1.00  0.00     0.002 A 
HETATM    6  C   UNL     1       5.560  30.023  57.652  1.00  0.00     0.032 A 
ENDROOT
BRANCH   1   7
HETATM    7  N   UNL     1       7.676  28.829  57.889  1.00  0.00    -0.336 N 
HETATM    8  H   UNL     1       7.704  28.794  58.900  1.00  0.00     0.168 HD
BRANCH   7   9
HETATM    9  C   UNL     1       8.809  29.452  57.422  1.00  0.00     0.157 C 
HETATM   10  S   UNL     1       9.109  29.324  55.779  1.00  0.00    -0.047 SA
BRANCH   9  11
HETATM   11  N   UNL     1       9.619  30.031  58.380  1.00  0.00    -0.201 NA
HETATM   12  C   UNL     1       9.559  31.358  58.779  1.00  0.00     0.240 C 
HETATM   13  O   UNL     1      10.499  32.091  58.487  1.00  0.00    -0.274 OA
HETATM   14  H   UNL     1      10.584  29.857  58.125  1.00  0.00     0.139 HD
BRANCH  12  15
HETATM   15  C   UNL     1       8.411  31.823  59.608  1.00  0.00     0.060 A 
HETATM   16  C   UNL     1       8.481  31.812  61.010  1.00  0.00     0.083 A 
HETATM   17  C   UNL     1       7.364  32.155  61.779  1.00  0.00     0.038 A 
HETATM   18  C   UNL     1       6.181  32.548  61.156  1.00  0.00     0.003 A 
HETATM   19  C   UNL     1       6.108  32.588  59.765  1.00  0.00     0.001 A 
HETATM   20  C   UNL     1       7.212  32.219  58.993  1.00  0.00     0.019 A 
BRANCH  16  21
HETATM   21  O   UNL     1       9.600  31.400  61.685  1.00  0.00    -0.355 OA
HETATM   22  C   UNL     1       9.396  30.105  62.251  1.00  0.00     0.210 C 
ENDBRANCH  16  21
ENDBRANCH  12  15
ENDBRANCH   9  11
ENDBRANCH   7   9
ENDBRANCH   1   7
BRANCH   2  23
HETATM   23  N   UNL     1       6.686  26.707  56.427  1.00  0.00    -0.376 N 
HETATM   24  C   UNL     1       6.298  25.745  55.379  1.00  0.00     0.143 C 
HETATM   25  C   UNL     1       7.535  24.878  55.037  1.00  0.00     0.146 C 
HETATM   26  N   UNL     1       8.094  24.248  56.247  1.00  0.00    -0.345 N 
HETATM   27  C   UNL     1       8.228  22.881  56.436  1.00  0.00     0.253 C 
HETATM   28  C   UNL     1       8.337  25.159  57.375  1.00  0.00     0.146 C 
HETATM   29  O   UNL     1       8.297  22.348  57.538  1.00  0.00    -0.267 OA
HETATM   30  C   UNL     1       7.113  26.039  57.677  1.00  0.00     0.143 C 
BRANCH  27  31
HETATM   31  C   UNL     1       8.339  22.027  55.235  1.00  0.00     0.032 A 
HETATM   32  C   UNL     1       8.902  20.748  55.340  1.00  0.00     0.017 A 
HETATM   33  C   UNL     1       8.981  19.935  54.211  1.00  0.00     0.001 A 
HETATM   34  C   UNL     1       8.494  20.396  52.986  1.00  0.00     0.000 A 
HETATM   35  C   UNL     1       7.917  21.666  52.890  1.00  0.00     0.001 A 
HETATM   36  C   UNL     1       7.830  22.482  54.018  1.00  0.00     0.017 A 
ENDBRANCH  27  31
ENDBRANCH   2  23
TORSDOF 7
ENDMDL
MODEL 10
REMARK VINA RESULT:      -9.6      3.193      9.260
REMARK  7 active torsions:
REMARK  status: ('A' for Active; 'I' for Inactive)
REMARK    1  A    between atoms: O_2  and  C_3 
REMARK    2  A    between atoms: C_4  and  C_5 
REMARK       I    between atoms: C_5  and  N_6 
REMARK    3  A    between atoms: N_6  and  C_7 
REMARK    4  A    between atoms: C_7  and  N_8 
REMARK    5  A    between atoms: N_8  and  C_9 
REMARK    6  A    between atoms: C_10  and  N_11 
REMARK       I    between atoms: N_14  and  C_15 
REMARK    7  A    between atoms: C_15  and  C_16 
ROOT
HETATM    1  C   UNL     1       6.847  29.545  57.766  1.00  0.00     0.060 A 
HETATM    2  C   UNL     1       7.937  28.814  57.239  1.00  0.00     0.057 A 
HETATM    3  C   UNL     1       9.228  29.296  57.488  1.00  0.00     0.031 A 
HETATM    4  C   UNL     1       9.427  30.465  58.231  1.00  0.00     0.002 A 
HETATM    5  C   UNL     1       8.339  31.176  58.733  1.00  0.00     0.002 A 
HETATM    6  C   UNL     1       7.044  30.717  58.502  1.00  0.00     0.032 A 
ENDROOT
BRANCH   1   7
HETATM    7  N   UNL     1       5.540  29.066  57.514  1.00  0.00    -0.336 N 
HETATM    8  H   UNL     1       5.496  28.062  57.387  1.00  0.00     0.168 HD
BRANCH   7   9
HETATM    9  C   UNL     1       4.561  29.666  56.760  1.00  0.00     0.157 C 
HETATM   10  S   UNL     1       4.867  29.814  55.119  1.00  0.00    -0.047 SA
BRANCH   9  11
HETATM   11  N   UNL     1       3.479  30.164  57.459  1.00  0.00    -0.201 NA
HETATM   12  C   UNL     1       3.514  31.263  58.305  1.00  0.00     0.240 C 
HETATM   13  O   UNL     1       3.366  31.070  59.508  1.00  0.00    -0.274 OA
HETATM   14  H   UNL     1       3.076  29.408  57.998  1.00  0.00     0.139 HD
BRANCH  12  15
HETATM   15  C   UNL     1       3.646  32.630  57.726  1.00  0.00     0.060 A 
HETATM   16  C   UNL     1       2.916  33.006  56.586  1.00  0.00     0.083 A 
HETATM   17  C   UNL     1       3.123  34.255  55.992  1.00  0.00     0.038 A 
HETATM   18  C   UNL     1       4.028  35.154  56.551  1.00  0.00     0.003 A 
HETATM   19  C   UNL     1       4.739  34.803  57.697  1.00  0.00     0.001 A 
HETATM   20  C   UNL     1       4.557  33.545  58.278  1.00  0.00     0.019 A 
BRANCH  16  21
HETATM   21  O   UNL     1       2.040  32.156  55.965  1.00  0.00    -0.355 OA
HETATM   22  C   UNL     1       2.120  32.301  54.546  1.00  0.00     0.210 C 
ENDBRANCH  16  21
ENDBRANCH  12  15
ENDBRANCH   9  11
ENDBRANCH   7   9
ENDBRANCH   1   7
BRANCH   2  23
HETATM   23  N   UNL     1       7.680  27.742  56.379  1.00  0.00    -0.376 N 
HETATM   24  C   UNL     1       8.210  26.424  56.776  1.00  0.00     0.143 C 
HETATM   25  C   UNL     1       7.393  25.333  56.041  1.00  0.00     0.146 C 
HETATM   26  N   UNL     1       7.391  25.560  54.584  1.00  0.00    -0.345 N 
HETATM   27  C   UNL     1       7.867  24.659  53.644  1.00  0.00     0.253 C 
HETATM   28  C   UNL     1       7.028  26.919  54.161  1.00  0.00     0.146 C 
HETATM   29  O   UNL     1       8.241  24.979  52.521  1.00  0.00    -0.267 OA
HETATM   30  C   UNL     1       7.820  27.992  54.926  1.00  0.00     0.143 C 
BRANCH  27  31
HETATM   31  C   UNL     1       7.878  23.226  54.006  1.00  0.00     0.032 A 
HETATM   32  C   UNL     1       7.781  22.849  55.352  1.00  0.00     0.017 A 
HETATM   33  C   UNL     1       7.764  21.496  55.689  1.00  0.00     0.001 A 
HETATM   34  C   UNL     1       7.838  20.529  54.685  1.00  0.00     0.000 A 
HETATM   35  C   UNL     1       7.918  20.910  53.342  1.00  0.00     0.001 A 
HETATM   36  C   UNL     1       7.929  22.262  52.998  1.00  0.00     0.017 A 
ENDBRANCH  27  31
ENDBRANCH   2  23
TORSDOF 7
ENDMDL
