MODEL 1
REMARK VINA RESULT:      -9.3      0.000      0.000
REMARK  8 active torsions:
REMARK  status: ('A' for Active; 'I' for Inactive)
REMARK    1  A    between atoms: C_2  and  C_3 
REMARK    2  A    between atoms: C_3  and  C_4 
REMARK       I    between atoms: C_4  and  N_5 
REMARK    3  A    between atoms: N_8  and  C_9 
REMARK    4  A    between atoms: C_13  and  N_14 
REMARK    5  A    between atoms: N_14  and  C_15 
REMARK    6  A    between atoms: C_15  and  N_16 
REMARK       I    between atoms: N_16  and  C_17 
REMARK    7  A    between atoms: C_17  and  C_18 
REMARK    8  A    between atoms: C_19  and  O_20 
ROOT
HETATM    1  C   UNL     1       7.199  29.294  56.312  1.00  0.00     0.052 A 
HETATM    2  C   UNL     1       8.343  29.013  55.524  1.00  0.00     0.062 A 
HETATM    3 CL   UNL     1       9.907  29.671  55.900  1.00  0.00    -0.082 Cl
HETATM    4  C   UNL     1       8.257  28.270  54.332  1.00  0.00     0.055 A 
HETATM    5  C   UNL     1       7.017  27.856  53.855  1.00  0.00     0.036 A 
HETATM    6  C   UNL     1       5.888  28.075  54.639  1.00  0.00     0.032 A 
HETATM    7  C   UNL     1       5.982  28.772  55.847  1.00  0.00     0.033 A 
ENDROOT
BRANCH   5   8
HETATM    8  N   UNL     1       6.949  27.196  52.613  1.00  0.00    -0.333 N 
HETATM    9  H   UNL     1       7.529  27.568  51.859  1.00  0.00     0.168 HD
BRANCH   8  10
HETATM   10  C   UNL     1       6.021  26.270  52.194  1.00  0.00     0.179 C 
HETATM   11  S   UNL     1       4.660  26.520  51.247  1.00  0.00    -0.040 SA
BRANCH  10  12
HETATM   12  N   UNL     1       6.253  24.974  52.596  1.00  0.00    -0.299 N 
HETATM   13  C   UNL     1       7.435  24.250  52.571  1.00  0.00     0.260 C 
HETATM   14  O   UNL     1       8.341  24.486  51.776  1.00  0.00    -0.267 OA
HETATM   15  H   UNL     1       5.508  24.604  53.176  1.00  0.00     0.171 HD
BRANCH  13  16
HETATM   16  C   UNL     1       7.542  23.112  53.546  1.00  0.00     0.065 A 
HETATM   17  C   UNL     1       7.337  23.236  54.935  1.00  0.00     0.084 A 
HETATM   18  C   UNL     1       7.471  22.117  55.767  1.00  0.00     0.038 A 
HETATM   19  C   UNL     1       7.854  20.886  55.237  1.00  0.00     0.003 A 
HETATM   20  C   UNL     1       8.086  20.760  53.870  1.00  0.00     0.001 A 
HETATM   21  C   UNL     1       7.928  21.863  53.029  1.00  0.00     0.020 A 
BRANCH  17  22
HETATM   22  O   UNL     1       6.928  24.438  55.458  1.00  0.00    -0.355 OA
HETATM   23  C   UNL     1       7.878  25.022  56.354  1.00  0.00     0.210 C 
ENDBRANCH  17  22
ENDBRANCH  13  16
ENDBRANCH  10  12
ENDBRANCH   8  10
ENDBRANCH   5   8
BRANCH   1  24
HETATM   24  N   UNL     1       7.248  30.108  57.454  1.00  0.00    -0.376 N 
HETATM   25  C   UNL     1       7.984  29.570  58.616  1.00  0.00     0.143 C 
HETATM   26  C   UNL     1       8.370  30.729  59.561  1.00  0.00     0.145 C 
HETATM   27  N   UNL     1       7.227  31.585  59.929  1.00  0.00    -0.349 N 
HETATM   28  C   UNL     1       7.232  32.447  61.024  1.00  0.00     0.219 C 
HETATM   29  C   UNL     1       6.338  31.957  58.821  1.00  0.00     0.145 C 
HETATM   30  O   UNL     1       6.342  33.282  61.195  1.00  0.00    -0.273 OA
HETATM   31  C   UNL     1       6.008  30.797  57.872  1.00  0.00     0.143 C 
BRANCH  28  32
HETATM   32  C   UNL     1       8.385  32.310  62.006  1.00  0.00     0.103 C 
BRANCH  32  33
HETATM   33  C   UNL     1       7.898  31.934  63.406  1.00  0.00     0.005 C 
HETATM   34  C   UNL     1       7.628  33.164  64.257  1.00  0.00     0.005 C 
ENDBRANCH  32  33
ENDBRANCH  28  32
ENDBRANCH   1  24
TORSDOF 8
ENDMDL
MODEL 2
REMARK VINA RESULT:      -9.2      1.408      1.991
REMARK  8 active torsions:
REMARK  status: ('A' for Active; 'I' for Inactive)
REMARK    1  A    between atoms: C_2  and  C_3 
REMARK    2  A    between atoms: C_3  and  C_4 
REMARK       I    between atoms: C_4  and  N_5 
REMARK    3  A    between atoms: N_8  and  C_9 
REMARK    4  A    between atoms: C_13  and  N_14 
REMARK    5  A    between atoms: N_14  and  C_15 
REMARK    6  A    between atoms: C_15  and  N_16 
REMARK       I    between atoms: N_16  and  C_17 
REMARK    7  A    between atoms: C_17  and  C_18 
REMARK    8  A    between atoms: C_19  and  O_20 
ROOT
HETATM    1  C   UNL     1       7.703  29.710  58.065  1.00  0.00     0.052 A 
HETATM    2  C   UNL     1       8.827  29.763  57.204  1.00  0.00     0.062 A 
HETATM    3 CL   UNL     1      10.178  30.812  57.515  1.00  0.00    -0.082 Cl
HETATM    4  C   UNL     1       8.867  29.050  55.993  1.00  0.00     0.055 A 
HETATM    5  C   UNL     1       7.756  28.325  55.572  1.00  0.00     0.036 A 
HETATM    6  C   UNL     1       6.662  28.215  56.426  1.00  0.00     0.032 A 
HETATM    7  C   UNL     1       6.643  28.888  57.651  1.00  0.00     0.033 A 
ENDROOT
BRANCH   5   8
HETATM    8  N   UNL     1       7.788  27.696  54.312  1.00  0.00    -0.333 N 
HETATM    9  H   UNL     1       8.620  27.848  53.740  1.00  0.00     0.168 HD
BRANCH   8  10
HETATM   10  C   UNL     1       6.747  27.107  53.631  1.00  0.00     0.179 C 
HETATM   11  S   UNL     1       5.512  27.852  52.776  1.00  0.00    -0.040 SA
BRANCH  10  12
HETATM   12  N   UNL     1       6.731  25.730  53.648  1.00  0.00    -0.299 N 
HETATM   13  C   UNL     1       7.651  24.840  53.121  1.00  0.00     0.260 C 
HETATM   14  O   UNL     1       8.377  25.121  52.170  1.00  0.00    -0.267 OA
HETATM   15  H   UNL     1       6.072  25.355  54.322  1.00  0.00     0.171 HD
BRANCH  13  16
HETATM   16  C   UNL     1       7.691  23.473  53.742  1.00  0.00     0.065 A 
HETATM   17  C   UNL     1       7.655  23.232  55.131  1.00  0.00     0.084 A 
HETATM   18  C   UNL     1       7.708  21.919  55.617  1.00  0.00     0.038 A 
HETATM   19  C   UNL     1       7.846  20.847  54.738  1.00  0.00     0.003 A 
HETATM   20  C   UNL     1       7.912  21.076  53.366  1.00  0.00     0.001 A 
HETATM   21  C   UNL     1       7.831  22.379  52.871  1.00  0.00     0.020 A 
BRANCH  17  22
HETATM   22  O   UNL     1       7.486  24.282  56.000  1.00  0.00    -0.355 OA
HETATM   23  C   UNL     1       8.516  24.373  56.990  1.00  0.00     0.210 C 
ENDBRANCH  17  22
ENDBRANCH  13  16
ENDBRANCH  10  12
ENDBRANCH   8  10
ENDBRANCH   5   8
BRANCH   1  24
HETATM   24  N   UNL     1       7.604  30.484  59.231  1.00  0.00    -0.376 N 
HETATM   25  C   UNL     1       7.034  31.839  59.078  1.00  0.00     0.143 C 
HETATM   26  C   UNL     1       6.538  32.346  60.449  1.00  0.00     0.145 C 
HETATM   27  N   UNL     1       7.557  32.250  61.509  1.00  0.00    -0.349 N 
HETATM   28  C   UNL     1       7.492  32.958  62.707  1.00  0.00     0.219 C 
HETATM   29  C   UNL     1       8.307  30.987  61.548  1.00  0.00     0.145 C 
HETATM   30  O   UNL     1       8.253  32.716  63.646  1.00  0.00    -0.273 OA
HETATM   31  C   UNL     1       8.749  30.483  60.168  1.00  0.00     0.143 C 
BRANCH  28  32
HETATM   32  C   UNL     1       6.438  34.050  62.808  1.00  0.00     0.103 C 
BRANCH  32  33
HETATM   33  C   UNL     1       6.125  34.406  64.262  1.00  0.00     0.005 C 
HETATM   34  C   UNL     1       5.030  33.521  64.834  1.00  0.00     0.005 C 
ENDBRANCH  32  33
ENDBRANCH  28  32
ENDBRANCH   1  24
TORSDOF 8
ENDMDL
MODEL 3
REMARK VINA RESULT:      -9.2      2.746     10.766
REMARK  8 active torsions:
REMARK  status: ('A' for Active; 'I' for Inactive)
REMARK    1  A    between atoms: C_2  and  C_3 
REMARK    2  A    between atoms: C_3  and  C_4 
REMARK       I    between atoms: C_4  and  N_5 
REMARK    3  A    between atoms: N_8  and  C_9 
REMARK    4  A    between atoms: C_13  and  N_14 
REMARK    5  A    between atoms: N_14  and  C_15 
REMARK    6  A    between atoms: C_15  and  N_16 
REMARK       I    between atoms: N_16  and  C_17 
REMARK    7  A    between atoms: C_17  and  C_18 
REMARK    8  A    between atoms: C_19  and  O_20 
ROOT
HETATM    1  C   UNL     1       6.992  28.113  57.030  1.00  0.00     0.052 A 
HETATM    2  C   UNL     1       5.866  28.973  57.043  1.00  0.00     0.062 A 
HETATM    3 CL   UNL     1       4.462  28.669  56.064  1.00  0.00    -0.082 Cl
HETATM    4  C   UNL     1       5.863  30.179  57.768  1.00  0.00     0.055 A 
HETATM    5  C   UNL     1       7.011  30.595  58.436  1.00  0.00     0.036 A 
HETATM    6  C   UNL     1       8.109  29.742  58.481  1.00  0.00     0.032 A 
HETATM    7  C   UNL     1       8.094  28.521  57.799  1.00  0.00     0.033 A 
ENDROOT
BRANCH   5   8
HETATM    8  N   UNL     1       7.011  31.850  59.076  1.00  0.00    -0.333 N 
HETATM    9  H   UNL     1       7.906  32.189  59.431  1.00  0.00     0.168 HD
BRANCH   8  10
HETATM   10  C   UNL     1       5.928  32.576  59.517  1.00  0.00     0.179 C 
HETATM   11  S   UNL     1       4.831  33.459  58.608  1.00  0.00    -0.040 SA
BRANCH  10  12
HETATM   12  N   UNL     1       5.718  32.561  60.878  1.00  0.00    -0.299 N 
HETATM   13  C   UNL     1       6.581  32.172  61.890  1.00  0.00     0.260 C 
HETATM   14  O   UNL     1       7.485  31.360  61.716  1.00  0.00    -0.267 OA
HETATM   15  H   UNL     1       4.911  33.108  61.155  1.00  0.00     0.171 HD
BRANCH  13  16
HETATM   16  C   UNL     1       6.326  32.762  63.248  1.00  0.00     0.065 A 
HETATM   17  C   UNL     1       5.043  33.031  63.768  1.00  0.00     0.084 A 
HETATM   18  C   UNL     1       4.907  33.593  65.044  1.00  0.00     0.038 A 
HETATM   19  C   UNL     1       6.035  33.936  65.787  1.00  0.00     0.003 A 
HETATM   20  C   UNL     1       7.306  33.701  65.271  1.00  0.00     0.001 A 
HETATM   21  C   UNL     1       7.451  33.115  64.012  1.00  0.00     0.020 A 
BRANCH  17  22
HETATM   22  O   UNL     1       3.929  32.665  63.053  1.00  0.00    -0.355 OA
HETATM   23  C   UNL     1       2.985  33.727  62.886  1.00  0.00     0.210 C 
ENDBRANCH  17  22
ENDBRANCH  13  16
ENDBRANCH  10  12
ENDBRANCH   8  10
ENDBRANCH   5   8
BRANCH   1  24
HETATM   24  N   UNL     1       7.051  26.953  56.243  1.00  0.00    -0.376 N 
HETATM   25  C   UNL     1       7.821  25.819  56.795  1.00  0.00     0.143 C 
HETATM   26  C   UNL     1       7.387  24.513  56.094  1.00  0.00     0.145 C 
HETATM   27  N   UNL     1       7.432  24.599  54.624  1.00  0.00    -0.349 N 
HETATM   28  C   UNL     1       7.447  23.484  53.788  1.00  0.00     0.219 C 
HETATM   29  C   UNL     1       6.872  25.829  54.048  1.00  0.00     0.145 C 
HETATM   30  O   UNL     1       7.294  23.586  52.569  1.00  0.00    -0.273 OA
HETATM   31  C   UNL     1       7.283  27.107  54.791  1.00  0.00     0.143 C 
BRANCH  28  32
HETATM   32  C   UNL     1       7.662  22.130  54.445  1.00  0.00     0.103 C 
BRANCH  32  33
HETATM   33  C   UNL     1       8.850  21.385  53.835  1.00  0.00     0.005 C 
HETATM   34  C   UNL     1       8.406  20.398  52.768  1.00  0.00     0.005 C 
ENDBRANCH  32  33
ENDBRANCH  28  32
ENDBRANCH   1  24
TORSDOF 8
ENDMDL
MODEL 4
REMARK VINA RESULT:      -9.1      2.651     10.724
REMARK  8 active torsions:
REMARK  status: ('A' for Active; 'I' for Inactive)
REMARK    1  A    between atoms: C_2  and  C_3 
REMARK    2  A    between atoms: C_3  and  C_4 
REMARK       I    between atoms: C_4  and  N_5 
REMARK    3  A    between atoms: N_8  and  C_9 
REMARK    4  A    between atoms: C_13  and  N_14 
REMARK    5  A    between atoms: N_14  and  C_15 
REMARK    6  A    between atoms: C_15  and  N_16 
REMARK       I    between atoms: N_16  and  C_17 
REMARK    7  A    between atoms: C_17  and  C_18 
REMARK    8  A    between atoms: C_19  and  O_20 
ROOT
HETATM    1  C   UNL     1       6.797  28.201  56.899  1.00  0.00     0.052 A 
HETATM    2  C   UNL     1       7.862  29.075  57.230  1.00  0.00     0.062 A 
HETATM    3 CL   UNL     1       9.527  28.600  57.076  1.00  0.00    -0.082 Cl
HETATM    4  C   UNL     1       7.633  30.340  57.802  1.00  0.00     0.055 A 
HETATM    5  C   UNL     1       6.339  30.733  58.130  1.00  0.00     0.036 A 
HETATM    6  C   UNL     1       5.275  29.914  57.766  1.00  0.00     0.032 A 
HETATM    7  C   UNL     1       5.502  28.678  57.154  1.00  0.00     0.033 A 
ENDROOT
BRANCH   5   8
HETATM    8  N   UNL     1       6.146  31.964  58.788  1.00  0.00    -0.333 N 
HETATM    9  H   UNL     1       6.946  32.596  58.832  1.00  0.00     0.168 HD
BRANCH   8  10
HETATM   10  C   UNL     1       5.101  32.335  59.603  1.00  0.00     0.179 C 
HETATM   11  S   UNL     1       3.556  32.812  59.158  1.00  0.00    -0.040 SA
BRANCH  10  12
HETATM   12  N   UNL     1       5.359  32.294  60.955  1.00  0.00    -0.299 N 
HETATM   13  C   UNL     1       6.482  32.725  61.642  1.00  0.00     0.260 C 
HETATM   14  O   UNL     1       7.595  32.786  61.125  1.00  0.00    -0.267 OA
HETATM   15  H   UNL     1       4.526  32.127  61.508  1.00  0.00     0.171 HD
BRANCH  13  16
HETATM   16  C   UNL     1       6.286  33.075  63.090  1.00  0.00     0.065 A 
HETATM   17  C   UNL     1       5.027  33.232  63.704  1.00  0.00     0.084 A 
HETATM   18  C   UNL     1       4.945  33.571  65.061  1.00  0.00     0.038 A 
HETATM   19  C   UNL     1       6.103  33.802  65.801  1.00  0.00     0.003 A 
HETATM   20  C   UNL     1       7.351  33.677  65.196  1.00  0.00     0.001 A 
HETATM   21  C   UNL     1       7.443  33.312  63.852  1.00  0.00     0.020 A 
BRANCH  17  22
HETATM   22  O   UNL     1       3.884  32.974  62.989  1.00  0.00    -0.355 OA
HETATM   23  C   UNL     1       2.957  34.064  62.982  1.00  0.00     0.210 C 
ENDBRANCH  17  22
ENDBRANCH  13  16
ENDBRANCH  10  12
ENDBRANCH   8  10
ENDBRANCH   5   8
BRANCH   1  24
HETATM   24  N   UNL     1       7.007  26.902  56.413  1.00  0.00    -0.376 N 
HETATM   25  C   UNL     1       6.613  26.651  55.010  1.00  0.00     0.143 C 
HETATM   26  C   UNL     1       7.341  25.393  54.490  1.00  0.00     0.145 C 
HETATM   27  N   UNL     1       7.178  24.220  55.369  1.00  0.00    -0.349 N 
HETATM   28  C   UNL     1       7.414  22.911  54.957  1.00  0.00     0.219 C 
HETATM   29  C   UNL     1       7.341  24.484  56.805  1.00  0.00     0.145 C 
HETATM   30  O   UNL     1       7.452  21.976  55.760  1.00  0.00    -0.273 OA
HETATM   31  C   UNL     1       6.647  25.764  57.286  1.00  0.00     0.143 C 
BRANCH  28  32
HETATM   32  C   UNL     1       7.620  22.681  53.468  1.00  0.00     0.103 C 
BRANCH  32  33
HETATM   33  C   UNL     1       8.819  21.771  53.194  1.00  0.00     0.005 C 
HETATM   34  C   UNL     1       8.384  20.356  52.851  1.00  0.00     0.005 C 
ENDBRANCH  32  33
ENDBRANCH  28  32
ENDBRANCH   1  24
TORSDOF 8
ENDMDL
MODEL 5
REMARK VINA RESULT:      -9.1      3.303      5.547
REMARK  8 active torsions:
REMARK  status: ('A' for Active; 'I' for Inactive)
REMARK    1  A    between atoms: C_2  and  C_3 
REMARK    2  A    between atoms: C_3  and  C_4 
REMARK       I    between atoms: C_4  and  N_5 
REMARK    3  A    between atoms: N_8  and  C_9 
REMARK    4  A    between atoms: C_13  and  N_14 
REMARK    5  A    between atoms: N_14  and  C_15 
REMARK    6  A    between atoms: C_15  and  N_16 
REMARK       I    between atoms: N_16  and  C_17 
REMARK    7  A    between atoms: C_17  and  C_18 
REMARK    8  A    between atoms: C_19  and  O_20 
ROOT
HETATM    1  C   UNL     1       7.232  31.942  61.186  1.00  0.00     0.052 A 
HETATM    2  C   UNL     1       6.545  32.253  59.986  1.00  0.00     0.062 A 
HETATM    3 CL   UNL     1       5.175  33.323  59.959  1.00  0.00    -0.082 Cl
HETATM    4  C   UNL     1       6.867  31.632  58.765  1.00  0.00     0.055 A 
HETATM    5  C   UNL     1       7.830  30.628  58.725  1.00  0.00     0.036 A 
HETATM    6  C   UNL     1       8.553  30.344  59.879  1.00  0.00     0.032 A 
HETATM    7  C   UNL     1       8.265  30.996  61.081  1.00  0.00     0.033 A 
ENDROOT
BRANCH   5   8
HETATM    8  N   UNL     1       8.066  29.958  57.509  1.00  0.00    -0.333 N 
HETATM    9  H   UNL     1       7.253  29.759  56.924  1.00  0.00     0.168 HD
BRANCH   8  10
HETATM   10  C   UNL     1       9.210  29.306  57.108  1.00  0.00     0.179 C 
HETATM   11  S   UNL     1      10.774  29.906  57.031  1.00  0.00    -0.040 SA
BRANCH  10  12
HETATM   12  N   UNL     1       9.044  27.990  56.738  1.00  0.00    -0.299 N 
HETATM   13  C   UNL     1       8.170  27.044  57.247  1.00  0.00     0.260 C 
HETATM   14  O   UNL     1       7.737  27.090  58.396  1.00  0.00    -0.267 OA
HETATM   15  H   UNL     1       9.468  27.780  55.841  1.00  0.00     0.171 HD
BRANCH  13  16
HETATM   16  C   UNL     1       7.807  25.909  56.332  1.00  0.00     0.065 A 
HETATM   17  C   UNL     1       7.008  26.045  55.179  1.00  0.00     0.084 A 
HETATM   18  C   UNL     1       6.713  24.924  54.392  1.00  0.00     0.038 A 
HETATM   19  C   UNL     1       7.165  23.660  54.769  1.00  0.00     0.003 A 
HETATM   20  C   UNL     1       7.931  23.511  55.922  1.00  0.00     0.001 A 
HETATM   21  C   UNL     1       8.253  24.627  56.696  1.00  0.00     0.020 A 
BRANCH  17  22
HETATM   22  O   UNL     1       6.588  27.292  54.785  1.00  0.00    -0.355 OA
HETATM   23  C   UNL     1       7.267  27.782  53.626  1.00  0.00     0.210 C 
ENDBRANCH  17  22
ENDBRANCH  13  16
ENDBRANCH  10  12
ENDBRANCH   8  10
ENDBRANCH   5   8
BRANCH   1  24
HETATM   24  N   UNL     1       6.869  32.480  62.429  1.00  0.00    -0.376 N 
HETATM   25  C   UNL     1       7.923  32.522  63.464  1.00  0.00     0.143 C 
HETATM   26  C   UNL     1       7.541  33.555  64.545  1.00  0.00     0.145 C 
HETATM   27  N   UNL     1       6.186  33.355  65.089  1.00  0.00    -0.349 N 
HETATM   28  C   UNL     1       5.752  33.901  66.295  1.00  0.00     0.219 C 
HETATM   29  C   UNL     1       5.142  33.084  64.092  1.00  0.00     0.145 C 
HETATM   30  O   UNL     1       4.566  33.874  66.629  1.00  0.00    -0.273 OA
HETATM   31  C   UNL     1       5.564  32.089  63.004  1.00  0.00     0.143 C 
BRANCH  28  32
HETATM   32  C   UNL     1       6.809  34.532  67.189  1.00  0.00     0.103 C 
BRANCH  32  33
HETATM   33  C   UNL     1       6.517  34.293  68.671  1.00  0.00     0.005 C 
HETATM   34  C   UNL     1       7.439  35.106  69.564  1.00  0.00     0.005 C 
ENDBRANCH  32  33
ENDBRANCH  28  32
ENDBRANCH   1  24
TORSDOF 8
ENDMDL
MODEL 6
REMARK VINA RESULT:      -8.8      2.664     10.006
REMARK  8 active torsions:
REMARK  status: ('A' for Active; 'I' for Inactive)
REMARK    1  A    between atoms: C_2  and  C_3 
REMARK    2  A    between atoms: C_3  and  C_4 
REMARK       I    between atoms: C_4  and  N_5 
REMARK    3  A    between atoms: N_8  and  C_9 
REMARK    4  A    between atoms: C_13  and  N_14 
REMARK    5  A    between atoms: N_14  and  C_15 
REMARK    6  A    between atoms: C_15  and  N_16 
REMARK       I    between atoms: N_16  and  C_17 
REMARK    7  A    between atoms: C_17  and  C_18 
REMARK    8  A    between atoms: C_19  and  O_20 
ROOT
HETATM    1  C   UNL     1       6.194  28.231  56.537  1.00  0.00     0.052 A 
HETATM    2  C   UNL     1       6.907  29.275  57.177  1.00  0.00     0.062 A 
HETATM    3 CL   UNL     1       8.602  29.147  57.538  1.00  0.00    -0.082 Cl
HETATM    4  C   UNL     1       6.260  30.430  57.654  1.00  0.00     0.055 A 
HETATM    5  C   UNL     1       4.875  30.539  57.572  1.00  0.00     0.036 A 
HETATM    6  C   UNL     1       4.162  29.552  56.900  1.00  0.00     0.032 A 
HETATM    7  C   UNL     1       4.811  28.426  56.385  1.00  0.00     0.033 A 
ENDROOT
BRANCH   5   8
HETATM    8  N   UNL     1       4.245  31.664  58.141  1.00  0.00    -0.333 N 
HETATM    9  H   UNL     1       3.236  31.604  58.288  1.00  0.00     0.168 HD
BRANCH   8  10
HETATM   10  C   UNL     1       4.755  32.933  58.296  1.00  0.00     0.179 C 
HETATM   11  S   UNL     1       4.776  34.187  57.184  1.00  0.00    -0.040 SA
BRANCH  10  12
HETATM   12  N   UNL     1       5.303  33.204  59.530  1.00  0.00    -0.299 N 
HETATM   13  C   UNL     1       4.993  32.654  60.763  1.00  0.00     0.260 C 
HETATM   14  O   UNL     1       3.888  32.185  61.022  1.00  0.00    -0.267 OA
HETATM   15  H   UNL     1       6.181  33.707  59.466  1.00  0.00     0.171 HD
BRANCH  13  16
HETATM   16  C   UNL     1       6.073  32.702  61.807  1.00  0.00     0.065 A 
HETATM   17  C   UNL     1       7.339  32.098  61.666  1.00  0.00     0.084 A 
HETATM   18  C   UNL     1       8.279  32.188  62.702  1.00  0.00     0.038 A 
HETATM   19  C   UNL     1       7.953  32.832  63.894  1.00  0.00     0.003 A 
HETATM   20  C   UNL     1       6.696  33.407  64.054  1.00  0.00     0.001 A 
HETATM   21  C   UNL     1       5.763  33.347  63.017  1.00  0.00     0.020 A 
BRANCH  17  22
HETATM   22  O   UNL     1       7.675  31.491  60.481  1.00  0.00    -0.355 OA
HETATM   23  C   UNL     1       8.829  32.062  59.857  1.00  0.00     0.210 C 
ENDBRANCH  17  22
ENDBRANCH  13  16
ENDBRANCH  10  12
ENDBRANCH   8  10
ENDBRANCH   5   8
BRANCH   1  24
HETATM   24  N   UNL     1       6.802  27.032  56.136  1.00  0.00    -0.376 N 
HETATM   25  C   UNL     1       6.331  26.446  54.864  1.00  0.00     0.143 C 
HETATM   26  C   UNL     1       7.394  25.463  54.327  1.00  0.00     0.145 C 
HETATM   27  N   UNL     1       7.814  24.459  55.321  1.00  0.00    -0.349 N 
HETATM   28  C   UNL     1       8.462  23.271  54.989  1.00  0.00     0.219 C 
HETATM   29  C   UNL     1       8.075  24.981  56.669  1.00  0.00     0.145 C 
HETATM   30  O   UNL     1       8.967  22.546  55.849  1.00  0.00    -0.273 OA
HETATM   31  C   UNL     1       7.029  25.989  57.160  1.00  0.00     0.143 C 
BRANCH  28  32
HETATM   32  C   UNL     1       8.519  22.904  53.514  1.00  0.00     0.103 C 
BRANCH  32  33
HETATM   33  C   UNL     1       7.763  21.606  53.223  1.00  0.00     0.005 C 
HETATM   34  C   UNL     1       8.711  20.432  53.046  1.00  0.00     0.005 C 
ENDBRANCH  32  33
ENDBRANCH  28  32
ENDBRANCH   1  24
TORSDOF 8
ENDMDL
MODEL 7
REMARK VINA RESULT:      -8.4      3.058     10.907
REMARK  8 active torsions:
REMARK  status: ('A' for Active; 'I' for Inactive)
REMARK    1  A    between atoms: C_2  and  C_3 
REMARK    2  A    between atoms: C_3  and  C_4 
REMARK       I    between atoms: C_4  and  N_5 
REMARK    3  A    between atoms: N_8  and  C_9 
REMARK    4  A    between atoms: C_13  and  N_14 
REMARK    5  A    between atoms: N_14  and  C_15 
REMARK    6  A    between atoms: C_15  and  N_16 
REMARK       I    between atoms: N_16  and  C_17 
REMARK    7  A    between atoms: C_17  and  C_18 
REMARK    8  A    between atoms: C_19  and  O_20 
ROOT
HETATM    1  C   UNL     1       7.458  28.982  56.685  1.00  0.00     0.052 A 
HETATM    2  C   UNL     1       8.654  29.574  57.163  1.00  0.00     0.062 A 
HETATM    3 CL   UNL     1      10.220  28.917  56.791  1.00  0.00    -0.082 Cl
HETATM    4  C   UNL     1       8.638  30.664  58.052  1.00  0.00     0.055 A 
HETATM    5  C   UNL     1       7.429  31.142  58.548  1.00  0.00     0.036 A 
HETATM    6  C   UNL     1       6.242  30.612  58.052  1.00  0.00     0.032 A 
HETATM    7  C   UNL     1       6.259  29.560  57.132  1.00  0.00     0.033 A 
ENDROOT
BRANCH   5   8
HETATM    8  N   UNL     1       7.445  32.173  59.508  1.00  0.00    -0.333 N 
HETATM    9  H   UNL     1       7.628  33.119  59.170  1.00  0.00     0.168 HD
BRANCH   8  10
HETATM   10  C   UNL     1       7.500  32.054  60.878  1.00  0.00     0.179 C 
HETATM   11  S   UNL     1       8.519  31.090  61.796  1.00  0.00    -0.040 SA
BRANCH  10  12
HETATM   12  N   UNL     1       6.612  32.840  61.578  1.00  0.00    -0.299 N 
HETATM   13  C   UNL     1       5.241  32.698  61.714  1.00  0.00     0.260 C 
HETATM   14  O   UNL     1       4.545  32.133  60.874  1.00  0.00    -0.267 OA
HETATM   15  H   UNL     1       7.071  33.457  62.238  1.00  0.00     0.171 HD
BRANCH  13  16
HETATM   16  C   UNL     1       4.622  33.322  62.933  1.00  0.00     0.065 A 
HETATM   17  C   UNL     1       5.222  33.333  64.209  1.00  0.00     0.084 A 
HETATM   18  C   UNL     1       4.561  33.931  65.290  1.00  0.00     0.038 A 
HETATM   19  C   UNL     1       3.289  34.475  65.124  1.00  0.00     0.003 A 
HETATM   20  C   UNL     1       2.676  34.444  63.875  1.00  0.00     0.001 A 
HETATM   21  C   UNL     1       3.339  33.875  62.785  1.00  0.00     0.020 A 
BRANCH  17  22
HETATM   22  O   UNL     1       6.488  32.828  64.370  1.00  0.00    -0.355 OA
HETATM   23  C   UNL     1       7.392  33.744  64.996  1.00  0.00     0.210 C 
ENDBRANCH  17  22
ENDBRANCH  13  16
ENDBRANCH  10  12
ENDBRANCH   8  10
ENDBRANCH   5   8
BRANCH   1  24
HETATM   24  N   UNL     1       7.451  27.839  55.871  1.00  0.00    -0.376 N 
HETATM   25  C   UNL     1       7.873  26.574  56.508  1.00  0.00     0.143 C 
HETATM   26  C   UNL     1       7.347  25.382  55.679  1.00  0.00     0.145 C 
HETATM   27  N   UNL     1       7.693  25.469  54.249  1.00  0.00    -0.349 N 
HETATM   28  C   UNL     1       7.661  24.379  53.381  1.00  0.00     0.219 C 
HETATM   29  C   UNL     1       7.496  26.788  53.634  1.00  0.00     0.145 C 
HETATM   30  O   UNL     1       7.771  24.519  52.161  1.00  0.00    -0.273 OA
HETATM   31  C   UNL     1       7.986  27.957  54.498  1.00  0.00     0.143 C 
BRANCH  28  32
HETATM   32  C   UNL     1       7.487  23.003  54.005  1.00  0.00     0.103 C 
BRANCH  32  33
HETATM   33  C   UNL     1       8.592  22.039  53.572  1.00  0.00     0.005 C 
HETATM   34  C   UNL     1       8.025  20.794  52.912  1.00  0.00     0.005 C 
ENDBRANCH  32  33
ENDBRANCH  28  32
ENDBRANCH   1  24
TORSDOF 8
ENDMDL
MODEL 8
REMARK VINA RESULT:      -8.4      1.875      2.460
REMARK  8 active torsions:
REMARK  status: ('A' for Active; 'I' for Inactive)
REMARK    1  A    between atoms: C_2  and  C_3 
REMARK    2  A    between atoms: C_3  and  C_4 
REMARK       I    between atoms: C_4  and  N_5 
REMARK    3  A    between atoms: N_8  and  C_9 
REMARK    4  A    between atoms: C_13  and  N_14 
REMARK    5  A    between atoms: N_14  and  C_15 
REMARK    6  A    between atoms: C_15  and  N_16 
REMARK       I    between atoms: N_16  and  C_17 
REMARK    7  A    between atoms: C_17  and  C_18 
REMARK    8  A    between atoms: C_19  and  O_20 
ROOT
HETATM    1  C   UNL     1       5.286  29.553  56.362  1.00  0.00     0.052 A 
HETATM    2  C   UNL     1       4.871  30.000  55.083  1.00  0.00     0.062 A 
HETATM    3 CL   UNL     1       4.576  31.680  54.745  1.00  0.00    -0.082 Cl
HETATM    4  C   UNL     1       4.570  29.100  54.044  1.00  0.00     0.055 A 
HETATM    5  C   UNL     1       4.602  27.729  54.278  1.00  0.00     0.036 A 
HETATM    6  C   UNL     1       5.059  27.267  55.508  1.00  0.00     0.032 A 
HETATM    7  C   UNL     1       5.402  28.163  56.525  1.00  0.00     0.033 A 
ENDROOT
BRANCH   5   8
HETATM    8  N   UNL     1       4.206  26.852  53.249  1.00  0.00    -0.333 N 
HETATM    9  H   UNL     1       3.228  26.561  53.239  1.00  0.00     0.168 HD
BRANCH   8  10
HETATM   10  C   UNL     1       5.009  26.127  52.397  1.00  0.00     0.179 C 
HETATM   11  S   UNL     1       5.176  26.291  50.737  1.00  0.00    -0.040 SA
BRANCH  10  12
HETATM   12  N   UNL     1       5.781  25.155  52.993  1.00  0.00    -0.299 N 
HETATM   13  C   UNL     1       7.113  25.206  53.369  1.00  0.00     0.260 C 
HETATM   14  O   UNL     1       7.929  25.945  52.823  1.00  0.00    -0.267 OA
HETATM   15  H   UNL     1       5.226  24.405  53.392  1.00  0.00     0.171 HD
BRANCH  13  16
HETATM   16  C   UNL     1       7.536  24.266  54.461  1.00  0.00     0.065 A 
HETATM   17  C   UNL     1       7.695  22.875  54.293  1.00  0.00     0.084 A 
HETATM   18  C   UNL     1       8.083  22.076  55.377  1.00  0.00     0.038 A 
HETATM   19  C   UNL     1       8.268  22.641  56.637  1.00  0.00     0.003 A 
HETATM   20  C   UNL     1       8.086  24.009  56.820  1.00  0.00     0.001 A 
HETATM   21  C   UNL     1       7.727  24.817  55.740  1.00  0.00     0.020 A 
BRANCH  17  22
HETATM   22  O   UNL     1       7.546  22.319  53.046  1.00  0.00    -0.355 OA
HETATM   23  C   UNL     1       7.954  20.949  52.981  1.00  0.00     0.210 C 
ENDBRANCH  17  22
ENDBRANCH  13  16
ENDBRANCH  10  12
ENDBRANCH   8  10
ENDBRANCH   5   8
BRANCH   1  24
HETATM   24  N   UNL     1       5.503  30.428  57.437  1.00  0.00    -0.376 N 
HETATM   25  C   UNL     1       6.691  30.161  58.275  1.00  0.00     0.143 C 
HETATM   26  C   UNL     1       7.063  31.438  59.059  1.00  0.00     0.145 C 
HETATM   27  N   UNL     1       5.931  32.015  59.805  1.00  0.00    -0.349 N 
HETATM   28  C   UNL     1       6.080  32.922  60.852  1.00  0.00     0.219 C 
HETATM   29  C   UNL     1       4.663  32.087  59.066  1.00  0.00     0.145 C 
HETATM   30  O   UNL     1       5.118  33.528  61.327  1.00  0.00    -0.273 OA
HETATM   31  C   UNL     1       4.340  30.823  58.260  1.00  0.00     0.143 C 
BRANCH  28  32
HETATM   32  C   UNL     1       7.488  33.133  61.388  1.00  0.00     0.103 C 
BRANCH  32  33
HETATM   33  C   UNL     1       7.789  32.212  62.571  1.00  0.00     0.005 C 
HETATM   34  C   UNL     1       7.819  32.976  63.884  1.00  0.00     0.005 C 
ENDBRANCH  32  33
ENDBRANCH  28  32
ENDBRANCH   1  24
TORSDOF 8
ENDMDL
MODEL 9
REMARK VINA RESULT:      -8.2      2.077      3.451
REMARK  8 active torsions:
REMARK  status: ('A' for Active; 'I' for Inactive)
REMARK    1  A    between atoms: C_2  and  C_3 
REMARK    2  A    between atoms: C_3  and  C_4 
REMARK       I    between atoms: C_4  and  N_5 
REMARK    3  A    between atoms: N_8  and  C_9 
REMARK    4  A    between atoms: C_13  and  N_14 
REMARK    5  A    between atoms: N_14  and  C_15 
REMARK    6  A    between atoms: C_15  and  N_16 
REMARK       I    between atoms: N_16  and  C_17 
REMARK    7  A    between atoms: C_17  and  C_18 
REMARK    8  A    between atoms: C_19  and  O_20 
ROOT
HETATM    1  C   UNL     1       7.457  30.659  58.847  1.00  0.00     0.052 A 
HETATM    2  C   UNL     1       6.419  30.574  57.886  1.00  0.00     0.062 A 
HETATM    3 CL   UNL     1       4.835  31.226  58.179  1.00  0.00    -0.082 Cl
HETATM    4  C   UNL     1       6.580  29.864  56.682  1.00  0.00     0.055 A 
HETATM    5  C   UNL     1       7.754  29.156  56.440  1.00  0.00     0.036 A 
HETATM    6  C   UNL     1       8.805  29.269  57.345  1.00  0.00     0.032 A 
HETATM    7  C   UNL     1       8.660  30.014  58.519  1.00  0.00     0.033 A 
ENDROOT
BRANCH   5   8
HETATM    8  N   UNL     1       7.853  28.378  55.271  1.00  0.00    -0.333 N 
HETATM    9  H   UNL     1       8.521  28.687  54.564  1.00  0.00     0.168 HD
BRANCH   8  10
HETATM   10  C   UNL     1       6.994  27.396  54.831  1.00  0.00     0.179 C 
HETATM   11  S   UNL     1       5.435  27.569  54.239  1.00  0.00    -0.040 SA
BRANCH  10  12
HETATM   12  N   UNL     1       7.491  26.112  54.872  1.00  0.00    -0.299 N 
HETATM   13  C   UNL     1       6.990  25.003  55.534  1.00  0.00     0.260 C 
HETATM   14  O   UNL     1       6.297  25.090  56.545  1.00  0.00    -0.267 OA
HETATM   15  H   UNL     1       8.179  25.935  54.148  1.00  0.00     0.171 HD
BRANCH  13  16
HETATM   16  C   UNL     1       7.379  23.662  54.980  1.00  0.00     0.065 A 
HETATM   17  C   UNL     1       7.248  23.296  53.624  1.00  0.00     0.084 A 
HETATM   18  C   UNL     1       7.629  22.015  53.204  1.00  0.00     0.038 A 
HETATM   19  C   UNL     1       8.093  21.079  54.126  1.00  0.00     0.003 A 
HETATM   20  C   UNL     1       8.199  21.421  55.471  1.00  0.00     0.001 A 
HETATM   21  C   UNL     1       7.848  22.704  55.895  1.00  0.00     0.020 A 
BRANCH  17  22
HETATM   22  O   UNL     1       6.823  24.224  52.707  1.00  0.00    -0.355 OA
HETATM   23  C   UNL     1       7.878  24.743  51.891  1.00  0.00     0.210 C 
ENDBRANCH  17  22
ENDBRANCH  13  16
ENDBRANCH  10  12
ENDBRANCH   8  10
ENDBRANCH   5   8
BRANCH   1  24
HETATM   24  N   UNL     1       7.288  31.284  60.092  1.00  0.00    -0.376 N 
HETATM   25  C   UNL     1       6.716  32.647  60.073  1.00  0.00     0.143 C 
HETATM   26  C   UNL     1       6.140  32.981  61.467  1.00  0.00     0.145 C 
HETATM   27  N   UNL     1       7.100  32.757  62.563  1.00  0.00    -0.349 N 
HETATM   28  C   UNL     1       6.962  33.313  63.832  1.00  0.00     0.219 C 
HETATM   29  C   UNL     1       7.857  31.500  62.488  1.00  0.00     0.145 C 
HETATM   30  O   UNL     1       7.673  32.958  64.776  1.00  0.00    -0.273 OA
HETATM   31  C   UNL     1       8.379  31.170  61.083  1.00  0.00     0.143 C 
BRANCH  28  32
HETATM   32  C   UNL     1       5.895  34.382  64.007  1.00  0.00     0.103 C 
BRANCH  32  33
HETATM   33  C   UNL     1       4.784  33.927  64.953  1.00  0.00     0.005 C 
HETATM   34  C   UNL     1       3.567  34.833  64.869  1.00  0.00     0.005 C 
ENDBRANCH  32  33
ENDBRANCH  28  32
ENDBRANCH   1  24
TORSDOF 8
ENDMDL
MODEL 10
REMARK VINA RESULT:      -8.1      2.397      2.776
REMARK  8 active torsions:
REMARK  status: ('A' for Active; 'I' for Inactive)
REMARK    1  A    between atoms: C_2  and  C_3 
REMARK    2  A    between atoms: C_3  and  C_4 
REMARK       I    between atoms: C_4  and  N_5 
REMARK    3  A    between atoms: N_8  and  C_9 
REMARK    4  A    between atoms: C_13  and  N_14 
REMARK    5  A    between atoms: N_14  and  C_15 
REMARK    6  A    between atoms: C_15  and  N_16 
REMARK       I    between atoms: N_16  and  C_17 
REMARK    7  A    between atoms: C_17  and  C_18 
REMARK    8  A    between atoms: C_19  and  O_20 
ROOT
HETATM    1  C   UNL     1       4.637  30.536  57.133  1.00  0.00     0.052 A 
HETATM    2  C   UNL     1       4.074  31.038  55.933  1.00  0.00     0.062 A 
HETATM    3 CL   UNL     1       3.494  32.671  55.799  1.00  0.00    -0.082 Cl
HETATM    4  C   UNL     1       3.856  30.213  54.815  1.00  0.00     0.055 A 
HETATM    5  C   UNL     1       4.122  28.848  54.891  1.00  0.00     0.036 A 
HETATM    6  C   UNL     1       4.724  28.345  56.040  1.00  0.00     0.032 A 
HETATM    7  C   UNL     1       4.984  29.176  57.134  1.00  0.00     0.033 A 
ENDROOT
BRANCH   5   8
HETATM    8  N   UNL     1       3.807  28.029  53.790  1.00  0.00    -0.333 N 
HETATM    9  H   UNL     1       2.823  27.789  53.658  1.00  0.00     0.168 HD
BRANCH   8  10
HETATM   10  C   UNL     1       4.667  27.295  53.005  1.00  0.00     0.179 C 
HETATM   11  S   UNL     1       5.103  27.565  51.409  1.00  0.00    -0.040 SA
BRANCH  10  12
HETATM   12  N   UNL     1       5.253  26.211  53.621  1.00  0.00    -0.299 N 
HETATM   13  C   UNL     1       5.379  24.910  53.163  1.00  0.00     0.260 C 
HETATM   14  O   UNL     1       4.599  24.412  52.355  1.00  0.00    -0.267 OA
HETATM   15  H   UNL     1       5.844  26.476  54.401  1.00  0.00     0.171 HD
BRANCH  13  16
HETATM   16  C   UNL     1       6.504  24.102  53.746  1.00  0.00     0.065 A 
HETATM   17  C   UNL     1       6.824  24.064  55.118  1.00  0.00     0.084 A 
HETATM   18  C   UNL     1       7.901  23.287  55.566  1.00  0.00     0.038 A 
HETATM   19  C   UNL     1       8.692  22.588  54.656  1.00  0.00     0.003 A 
HETATM   20  C   UNL     1       8.401  22.643  53.296  1.00  0.00     0.001 A 
HETATM   21  C   UNL     1       7.313  23.391  52.843  1.00  0.00     0.020 A 
BRANCH  17  22
HETATM   22  O   UNL     1       6.028  24.724  56.021  1.00  0.00    -0.355 OA
HETATM   23  C   UNL     1       6.762  25.329  57.091  1.00  0.00     0.210 C 
ENDBRANCH  17  22
ENDBRANCH  13  16
ENDBRANCH  10  12
ENDBRANCH   8  10
ENDBRANCH   5   8
BRANCH   1  24
HETATM   24  N   UNL     1       4.779  31.319  58.288  1.00  0.00    -0.376 N 
HETATM   25  C   UNL     1       6.096  31.274  58.958  1.00  0.00     0.143 C 
HETATM   26  C   UNL     1       6.253  32.514  59.864  1.00  0.00     0.145 C 
HETATM   27  N   UNL     1       5.124  32.705  60.792  1.00  0.00    -0.349 N 
HETATM   28  C   UNL     1       5.190  33.505  61.931  1.00  0.00     0.219 C 
HETATM   29  C   UNL     1       3.790  32.532  60.203  1.00  0.00     0.145 C 
HETATM   30  O   UNL     1       4.182  33.794  62.579  1.00  0.00    -0.273 OA
HETATM   31  C   UNL     1       3.674  31.319  59.271  1.00  0.00     0.143 C 
BRANCH  28  32
HETATM   32  C   UNL     1       6.565  34.006  62.345  1.00  0.00     0.103 C 
BRANCH  32  33
HETATM   33  C   UNL     1       7.235  33.066  63.348  1.00  0.00     0.005 C 
HETATM   34  C   UNL     1       7.343  33.699  64.726  1.00  0.00     0.005 C 
ENDBRANCH  32  33
ENDBRANCH  28  32
ENDBRANCH   1  24
TORSDOF 8
ENDMDL
