MODEL 1
REMARK VINA RESULT:     -10.5      0.000      0.000
REMARK  5 active torsions:
REMARK  status: ('A' for Active; 'I' for Inactive)
REMARK    1  A    between atoms: C_10  and  C_11 
REMARK    2  A    between atoms: C_13  and  O_14 
REMARK    3  A    between atoms: C_16  and  O_17 
REMARK    4  A    between atoms: O_17  and  C_18 
REMARK    5  A    between atoms: C_18  and  C_19 
ROOT
HETATM    1  C   UNL     1       6.895  30.215  57.978  1.00  0.00    -0.013 A 
HETATM    2  C   UNL     1       5.741  29.734  57.327  1.00  0.00     0.050 A 
HETATM    3  C   UNL     1       5.673  28.418  56.862  1.00  0.00     0.102 A 
HETATM    4  C   UNL     1       6.774  27.574  57.062  1.00  0.00     0.112 A 
HETATM    5  C   UNL     1       7.941  28.042  57.663  1.00  0.00     0.041 A 
HETATM    6  C   UNL     1       7.996  29.357  58.127  1.00  0.00     0.014 A 
ENDROOT
BRANCH   1   7
HETATM    7  C   UNL     1       6.957  31.636  58.505  1.00  0.00     0.219 A 
HETATM    8  N   UNL     1       7.876  31.713  59.618  1.00  0.00    -0.358 N 
HETATM    9  C   UNL     1       7.479  32.113  60.836  1.00  0.00     0.088 A 
HETATM   10  H   UNL     1       8.802  31.325  59.456  1.00  0.00     0.162 HD
HETATM   11  C   UNL     1       6.203  32.535  61.118  1.00  0.00     0.073 A 
HETATM   12  S   UNL     1       8.496  32.147  62.200  1.00  0.00    -0.074 SA
HETATM   13  C   UNL     1       6.056  32.905  62.494  1.00  0.00    -0.023 A 
HETATM   14  C   UNL     1       5.216  32.555  60.058  1.00  0.00     0.256 A 
HETATM   15  C   UNL     1       7.246  32.750  63.183  1.00  0.00     0.018 A 
HETATM   16  C   UNL     1       4.822  33.431  63.165  1.00  0.00     0.068 C 
HETATM   17  C   UNL     1       7.442  33.042  64.629  1.00  0.00     0.281 C 
HETATM   18  N   UNL     1       6.302  33.908  65.151  1.00  0.00    -0.070 N 
HETATM   19  C   UNL     1       6.378  34.101  66.633  1.00  0.00     0.270 C 
HETATM   20  H   UNL     1       6.426  34.830  64.711  1.00  0.00     0.279 HD
HETATM   21  C   UNL     1       4.942  33.381  64.699  1.00  0.00     0.239 C 
HETATM   22  N   UNL     1       5.640  32.114  58.841  1.00  0.00    -0.332 N 
HETATM   23  O   UNL     1       4.065  32.939  60.238  1.00  0.00    -0.267 OA
HETATM   24  H   UNL     1       4.940  32.116  58.113  1.00  0.00     0.165 HD
ENDBRANCH   1   7
BRANCH   3  25
HETATM   25  O   UNL     1       4.597  27.864  56.221  1.00  0.00    -0.353 OA
HETATM   26  C   UNL     1       4.259  28.374  54.939  1.00  0.00     0.210 C 
ENDBRANCH   3  25
BRANCH   4  27
HETATM   27  O   UNL     1       6.645  26.250  56.581  1.00  0.00    -0.272 OA
BRANCH  27  28
HETATM   28  C   UNL     1       7.261  25.861  55.407  1.00  0.00     0.300 C 
HETATM   29  O   UNL     1       7.494  26.513  54.406  1.00  0.00    -0.259 OA
BRANCH  28  30
HETATM   30  C   UNL     1       7.554  24.426  55.526  1.00  0.00     0.061 A 
HETATM   31  C   UNL     1       7.257  23.532  54.491  1.00  0.00     0.051 A 
HETATM   32 CL   UNL     1       6.510  24.036  53.017  1.00  0.00    -0.083 Cl
HETATM   33  C   UNL     1       7.536  22.173  54.649  1.00  0.00     0.048 A 
HETATM   34  C   UNL     1       8.102  21.717  55.839  1.00  0.00     0.035 A 
HETATM   35 CL   UNL     1       8.443  20.041  56.030  1.00  0.00    -0.084 Cl
HETATM   36  C   UNL     1       8.385  22.603  56.880  1.00  0.00     0.025 A 
HETATM   37  C   UNL     1       8.105  23.963  56.728  1.00  0.00     0.021 A 
ENDBRANCH  28  30
ENDBRANCH  27  28
ENDBRANCH   4  27
TORSDOF 5
ENDMDL
MODEL 2
REMARK VINA RESULT:     -10.5      4.775     10.272
REMARK  5 active torsions:
REMARK  status: ('A' for Active; 'I' for Inactive)
REMARK    1  A    between atoms: C_10  and  C_11 
REMARK    2  A    between atoms: C_13  and  O_14 
REMARK    3  A    between atoms: C_16  and  O_17 
REMARK    4  A    between atoms: O_17  and  C_18 
REMARK    5  A    between atoms: C_18  and  C_19 
ROOT
HETATM    1  C   UNL     1       6.044  28.389  57.481  1.00  0.00    -0.013 A 
HETATM    2  C   UNL     1       5.337  29.609  57.530  1.00  0.00     0.050 A 
HETATM    3  C   UNL     1       5.974  30.797  57.895  1.00  0.00     0.102 A 
HETATM    4  C   UNL     1       7.341  30.761  58.207  1.00  0.00     0.112 A 
HETATM    5  C   UNL     1       8.048  29.559  58.209  1.00  0.00     0.041 A 
HETATM    6  C   UNL     1       7.401  28.379  57.838  1.00  0.00     0.014 A 
ENDROOT
BRANCH   1   7
HETATM    7  C   UNL     1       5.354  27.106  57.059  1.00  0.00     0.219 A 
HETATM    8  N   UNL     1       6.145  25.964  57.460  1.00  0.00    -0.358 N 
HETATM    9  C   UNL     1       6.616  25.081  56.565  1.00  0.00     0.088 A 
HETATM   10  H   UNL     1       6.429  25.942  58.436  1.00  0.00     0.162 HD
HETATM   11  C   UNL     1       6.347  25.146  55.220  1.00  0.00     0.073 A 
HETATM   12  S   UNL     1       7.616  23.765  56.970  1.00  0.00    -0.074 SA
HETATM   13  C   UNL     1       6.974  24.079  54.500  1.00  0.00    -0.023 A 
HETATM   14  C   UNL     1       5.513  26.219  54.719  1.00  0.00     0.256 A 
HETATM   15  C   UNL     1       7.684  23.251  55.351  1.00  0.00     0.018 A 
HETATM   16  C   UNL     1       6.893  23.810  53.026  1.00  0.00     0.068 C 
HETATM   17  C   UNL     1       8.455  22.049  54.929  1.00  0.00     0.281 C 
HETATM   18  N   UNL     1       8.033  21.617  53.530  1.00  0.00    -0.070 N 
HETATM   19  C   UNL     1       8.888  20.505  53.006  1.00  0.00     0.270 C 
HETATM   20  H   UNL     1       7.076  21.255  53.625  1.00  0.00     0.279 HD
HETATM   21  C   UNL     1       7.965  22.803  52.571  1.00  0.00     0.239 C 
HETATM   22  N   UNL     1       5.076  27.117  55.646  1.00  0.00    -0.332 N 
HETATM   23  O   UNL     1       5.219  26.324  53.533  1.00  0.00    -0.267 OA
HETATM   24  H   UNL     1       4.509  27.870  55.284  1.00  0.00     0.165 HD
ENDBRANCH   1   7
BRANCH   3  25
HETATM   25  O   UNL     1       5.372  32.024  57.969  1.00  0.00    -0.353 OA
HETATM   26  C   UNL     1       4.159  32.119  58.702  1.00  0.00     0.210 C 
ENDBRANCH   3  25
BRANCH   4  27
HETATM   27  O   UNL     1       7.937  31.994  58.559  1.00  0.00    -0.272 OA
BRANCH  27  28
HETATM   28  C   UNL     1       8.945  32.049  59.502  1.00  0.00     0.300 C 
HETATM   29  O   UNL     1      10.141  31.863  59.365  1.00  0.00    -0.259 OA
BRANCH  28  30
HETATM   30  C   UNL     1       8.311  32.317  60.800  1.00  0.00     0.061 A 
HETATM   31  C   UNL     1       8.596  31.538  61.927  1.00  0.00     0.051 A 
HETATM   32 CL   UNL     1       9.687  30.200  61.877  1.00  0.00    -0.083 Cl
HETATM   33  C   UNL     1       7.960  31.816  63.139  1.00  0.00     0.048 A 
HETATM   34  C   UNL     1       7.041  32.863  63.214  1.00  0.00     0.035 A 
HETATM   35 CL   UNL     1       6.258  33.200  64.709  1.00  0.00    -0.084 Cl
HETATM   36  C   UNL     1       6.742  33.631  62.089  1.00  0.00     0.025 A 
HETATM   37  C   UNL     1       7.373  33.356  60.874  1.00  0.00     0.021 A 
ENDBRANCH  28  30
ENDBRANCH  27  28
ENDBRANCH   4  27
TORSDOF 5
ENDMDL
MODEL 3
REMARK VINA RESULT:     -10.2      1.386      2.096
REMARK  5 active torsions:
REMARK  status: ('A' for Active; 'I' for Inactive)
REMARK    1  A    between atoms: C_10  and  C_11 
REMARK    2  A    between atoms: C_13  and  O_14 
REMARK    3  A    between atoms: C_16  and  O_17 
REMARK    4  A    between atoms: O_17  and  C_18 
REMARK    5  A    between atoms: C_18  and  C_19 
ROOT
HETATM    1  C   UNL     1       7.246  29.348  57.586  1.00  0.00    -0.013 A 
HETATM    2  C   UNL     1       8.166  28.296  57.399  1.00  0.00     0.050 A 
HETATM    3  C   UNL     1       7.748  27.049  56.928  1.00  0.00     0.102 A 
HETATM    4  C   UNL     1       6.390  26.860  56.633  1.00  0.00     0.112 A 
HETATM    5  C   UNL     1       5.458  27.872  56.854  1.00  0.00     0.041 A 
HETATM    6  C   UNL     1       5.888  29.115  57.321  1.00  0.00     0.014 A 
ENDROOT
BRANCH   1   7
HETATM    7  C   UNL     1       7.707  30.708  58.073  1.00  0.00     0.219 A 
HETATM    8  N   UNL     1       8.392  30.576  59.339  1.00  0.00    -0.358 N 
HETATM    9  C   UNL     1       7.958  31.199  60.446  1.00  0.00     0.088 A 
HETATM   10  H   UNL     1       9.139  29.886  59.369  1.00  0.00     0.162 HD
HETATM   11  C   UNL     1       6.880  32.050  60.466  1.00  0.00     0.073 A 
HETATM   12  S   UNL     1       8.676  31.017  61.978  1.00  0.00    -0.074 SA
HETATM   13  C   UNL     1       6.640  32.574  61.776  1.00  0.00    -0.023 A 
HETATM   14  C   UNL     1       6.158  32.300  59.236  1.00  0.00     0.256 A 
HETATM   15  C   UNL     1       7.566  32.094  62.685  1.00  0.00     0.018 A 
HETATM   16  C   UNL     1       5.570  33.545  62.182  1.00  0.00     0.068 C 
HETATM   17  C   UNL     1       7.602  32.437  64.133  1.00  0.00     0.281 C 
HETATM   18  N   UNL     1       6.763  33.681  64.400  1.00  0.00    -0.070 N 
HETATM   19  C   UNL     1       6.649  33.975  65.864  1.00  0.00     0.270 C 
HETATM   20  H   UNL     1       7.272  34.461  63.966  1.00  0.00     0.279 HD
HETATM   21  C   UNL     1       5.403  33.602  63.712  1.00  0.00     0.239 C 
HETATM   22  N   UNL     1       6.602  31.630  58.136  1.00  0.00    -0.332 N 
HETATM   23  O   UNL     1       5.199  33.064  59.180  1.00  0.00    -0.267 OA
HETATM   24  H   UNL     1       6.081  31.799  57.288  1.00  0.00     0.165 HD
ENDBRANCH   1   7
BRANCH   3  25
HETATM   25  O   UNL     1       8.567  25.973  56.714  1.00  0.00    -0.353 OA
HETATM   26  C   UNL     1       8.709  25.033  57.770  1.00  0.00     0.210 C 
ENDBRANCH   3  25
BRANCH   4  27
HETATM   27  O   UNL     1       6.025  25.582  56.150  1.00  0.00    -0.272 OA
BRANCH  27  28
HETATM   28  C   UNL     1       5.796  25.373  54.805  1.00  0.00     0.300 C 
HETATM   29  O   UNL     1       5.035  25.955  54.052  1.00  0.00    -0.259 OA
BRANCH  28  30
HETATM   30  C   UNL     1       6.611  24.220  54.399  1.00  0.00     0.061 A 
HETATM   31  C   UNL     1       7.098  24.093  53.093  1.00  0.00     0.051 A 
HETATM   32 CL   UNL     1       6.762  25.257  51.861  1.00  0.00    -0.083 Cl
HETATM   33  C   UNL     1       7.856  22.974  52.743  1.00  0.00     0.048 A 
HETATM   34  C   UNL     1       8.117  21.989  53.695  1.00  0.00     0.035 A 
HETATM   35 CL   UNL     1       9.050  20.611  53.259  1.00  0.00    -0.084 Cl
HETATM   36  C   UNL     1       7.620  22.104  54.994  1.00  0.00     0.025 A 
HETATM   37  C   UNL     1       6.858  23.220  55.349  1.00  0.00     0.021 A 
ENDBRANCH  28  30
ENDBRANCH  27  28
ENDBRANCH   4  27
TORSDOF 5
ENDMDL
MODEL 4
REMARK VINA RESULT:      -9.8      7.454     11.577
REMARK  5 active torsions:
REMARK  status: ('A' for Active; 'I' for Inactive)
REMARK    1  A    between atoms: C_10  and  C_11 
REMARK    2  A    between atoms: C_13  and  O_14 
REMARK    3  A    between atoms: C_16  and  O_17 
REMARK    4  A    between atoms: O_17  and  C_18 
REMARK    5  A    between atoms: C_18  and  C_19 
ROOT
HETATM    1  C   UNL     1       4.941  27.327  50.283  1.00  0.00    -0.013 A 
HETATM    2  C   UNL     1       5.082  28.232  51.355  1.00  0.00     0.050 A 
HETATM    3  C   UNL     1       5.291  27.776  52.659  1.00  0.00     0.102 A 
HETATM    4  C   UNL     1       5.368  26.395  52.887  1.00  0.00     0.112 A 
HETATM    5  C   UNL     1       5.186  25.483  51.849  1.00  0.00     0.041 A 
HETATM    6  C   UNL     1       4.982  25.950  50.549  1.00  0.00     0.014 A 
ENDROOT
BRANCH   1   7
HETATM    7  C   UNL     1       4.740  27.825  48.864  1.00  0.00     0.219 A 
HETATM    8  N   UNL     1       3.951  29.036  48.872  1.00  0.00    -0.358 N 
HETATM    9  C   UNL     1       2.774  29.118  48.230  1.00  0.00     0.088 A 
HETATM   10  H   UNL     1       4.275  29.773  49.493  1.00  0.00     0.162 HD
HETATM   11  C   UNL     1       2.250  28.098  47.474  1.00  0.00     0.073 A 
HETATM   12  S   UNL     1       1.767  30.488  48.270  1.00  0.00    -0.074 SA
HETATM   13  C   UNL     1       0.986  28.455  46.904  1.00  0.00    -0.023 A 
HETATM   14  C   UNL     1       2.990  26.859  47.351  1.00  0.00     0.256 A 
HETATM   15  C   UNL     1       0.624  29.743  47.255  1.00  0.00     0.018 A 
HETATM   16  C   UNL     1       0.126  27.613  46.008  1.00  0.00     0.068 C 
HETATM   17  C   UNL     1      -0.631  30.425  46.834  1.00  0.00     0.281 C 
HETATM   18  N   UNL     1      -1.257  29.693  45.654  1.00  0.00    -0.070 N 
HETATM   19  C   UNL     1      -2.597  30.255  45.294  1.00  0.00     0.270 C 
HETATM   20  H   UNL     1      -0.628  29.855  44.857  1.00  0.00     0.279 HD
HETATM   21  C   UNL     1      -1.299  28.184  45.885  1.00  0.00     0.239 C 
HETATM   22  N   UNL     1       4.164  26.795  48.038  1.00  0.00    -0.332 N 
HETATM   23  O   UNL     1       2.587  25.917  46.676  1.00  0.00    -0.267 OA
HETATM   24  H   UNL     1       4.664  25.921  47.959  1.00  0.00     0.165 HD
ENDBRANCH   1   7
BRANCH   3  25
HETATM   25  O   UNL     1       5.440  28.578  53.759  1.00  0.00    -0.353 OA
HETATM   26  C   UNL     1       4.277  29.204  54.281  1.00  0.00     0.210 C 
ENDBRANCH   3  25
BRANCH   4  27
HETATM   27  O   UNL     1       5.591  25.991  54.224  1.00  0.00    -0.272 OA
BRANCH  27  28
HETATM   28  C   UNL     1       6.871  25.914  54.735  1.00  0.00     0.300 C 
HETATM   29  O   UNL     1       7.585  26.803  55.164  1.00  0.00    -0.259 OA
BRANCH  28  30
HETATM   30  C   UNL     1       7.303  24.515  54.618  1.00  0.00     0.061 A 
HETATM   31  C   UNL     1       7.990  24.054  53.489  1.00  0.00     0.051 A 
HETATM   32 CL   UNL     1       8.361  25.079  52.148  1.00  0.00    -0.083 Cl
HETATM   33  C   UNL     1       8.369  22.713  53.409  1.00  0.00     0.048 A 
HETATM   34  C   UNL     1       8.053  21.841  54.451  1.00  0.00     0.035 A 
HETATM   35 CL   UNL     1       8.520  20.188  54.347  1.00  0.00    -0.084 Cl
HETATM   36  C   UNL     1       7.354  22.292  55.571  1.00  0.00     0.025 A 
HETATM   37  C   UNL     1       6.970  23.633  55.654  1.00  0.00     0.021 A 
ENDBRANCH  28  30
ENDBRANCH  27  28
ENDBRANCH   4  27
TORSDOF 5
ENDMDL
MODEL 5
REMARK VINA RESULT:      -9.7      1.551      2.179
REMARK  5 active torsions:
REMARK  status: ('A' for Active; 'I' for Inactive)
REMARK    1  A    between atoms: C_10  and  C_11 
REMARK    2  A    between atoms: C_13  and  O_14 
REMARK    3  A    between atoms: C_16  and  O_17 
REMARK    4  A    between atoms: O_17  and  C_18 
REMARK    5  A    between atoms: C_18  and  C_19 
ROOT
HETATM    1  C   UNL     1       5.918  30.506  57.293  1.00  0.00    -0.013 A 
HETATM    2  C   UNL     1       6.994  29.850  56.660  1.00  0.00     0.050 A 
HETATM    3  C   UNL     1       6.830  28.585  56.090  1.00  0.00     0.102 A 
HETATM    4  C   UNL     1       5.569  27.976  56.149  1.00  0.00     0.112 A 
HETATM    5  C   UNL     1       4.504  28.588  56.809  1.00  0.00     0.041 A 
HETATM    6  C   UNL     1       4.678  29.854  57.371  1.00  0.00     0.014 A 
ENDROOT
BRANCH   1   7
HETATM    7  C   UNL     1       6.092  31.890  57.888  1.00  0.00     0.219 A 
HETATM    8  N   UNL     1       7.179  31.887  58.842  1.00  0.00    -0.358 N 
HETATM    9  C   UNL     1       6.990  32.214  60.131  1.00  0.00     0.088 A 
HETATM   10  H   UNL     1       8.059  31.500  58.510  1.00  0.00     0.162 HD
HETATM   11  C   UNL     1       5.784  32.630  60.639  1.00  0.00     0.073 A 
HETATM   12  S   UNL     1       8.213  32.151  61.312  1.00  0.00    -0.074 SA
HETATM   13  C   UNL     1       5.867  32.914  62.040  1.00  0.00    -0.023 A 
HETATM   14  C   UNL     1       4.641  32.727  59.755  1.00  0.00     0.256 A 
HETATM   15  C   UNL     1       7.148  32.703  62.518  1.00  0.00     0.018 A 
HETATM   16  C   UNL     1       4.767  33.409  62.932  1.00  0.00     0.068 C 
HETATM   17  C   UNL     1       7.579  32.901  63.929  1.00  0.00     0.281 C 
HETATM   18  N   UNL     1       6.555  33.744  64.679  1.00  0.00    -0.070 N 
HETATM   19  C   UNL     1       6.871  33.842  66.139  1.00  0.00     0.270 C 
HETATM   20  H   UNL     1       6.626  34.690  64.282  1.00  0.00     0.279 HD
HETATM   21  C   UNL     1       5.130  33.261  64.421  1.00  0.00     0.239 C 
HETATM   22  N   UNL     1       4.856  32.359  58.461  1.00  0.00    -0.332 N 
HETATM   23  O   UNL     1       3.542  33.111  60.141  1.00  0.00    -0.267 OA
HETATM   24  H   UNL     1       4.049  32.415  57.857  1.00  0.00     0.165 HD
ENDBRANCH   1   7
BRANCH   3  25
HETATM   25  O   UNL     1       7.814  27.874  55.456  1.00  0.00    -0.353 OA
HETATM   26  C   UNL     1       8.057  28.164  54.087  1.00  0.00     0.210 C 
ENDBRANCH   3  25
BRANCH   4  27
HETATM   27  O   UNL     1       5.458  26.702  55.547  1.00  0.00    -0.272 OA
BRANCH  27  28
HETATM   28  C   UNL     1       5.501  25.552  56.310  1.00  0.00     0.300 C 
HETATM   29  O   UNL     1       4.893  25.280  57.330  1.00  0.00    -0.259 OA
BRANCH  28  30
HETATM   30  C   UNL     1       6.509  24.669  55.709  1.00  0.00     0.061 A 
HETATM   31  C   UNL     1       7.741  24.435  56.331  1.00  0.00     0.051 A 
HETATM   32 CL   UNL     1       8.177  25.176  57.830  1.00  0.00    -0.083 Cl
HETATM   33  C   UNL     1       8.678  23.600  55.719  1.00  0.00     0.048 A 
HETATM   34  C   UNL     1       8.383  23.014  54.489  1.00  0.00     0.035 A 
HETATM   35 CL   UNL     1       9.542  21.988  53.737  1.00  0.00    -0.084 Cl
HETATM   36  C   UNL     1       7.163  23.257  53.857  1.00  0.00     0.025 A 
HETATM   37  C   UNL     1       6.223  24.093  54.464  1.00  0.00     0.021 A 
ENDBRANCH  28  30
ENDBRANCH  27  28
ENDBRANCH   4  27
TORSDOF 5
ENDMDL
MODEL 6
REMARK VINA RESULT:      -9.5      5.191     11.105
REMARK  5 active torsions:
REMARK  status: ('A' for Active; 'I' for Inactive)
REMARK    1  A    between atoms: C_10  and  C_11 
REMARK    2  A    between atoms: C_13  and  O_14 
REMARK    3  A    between atoms: C_16  and  O_17 
REMARK    4  A    between atoms: O_17  and  C_18 
REMARK    5  A    between atoms: C_18  and  C_19 
ROOT
HETATM    1  C   UNL     1       5.498  32.041  59.500  1.00  0.00    -0.013 A 
HETATM    2  C   UNL     1       6.210  32.366  60.672  1.00  0.00     0.050 A 
HETATM    3  C   UNL     1       5.541  32.732  61.843  1.00  0.00     0.102 A 
HETATM    4  C   UNL     1       4.139  32.762  61.838  1.00  0.00     0.112 A 
HETATM    5  C   UNL     1       3.418  32.488  60.677  1.00  0.00     0.041 A 
HETATM    6  C   UNL     1       4.097  32.120  59.514  1.00  0.00     0.014 A 
ENDROOT
BRANCH   1   7
HETATM    7  C   UNL     1       6.227  31.619  58.238  1.00  0.00     0.219 A 
HETATM    8  N   UNL     1       5.389  30.741  57.452  1.00  0.00    -0.358 N 
HETATM    9  C   UNL     1       5.767  29.489  57.148  1.00  0.00     0.088 A 
HETATM   10  H   UNL     1       4.451  31.080  57.256  1.00  0.00     0.162 HD
HETATM   11  C   UNL     1       6.984  28.957  57.498  1.00  0.00     0.073 A 
HETATM   12  S   UNL     1       4.791  28.386  56.296  1.00  0.00    -0.074 SA
HETATM   13  C   UNL     1       7.124  27.606  57.047  1.00  0.00    -0.023 A 
HETATM   14  C   UNL     1       7.925  29.775  58.236  1.00  0.00     0.256 A 
HETATM   15  C   UNL     1       5.996  27.187  56.364  1.00  0.00     0.018 A 
HETATM   16  C   UNL     1       8.314  26.710  57.222  1.00  0.00     0.068 C 
HETATM   17  C   UNL     1       5.809  25.837  55.765  1.00  0.00     0.281 C 
HETATM   18  N   UNL     1       7.151  25.126  55.640  1.00  0.00    -0.070 N 
HETATM   19  C   UNL     1       6.994  23.710  55.182  1.00  0.00     0.270 C 
HETATM   20  H   UNL     1       7.669  25.632  54.910  1.00  0.00     0.279 HD
HETATM   21  C   UNL     1       7.969  25.239  56.923  1.00  0.00     0.239 C 
HETATM   22  N   UNL     1       7.501  31.029  58.557  1.00  0.00    -0.332 N 
HETATM   23  O   UNL     1       9.035  29.367  58.563  1.00  0.00    -0.267 OA
HETATM   24  H   UNL     1       8.158  31.584  59.087  1.00  0.00     0.165 HD
ENDBRANCH   1   7
BRANCH   3  25
HETATM   25  O   UNL     1       6.146  33.062  63.026  1.00  0.00    -0.353 OA
HETATM   26  C   UNL     1       7.471  32.596  63.241  1.00  0.00     0.210 C 
ENDBRANCH   3  25
BRANCH   4  27
HETATM   27  O   UNL     1       3.514  33.128  63.052  1.00  0.00    -0.272 OA
BRANCH  27  28
HETATM   28  C   UNL     1       2.684  34.230  63.117  1.00  0.00     0.300 C 
HETATM   29  O   UNL     1       1.484  34.304  62.922  1.00  0.00    -0.259 OA
BRANCH  28  30
HETATM   30  C   UNL     1       3.530  35.395  63.410  1.00  0.00     0.061 A 
HETATM   31  C   UNL     1       4.014  35.641  64.700  1.00  0.00     0.051 A 
HETATM   32 CL   UNL     1       3.641  34.617  66.040  1.00  0.00    -0.083 Cl
HETATM   33  C   UNL     1       4.803  36.768  64.940  1.00  0.00     0.048 A 
HETATM   34  C   UNL     1       5.095  37.644  63.894  1.00  0.00     0.035 A 
HETATM   35 CL   UNL     1       6.064  39.033  64.195  1.00  0.00    -0.084 Cl
HETATM   36  C   UNL     1       4.601  37.411  62.610  1.00  0.00     0.025 A 
HETATM   37  C   UNL     1       3.810  36.286  62.365  1.00  0.00     0.021 A 
ENDBRANCH  28  30
ENDBRANCH  27  28
ENDBRANCH   4  27
TORSDOF 5
ENDMDL
MODEL 7
REMARK VINA RESULT:      -9.2      7.021     10.514
REMARK  5 active torsions:
REMARK  status: ('A' for Active; 'I' for Inactive)
REMARK    1  A    between atoms: C_10  and  C_11 
REMARK    2  A    between atoms: C_13  and  O_14 
REMARK    3  A    between atoms: C_16  and  O_17 
REMARK    4  A    between atoms: O_17  and  C_18 
REMARK    5  A    between atoms: C_18  and  C_19 
ROOT
HETATM    1  C   UNL     1       4.257  28.381  51.232  1.00  0.00    -0.013 A 
HETATM    2  C   UNL     1       4.375  28.112  52.611  1.00  0.00     0.050 A 
HETATM    3  C   UNL     1       4.937  26.917  53.066  1.00  0.00     0.102 A 
HETATM    4  C   UNL     1       5.394  25.984  52.124  1.00  0.00     0.112 A 
HETATM    5  C   UNL     1       5.246  26.211  50.756  1.00  0.00     0.041 A 
HETATM    6  C   UNL     1       4.687  27.411  50.314  1.00  0.00     0.014 A 
ENDROOT
BRANCH   1   7
HETATM    7  C   UNL     1       3.670  29.691  50.742  1.00  0.00     0.219 A 
HETATM    8  N   UNL     1       3.439  29.627  49.316  1.00  0.00    -0.358 N 
HETATM    9  C   UNL     1       4.032  30.480  48.465  1.00  0.00     0.088 A 
HETATM   10  H   UNL     1       2.909  28.824  48.988  1.00  0.00     0.162 HD
HETATM   11  C   UNL     1       4.849  31.508  48.867  1.00  0.00     0.073 A 
HETATM   12  S   UNL     1       3.860  30.403  46.774  1.00  0.00    -0.074 SA
HETATM   13  C   UNL     1       5.344  32.261  47.754  1.00  0.00    -0.023 A 
HETATM   14  C   UNL     1       5.100  31.699  50.281  1.00  0.00     0.256 A 
HETATM   15  C   UNL     1       4.861  31.761  46.558  1.00  0.00     0.018 A 
HETATM   16  C   UNL     1       6.242  33.462  47.798  1.00  0.00     0.068 C 
HETATM   17  C   UNL     1       5.180  32.307  45.210  1.00  0.00     0.281 C 
HETATM   18  N   UNL     1       5.761  33.710  45.335  1.00  0.00    -0.070 N 
HETATM   19  C   UNL     1       6.236  34.239  44.017  1.00  0.00     0.270 C 
HETATM   20  H   UNL     1       4.986  34.308  45.648  1.00  0.00     0.279 HD
HETATM   21  C   UNL     1       6.838  33.780  46.415  1.00  0.00     0.239 C 
HETATM   22  N   UNL     1       4.510  30.799  51.117  1.00  0.00    -0.332 N 
HETATM   23  O   UNL     1       5.804  32.608  50.707  1.00  0.00    -0.267 OA
HETATM   24  H   UNL     1       4.705  30.931  52.099  1.00  0.00     0.165 HD
ENDBRANCH   1   7
BRANCH   3  25
HETATM   25  O   UNL     1       5.094  26.570  54.381  1.00  0.00    -0.353 OA
HETATM   26  C   UNL     1       5.206  27.621  55.330  1.00  0.00     0.210 C 
ENDBRANCH   3  25
BRANCH   4  27
HETATM   27  O   UNL     1       5.963  24.797  52.640  1.00  0.00    -0.272 OA
BRANCH  27  28
HETATM   28  C   UNL     1       7.333  24.628  52.679  1.00  0.00     0.300 C 
HETATM   29  O   UNL     1       8.205  25.252  52.100  1.00  0.00    -0.259 OA
BRANCH  28  30
HETATM   30  C   UNL     1       7.602  23.459  53.527  1.00  0.00     0.061 A 
HETATM   31  C   UNL     1       7.803  23.588  54.906  1.00  0.00     0.051 A 
HETATM   32 CL   UNL     1       7.773  25.118  55.708  1.00  0.00    -0.083 Cl
HETATM   33  C   UNL     1       8.072  22.454  55.675  1.00  0.00     0.048 A 
HETATM   34  C   UNL     1       8.146  21.203  55.062  1.00  0.00     0.035 A 
HETATM   35 CL   UNL     1       8.480  19.809  56.013  1.00  0.00    -0.084 Cl
HETATM   36  C   UNL     1       7.962  21.073  53.685  1.00  0.00     0.025 A 
HETATM   37  C   UNL     1       7.696  22.204  52.911  1.00  0.00     0.021 A 
ENDBRANCH  28  30
ENDBRANCH  27  28
ENDBRANCH   4  27
TORSDOF 5
ENDMDL
MODEL 8
REMARK VINA RESULT:      -9.1      6.903     11.686
REMARK  5 active torsions:
REMARK  status: ('A' for Active; 'I' for Inactive)
REMARK    1  A    between atoms: C_10  and  C_11 
REMARK    2  A    between atoms: C_13  and  O_14 
REMARK    3  A    between atoms: C_16  and  O_17 
REMARK    4  A    between atoms: O_17  and  C_18 
REMARK    5  A    between atoms: C_18  and  C_19 
ROOT
HETATM    1  C   UNL     1       4.727  27.538  51.601  1.00  0.00    -0.013 A 
HETATM    2  C   UNL     1       4.244  28.683  52.267  1.00  0.00     0.050 A 
HETATM    3  C   UNL     1       4.134  28.713  53.659  1.00  0.00     0.102 A 
HETATM    4  C   UNL     1       4.523  27.582  54.392  1.00  0.00     0.112 A 
HETATM    5  C   UNL     1       4.960  26.425  53.751  1.00  0.00     0.041 A 
HETATM    6  C   UNL     1       5.070  26.408  52.359  1.00  0.00     0.014 A 
ENDROOT
BRANCH   1   7
HETATM    7  C   UNL     1       4.870  27.517  50.091  1.00  0.00     0.219 A 
HETATM    8  N   UNL     1       4.391  28.761  49.532  1.00  0.00    -0.358 N 
HETATM    9  C   UNL     1       3.379  28.797  48.650  1.00  0.00     0.088 A 
HETATM   10  H   UNL     1       4.775  29.609  49.940  1.00  0.00     0.162 HD
HETATM   11  C   UNL     1       2.757  27.673  48.162  1.00  0.00     0.073 A 
HETATM   12  S   UNL     1       2.722  30.234  48.020  1.00  0.00    -0.074 SA
HETATM   13  C   UNL     1       1.714  28.001  47.238  1.00  0.00    -0.023 A 
HETATM   14  C   UNL     1       3.200  26.370  48.613  1.00  0.00     0.256 A 
HETATM   15  C   UNL     1       1.609  29.370  47.067  1.00  0.00     0.018 A 
HETATM   16  C   UNL     1       0.832  27.045  46.489  1.00  0.00     0.068 C 
HETATM   17  C   UNL     1       0.627  30.049  46.178  1.00  0.00     0.281 C 
HETATM   18  N   UNL     1       0.039  29.053  45.185  1.00  0.00    -0.070 N 
HETATM   19  C   UNL     1      -1.062  29.658  44.371  1.00  0.00     0.270 C 
HETATM   20  H   UNL     1       0.805  28.813  44.542  1.00  0.00     0.279 HD
HETATM   21  C   UNL     1      -0.385  27.757  45.871  1.00  0.00     0.239 C 
HETATM   22  N   UNL     1       4.207  26.368  49.531  1.00  0.00    -0.332 N 
HETATM   23  O   UNL     1       2.701  25.327  48.203  1.00  0.00    -0.267 OA
HETATM   24  H   UNL     1       4.497  25.455  49.851  1.00  0.00     0.165 HD
ENDBRANCH   1   7
BRANCH   3  25
HETATM   25  O   UNL     1       3.679  29.777  54.391  1.00  0.00    -0.353 OA
HETATM   26  C   UNL     1       3.464  31.003  53.706  1.00  0.00     0.210 C 
ENDBRANCH   3  25
BRANCH   4  27
HETATM   27  O   UNL     1       4.400  27.672  55.798  1.00  0.00    -0.272 OA
BRANCH  27  28
HETATM   28  C   UNL     1       5.176  26.887  56.627  1.00  0.00     0.300 C 
HETATM   29  O   UNL     1       4.926  25.800  57.117  1.00  0.00    -0.259 OA
BRANCH  28  30
HETATM   30  C   UNL     1       6.408  27.637  56.908  1.00  0.00     0.061 A 
HETATM   31  C   UNL     1       7.671  27.094  56.643  1.00  0.00     0.051 A 
HETATM   32 CL   UNL     1       7.879  25.508  55.992  1.00  0.00    -0.083 Cl
HETATM   33  C   UNL     1       8.818  27.834  56.939  1.00  0.00     0.048 A 
HETATM   34  C   UNL     1       8.696  29.103  57.503  1.00  0.00     0.035 A 
HETATM   35 CL   UNL     1      10.113  30.010  57.868  1.00  0.00    -0.084 Cl
HETATM   36  C   UNL     1       7.440  29.642  57.784  1.00  0.00     0.025 A 
HETATM   37  C   UNL     1       6.290  28.905  57.492  1.00  0.00     0.021 A 
ENDBRANCH  28  30
ENDBRANCH  27  28
ENDBRANCH   4  27
TORSDOF 5
ENDMDL
MODEL 9
REMARK VINA RESULT:      -9.1      7.062     11.874
REMARK  5 active torsions:
REMARK  status: ('A' for Active; 'I' for Inactive)
REMARK    1  A    between atoms: C_10  and  C_11 
REMARK    2  A    between atoms: C_13  and  O_14 
REMARK    3  A    between atoms: C_16  and  O_17 
REMARK    4  A    between atoms: O_17  and  C_18 
REMARK    5  A    between atoms: C_18  and  C_19 
ROOT
HETATM    1  C   UNL     1       5.103  26.826  51.004  1.00  0.00    -0.013 A 
HETATM    2  C   UNL     1       5.817  25.793  51.645  1.00  0.00     0.050 A 
HETATM    3  C   UNL     1       5.820  25.676  53.037  1.00  0.00     0.102 A 
HETATM    4  C   UNL     1       5.089  26.603  53.793  1.00  0.00     0.112 A 
HETATM    5  C   UNL     1       4.414  27.658  53.183  1.00  0.00     0.041 A 
HETATM    6  C   UNL     1       4.414  27.762  51.791  1.00  0.00     0.014 A 
ENDROOT
BRANCH   1   7
HETATM    7  C   UNL     1       5.080  26.935  49.491  1.00  0.00     0.219 A 
HETATM    8  N   UNL     1       4.664  28.262  49.096  1.00  0.00    -0.358 N 
HETATM    9  C   UNL     1       3.571  28.465  48.342  1.00  0.00     0.088 A 
HETATM   10  H   UNL     1       5.169  29.032  49.527  1.00  0.00     0.162 HD
HETATM   11  C   UNL     1       2.797  27.449  47.838  1.00  0.00     0.073 A 
HETATM   12  S   UNL     1       2.990  30.006  47.914  1.00  0.00    -0.074 SA
HETATM   13  C   UNL     1       1.697  27.949  47.070  1.00  0.00    -0.023 A 
HETATM   14  C   UNL     1       3.160  26.077  48.125  1.00  0.00     0.256 A 
HETATM   15  C   UNL     1       1.705  29.332  47.027  1.00  0.00     0.018 A 
HETATM   16  C   UNL     1       0.653  27.147  46.351  1.00  0.00     0.068 C 
HETATM   17  C   UNL     1       0.702  30.173  46.317  1.00  0.00     0.281 C 
HETATM   18  N   UNL     1      -0.081  29.328  45.319  1.00  0.00    -0.070 N 
HETATM   19  C   UNL     1      -1.200  30.098  44.690  1.00  0.00     0.270 C 
HETATM   20  H   UNL     1       0.585  29.085  44.574  1.00  0.00     0.279 HD
HETATM   21  C   UNL     1      -0.550  28.014  45.939  1.00  0.00     0.239 C 
HETATM   22  N   UNL     1       4.255  25.903  48.917  1.00  0.00    -0.332 N 
HETATM   23  O   UNL     1       2.523  25.123  47.689  1.00  0.00    -0.267 OA
HETATM   24  H   UNL     1       4.489  24.943  49.125  1.00  0.00     0.165 HD
ENDBRANCH   1   7
BRANCH   3  25
HETATM   25  O   UNL     1       6.481  24.708  53.744  1.00  0.00    -0.353 OA
HETATM   26  C   UNL     1       7.121  23.675  53.008  1.00  0.00     0.210 C 
ENDBRANCH   3  25
BRANCH   4  27
HETATM   27  O   UNL     1       5.119  26.431  55.197  1.00  0.00    -0.272 OA
BRANCH  27  28
HETATM   28  C   UNL     1       5.095  27.521  56.044  1.00  0.00     0.300 C 
HETATM   29  O   UNL     1       4.139  28.122  56.500  1.00  0.00    -0.259 OA
BRANCH  28  30
HETATM   30  C   UNL     1       6.489  27.919  56.279  1.00  0.00     0.061 A 
HETATM   31  C   UNL     1       7.389  27.075  56.940  1.00  0.00     0.051 A 
HETATM   32 CL   UNL     1       6.931  25.522  57.543  1.00  0.00    -0.083 Cl
HETATM   33  C   UNL     1       8.702  27.498  57.157  1.00  0.00     0.048 A 
HETATM   34  C   UNL     1       9.104  28.761  56.723  1.00  0.00     0.035 A 
HETATM   35 CL   UNL     1      10.722  29.278  56.995  1.00  0.00    -0.084 Cl
HETATM   36  C   UNL     1       8.205  29.612  56.078  1.00  0.00     0.025 A 
HETATM   37  C   UNL     1       6.890  29.195  55.860  1.00  0.00     0.021 A 
ENDBRANCH  28  30
ENDBRANCH  27  28
ENDBRANCH   4  27
TORSDOF 5
ENDMDL
MODEL 10
REMARK VINA RESULT:      -8.8      5.057      5.909
REMARK  5 active torsions:
REMARK  status: ('A' for Active; 'I' for Inactive)
REMARK    1  A    between atoms: C_10  and  C_11 
REMARK    2  A    between atoms: C_13  and  O_14 
REMARK    3  A    between atoms: C_16  and  O_17 
REMARK    4  A    between atoms: O_17  and  C_18 
REMARK    5  A    between atoms: C_18  and  C_19 
ROOT
HETATM    1  C   UNL     1       4.271  29.896  53.086  1.00  0.00    -0.013 A 
HETATM    2  C   UNL     1       4.663  29.252  51.894  1.00  0.00     0.050 A 
HETATM    3  C   UNL     1       5.347  28.034  51.926  1.00  0.00     0.102 A 
HETATM    4  C   UNL     1       5.631  27.451  53.169  1.00  0.00     0.112 A 
HETATM    5  C   UNL     1       5.292  28.093  54.359  1.00  0.00     0.041 A 
HETATM    6  C   UNL     1       4.606  29.308  54.316  1.00  0.00     0.014 A 
ENDROOT
BRANCH   1   7
HETATM    7  C   UNL     1       3.507  31.206  53.048  1.00  0.00     0.219 A 
HETATM    8  N   UNL     1       4.421  32.307  52.842  1.00  0.00    -0.358 N 
HETATM    9  C   UNL     1       4.537  33.306  53.731  1.00  0.00     0.088 A 
HETATM   10  H   UNL     1       5.058  32.213  52.055  1.00  0.00     0.162 HD
HETATM   11  C   UNL     1       3.771  33.404  54.867  1.00  0.00     0.073 A 
HETATM   12  S   UNL     1       5.650  34.584  53.580  1.00  0.00    -0.074 SA
HETATM   13  C   UNL     1       4.102  34.566  55.634  1.00  0.00    -0.023 A 
HETATM   14  C   UNL     1       2.780  32.382  55.140  1.00  0.00     0.256 A 
HETATM   15  C   UNL     1       5.105  35.299  55.024  1.00  0.00     0.018 A 
HETATM   16  C   UNL     1       3.469  35.016  56.918  1.00  0.00     0.068 C 
HETATM   17  C   UNL     1       5.687  36.561  55.556  1.00  0.00     0.281 C 
HETATM   18  N   UNL     1       4.773  37.155  56.621  1.00  0.00    -0.070 N 
HETATM   19  C   UNL     1       5.391  38.344  57.289  1.00  0.00     0.270 C 
HETATM   20  H   UNL     1       3.935  37.480  56.122  1.00  0.00     0.279 HD
HETATM   21  C   UNL     1       4.311  36.097  57.620  1.00  0.00     0.239 C 
HETATM   22  N   UNL     1       2.708  31.365  54.236  1.00  0.00    -0.332 N 
HETATM   23  O   UNL     1       2.051  32.420  56.126  1.00  0.00    -0.267 OA
HETATM   24  H   UNL     1       2.026  30.650  54.444  1.00  0.00     0.165 HD
ENDBRANCH   1   7
BRANCH   3  25
HETATM   25  O   UNL     1       5.764  27.337  50.824  1.00  0.00    -0.353 OA
HETATM   26  C   UNL     1       4.769  26.742  50.004  1.00  0.00     0.210 C 
ENDBRANCH   3  25
BRANCH   4  27
HETATM   27  O   UNL     1       6.314  26.214  53.141  1.00  0.00    -0.272 OA
BRANCH  27  28
HETATM   28  C   UNL     1       5.628  25.023  53.276  1.00  0.00     0.300 C 
HETATM   29  O   UNL     1       4.462  24.773  53.030  1.00  0.00    -0.259 OA
BRANCH  28  30
HETATM   30  C   UNL     1       6.559  24.049  53.863  1.00  0.00     0.061 A 
HETATM   31  C   UNL     1       6.737  23.952  55.248  1.00  0.00     0.051 A 
HETATM   32 CL   UNL     1       5.902  24.973  56.363  1.00  0.00    -0.083 Cl
HETATM   33  C   UNL     1       7.643  23.024  55.765  1.00  0.00     0.048 A 
HETATM   34  C   UNL     1       8.369  22.208  54.898  1.00  0.00     0.035 A 
HETATM   35 CL   UNL     1       9.485  21.067  55.540  1.00  0.00    -0.084 Cl
HETATM   36  C   UNL     1       8.206  22.313  53.516  1.00  0.00     0.025 A 
HETATM   37  C   UNL     1       7.303  23.241  52.993  1.00  0.00     0.021 A 
ENDBRANCH  28  30
ENDBRANCH  27  28
ENDBRANCH   4  27
TORSDOF 5
ENDMDL
