MODEL 1
REMARK VINA RESULT:      -8.7      0.000      0.000
REMARK  2 active torsions:
REMARK  status: ('A' for Active; 'I' for Inactive)
REMARK    1  A    between atoms: C_2  and  N_3 
REMARK    2  A    between atoms: N_3  and  C_4 
ROOT
HETATM    1  C   UNL     1       5.659  25.588  55.177  1.00  0.00     0.143 A 
HETATM    2  N   UNL     1       5.356  26.461  56.169  1.00  0.00    -0.223 NA
HETATM    3  C   UNL     1       6.105  26.489  57.281  1.00  0.00     0.236 A 
HETATM    4  N   UNL     1       7.170  25.739  57.564  1.00  0.00    -0.234 NA
HETATM    5  C   UNL     1       7.463  24.883  56.573  1.00  0.00     0.114 A 
HETATM    6  C   UNL     1       6.773  24.738  55.367  1.00  0.00     0.053 A 
HETATM    7  S   UNL     1       8.808  23.820  56.721  1.00  0.00    -0.073 SA
HETATM    8  C   UNL     1       8.492  23.180  55.213  1.00  0.00    -0.008 A 
HETATM    9  C   UNL     1       7.403  23.723  54.588  1.00  0.00    -0.028 A 
HETATM   10  C   UNL     1       7.208  23.104  53.251  1.00  0.00     0.041 C 
HETATM   11  C   UNL     1       8.153  21.863  53.307  1.00  0.00     0.010 C 
HETATM   12  C   UNL     1       9.195  22.138  54.431  1.00  0.00     0.047 C 
ENDROOT
BRANCH   1  13
HETATM   13  N   UNL     1       4.867  25.510  54.021  1.00  0.00    -0.340 N 
HETATM   14  H   UNL     1       4.104  24.855  54.096  1.00  0.00     0.167 HD
BRANCH  13  15
HETATM   15  C   UNL     1       4.935  26.176  52.785  1.00  0.00     0.036 A 
HETATM   16  C   UNL     1       5.043  25.516  51.555  1.00  0.00     0.032 A 
HETATM   17  C   UNL     1       5.142  26.227  50.353  1.00  0.00     0.042 A 
HETATM   18  C   UNL     1       5.149  27.616  50.367  1.00  0.00     0.102 A 
HETATM   19  C   UNL     1       5.082  28.294  51.586  1.00  0.00     0.104 A 
HETATM   20  O   UNL     1       5.236  28.250  49.155  1.00  0.00    -0.346 OA
HETATM   21  C   UNL     1       4.962  27.580  52.779  1.00  0.00     0.069 A 
HETATM   22  O   UNL     1       5.130  29.663  51.687  1.00  0.00    -0.346 OA
HETATM   23  C   UNL     1       5.616  30.253  50.475  1.00  0.00     0.202 C 
HETATM   24  C   UNL     1       4.923  29.643  49.268  1.00  0.00     0.202 C 
ENDBRANCH  13  15
ENDBRANCH   1  13
TORSDOF 2
ENDMDL
MODEL 2
REMARK VINA RESULT:      -8.7      3.705      5.666
REMARK  2 active torsions:
REMARK  status: ('A' for Active; 'I' for Inactive)
REMARK    1  A    between atoms: C_2  and  N_3 
REMARK    2  A    between atoms: N_3  and  C_4 
ROOT
HETATM    1  C   UNL     1       7.624  25.199  54.866  1.00  0.00     0.143 A 
HETATM    2  N   UNL     1       7.493  26.043  53.813  1.00  0.00    -0.223 NA
HETATM    3  C   UNL     1       7.556  25.562  52.563  1.00  0.00     0.236 A 
HETATM    4  N   UNL     1       7.736  24.296  52.187  1.00  0.00    -0.234 NA
HETATM    5  C   UNL     1       7.861  23.469  53.237  1.00  0.00     0.114 A 
HETATM    6  C   UNL     1       7.822  23.827  54.586  1.00  0.00     0.053 A 
HETATM    7  S   UNL     1       8.095  21.784  52.983  1.00  0.00    -0.073 SA
HETATM    8  C   UNL     1       8.137  21.523  54.631  1.00  0.00    -0.008 A 
HETATM    9  C   UNL     1       7.991  22.656  55.384  1.00  0.00    -0.028 A 
HETATM   10  C   UNL     1       8.028  22.327  56.833  1.00  0.00     0.041 C 
HETATM   11  C   UNL     1       8.557  20.858  56.837  1.00  0.00     0.010 C 
HETATM   12  C   UNL     1       8.292  20.278  55.416  1.00  0.00     0.047 C 
ENDROOT
BRANCH   1  13
HETATM   13  N   UNL     1       7.603  25.682  56.183  1.00  0.00    -0.340 N 
HETATM   14  H   UNL     1       7.876  24.998  56.871  1.00  0.00     0.167 HD
BRANCH  13  15
HETATM   15  C   UNL     1       7.278  26.940  56.720  1.00  0.00     0.036 A 
HETATM   16  C   UNL     1       6.017  27.534  56.592  1.00  0.00     0.032 A 
HETATM   17  C   UNL     1       5.754  28.805  57.117  1.00  0.00     0.042 A 
HETATM   18  C   UNL     1       6.759  29.508  57.769  1.00  0.00     0.102 A 
HETATM   19  C   UNL     1       8.035  28.951  57.874  1.00  0.00     0.104 A 
HETATM   20  O   UNL     1       6.431  30.741  58.270  1.00  0.00    -0.346 OA
HETATM   21  C   UNL     1       8.286  27.674  57.367  1.00  0.00     0.069 A 
HETATM   22  O   UNL     1       9.092  29.600  58.461  1.00  0.00    -0.346 OA
HETATM   23  C   UNL     1       8.823  31.000  58.602  1.00  0.00     0.202 C 
HETATM   24  C   UNL     1       7.433  31.223  59.173  1.00  0.00     0.202 C 
ENDBRANCH  13  15
ENDBRANCH   1  13
TORSDOF 2
ENDMDL
MODEL 3
REMARK VINA RESULT:      -8.6      0.935      1.730
REMARK  2 active torsions:
REMARK  status: ('A' for Active; 'I' for Inactive)
REMARK    1  A    between atoms: C_2  and  N_3 
REMARK    2  A    between atoms: N_3  and  C_4 
ROOT
HETATM    1  C   UNL     1       5.765  25.517  54.794  1.00  0.00     0.143 A 
HETATM    2  N   UNL     1       5.350  26.382  55.752  1.00  0.00    -0.223 NA
HETATM    3  C   UNL     1       5.917  26.350  56.966  1.00  0.00     0.236 A 
HETATM    4  N   UNL     1       6.890  25.543  57.389  1.00  0.00    -0.234 NA
HETATM    5  C   UNL     1       7.295  24.695  56.431  1.00  0.00     0.114 A 
HETATM    6  C   UNL     1       6.796  24.609  55.130  1.00  0.00     0.053 A 
HETATM    7  S   UNL     1       8.552  23.565  56.756  1.00  0.00    -0.073 SA
HETATM    8  C   UNL     1       8.447  22.973  55.200  1.00  0.00    -0.008 A 
HETATM    9  C   UNL     1       7.494  23.581  54.429  1.00  0.00    -0.028 A 
HETATM   10  C   UNL     1       7.483  23.002  53.061  1.00  0.00     0.041 C 
HETATM   11  C   UNL     1       8.351  21.715  53.227  1.00  0.00     0.010 C 
HETATM   12  C   UNL     1       9.215  21.914  54.506  1.00  0.00     0.047 C 
ENDROOT
BRANCH   1  13
HETATM   13  N   UNL     1       5.161  25.502  53.527  1.00  0.00    -0.340 N 
HETATM   14  H   UNL     1       4.556  24.710  53.376  1.00  0.00     0.167 HD
BRANCH  13  15
HETATM   15  C   UNL     1       5.237  26.385  52.436  1.00  0.00     0.036 A 
HETATM   16  C   UNL     1       5.532  27.748  52.562  1.00  0.00     0.032 A 
HETATM   17  C   UNL     1       5.562  28.593  51.445  1.00  0.00     0.042 A 
HETATM   18  C   UNL     1       5.283  28.084  50.183  1.00  0.00     0.102 A 
HETATM   19  C   UNL     1       4.947  26.737  50.040  1.00  0.00     0.104 A 
HETATM   20  O   UNL     1       5.342  28.963  49.132  1.00  0.00    -0.346 OA
HETATM   21  C   UNL     1       4.940  25.894  51.154  1.00  0.00     0.069 A 
HETATM   22  O   UNL     1       4.613  26.170  48.835  1.00  0.00    -0.346 OA
HETATM   23  C   UNL     1       4.300  27.174  47.863  1.00  0.00     0.202 C 
HETATM   24  C   UNL     1       5.345  28.276  47.876  1.00  0.00     0.202 C 
ENDBRANCH  13  15
ENDBRANCH   1  13
TORSDOF 2
ENDMDL
MODEL 4
REMARK VINA RESULT:      -8.6      3.864      6.768
REMARK  2 active torsions:
REMARK  status: ('A' for Active; 'I' for Inactive)
REMARK    1  A    between atoms: C_2  and  N_3 
REMARK    2  A    between atoms: N_3  and  C_4 
ROOT
HETATM    1  C   UNL     1       6.342  26.819  53.733  1.00  0.00     0.143 A 
HETATM    2  N   UNL     1       5.387  26.662  52.784  1.00  0.00    -0.223 NA
HETATM    3  C   UNL     1       4.248  27.367  52.865  1.00  0.00     0.236 A 
HETATM    4  N   UNL     1       3.905  28.254  53.799  1.00  0.00    -0.234 NA
HETATM    5  C   UNL     1       4.860  28.403  54.730  1.00  0.00     0.114 A 
HETATM    6  C   UNL     1       6.086  27.736  54.778  1.00  0.00     0.053 A 
HETATM    7  S   UNL     1       4.631  29.506  56.030  1.00  0.00    -0.073 SA
HETATM    8  C   UNL     1       6.132  29.119  56.647  1.00  0.00    -0.008 A 
HETATM    9  C   UNL     1       6.813  28.178  55.923  1.00  0.00    -0.028 A 
HETATM   10  C   UNL     1       8.139  27.908  56.537  1.00  0.00     0.041 C 
HETATM   11  C   UNL     1       8.013  28.587  57.937  1.00  0.00     0.010 C 
HETATM   12  C   UNL     1       6.858  29.626  57.834  1.00  0.00     0.047 C 
ENDROOT
BRANCH   1  13
HETATM   13  N   UNL     1       7.525  26.064  53.694  1.00  0.00    -0.340 N 
HETATM   14  H   UNL     1       8.352  26.614  53.522  1.00  0.00     0.167 HD
BRANCH  13  15
HETATM   15  C   UNL     1       7.772  24.690  53.856  1.00  0.00     0.036 A 
HETATM   16  C   UNL     1       7.681  23.759  52.814  1.00  0.00     0.032 A 
HETATM   17  C   UNL     1       7.905  22.394  53.035  1.00  0.00     0.042 A 
HETATM   18  C   UNL     1       8.208  21.939  54.312  1.00  0.00     0.102 A 
HETATM   19  C   UNL     1       8.264  22.844  55.372  1.00  0.00     0.104 A 
HETATM   20  O   UNL     1       8.427  20.593  54.456  1.00  0.00    -0.346 OA
HETATM   21  C   UNL     1       8.062  24.207  55.143  1.00  0.00     0.069 A 
HETATM   22  O   UNL     1       8.511  22.468  56.669  1.00  0.00    -0.346 OA
HETATM   23  C   UNL     1       8.335  21.056  56.838  1.00  0.00     0.202 C 
HETATM   24  C   UNL     1       9.027  20.293  55.721  1.00  0.00     0.202 C 
ENDBRANCH  13  15
ENDBRANCH   1  13
TORSDOF 2
ENDMDL
MODEL 5
REMARK VINA RESULT:      -8.6      4.054      6.152
REMARK  2 active torsions:
REMARK  status: ('A' for Active; 'I' for Inactive)
REMARK    1  A    between atoms: C_2  and  N_3 
REMARK    2  A    between atoms: N_3  and  C_4 
ROOT
HETATM    1  C   UNL     1       6.486  28.443  55.213  1.00  0.00     0.143 A 
HETATM    2  N   UNL     1       5.140  28.359  55.354  1.00  0.00    -0.223 NA
HETATM    3  C   UNL     1       4.549  28.900  56.429  1.00  0.00     0.236 A 
HETATM    4  N   UNL     1       5.131  29.550  57.437  1.00  0.00    -0.234 NA
HETATM    5  C   UNL     1       6.462  29.631  57.284  1.00  0.00     0.114 A 
HETATM    6  C   UNL     1       7.212  29.113  56.226  1.00  0.00     0.053 A 
HETATM    7  S   UNL     1       7.417  30.438  58.466  1.00  0.00    -0.073 SA
HETATM    8  C   UNL     1       8.802  30.117  57.593  1.00  0.00    -0.008 A 
HETATM    9  C   UNL     1       8.590  29.413  56.439  1.00  0.00    -0.028 A 
HETATM   10  C   UNL     1       9.872  29.186  55.723  1.00  0.00     0.041 C 
HETATM   11  C   UNL     1      10.937  29.572  56.798  1.00  0.00     0.010 C 
HETATM   12  C   UNL     1      10.217  30.472  57.845  1.00  0.00     0.047 C 
ENDROOT
BRANCH   1  13
HETATM   13  N   UNL     1       7.133  27.851  54.119  1.00  0.00    -0.340 N 
HETATM   14  H   UNL     1       7.443  28.512  53.424  1.00  0.00     0.167 HD
BRANCH  13  15
HETATM   15  C   UNL     1       7.435  26.512  53.814  1.00  0.00     0.036 A 
HETATM   16  C   UNL     1       7.565  26.025  52.507  1.00  0.00     0.032 A 
HETATM   17  C   UNL     1       7.833  24.674  52.257  1.00  0.00     0.042 A 
HETATM   18  C   UNL     1       7.961  23.784  53.315  1.00  0.00     0.102 A 
HETATM   19  C   UNL     1       7.796  24.240  54.624  1.00  0.00     0.104 A 
HETATM   20  O   UNL     1       8.236  22.479  53.000  1.00  0.00    -0.346 OA
HETATM   21  C   UNL     1       7.550  25.592  54.870  1.00  0.00     0.069 A 
HETATM   22  O   UNL     1       7.861  23.416  55.721  1.00  0.00    -0.346 OA
HETATM   23  C   UNL     1       7.746  22.040  55.338  1.00  0.00     0.202 C 
HETATM   24  C   UNL     1       8.648  21.737  54.153  1.00  0.00     0.202 C 
ENDBRANCH  13  15
ENDBRANCH   1  13
TORSDOF 2
ENDMDL
MODEL 6
REMARK VINA RESULT:      -8.3      3.780      5.960
REMARK  2 active torsions:
REMARK  status: ('A' for Active; 'I' for Inactive)
REMARK    1  A    between atoms: C_2  and  N_3 
REMARK    2  A    between atoms: N_3  and  C_4 
ROOT
HETATM    1  C   UNL     1       5.834  26.948  54.701  1.00  0.00     0.143 A 
HETATM    2  N   UNL     1       5.063  27.384  53.674  1.00  0.00    -0.223 NA
HETATM    3  C   UNL     1       4.959  26.644  52.560  1.00  0.00     0.236 A 
HETATM    4  N   UNL     1       5.537  25.470  52.306  1.00  0.00    -0.234 NA
HETATM    5  C   UNL     1       6.294  25.047  53.331  1.00  0.00     0.114 A 
HETATM    6  C   UNL     1       6.500  25.710  54.543  1.00  0.00     0.053 A 
HETATM    7  S   UNL     1       7.129  23.547  53.223  1.00  0.00    -0.073 SA
HETATM    8  C   UNL     1       7.750  23.761  54.757  1.00  0.00    -0.008 A 
HETATM    9  C   UNL     1       7.366  24.927  55.362  1.00  0.00    -0.028 A 
HETATM   10  C   UNL     1       7.953  25.026  56.724  1.00  0.00     0.041 C 
HETATM   11  C   UNL     1       9.025  23.892  56.717  1.00  0.00     0.010 C 
HETATM   12  C   UNL     1       8.632  22.903  55.580  1.00  0.00     0.047 C 
ENDROOT
BRANCH   1  13
HETATM   13  N   UNL     1       5.992  27.722  55.860  1.00  0.00    -0.340 N 
HETATM   14  H   UNL     1       5.188  27.711  56.468  1.00  0.00     0.167 HD
BRANCH  13  15
HETATM   15  C   UNL     1       7.061  28.503  56.334  1.00  0.00     0.036 A 
HETATM   16  C   UNL     1       8.256  28.689  55.629  1.00  0.00     0.032 A 
HETATM   17  C   UNL     1       9.304  29.450  56.160  1.00  0.00     0.042 A 
HETATM   18  C   UNL     1       9.175  30.025  57.418  1.00  0.00     0.102 A 
HETATM   19  C   UNL     1       8.008  29.819  58.156  1.00  0.00     0.104 A 
HETATM   20  O   UNL     1      10.234  30.767  57.874  1.00  0.00    -0.346 OA
HETATM   21  C   UNL     1       6.957  29.078  57.611  1.00  0.00     0.069 A 
HETATM   22  O   UNL     1       7.823  30.314  59.423  1.00  0.00    -0.346 OA
HETATM   23  C   UNL     1       9.067  30.723  60.003  1.00  0.00     0.202 C 
HETATM   24  C   UNL     1       9.871  31.551  59.016  1.00  0.00     0.202 C 
ENDBRANCH  13  15
ENDBRANCH   1  13
TORSDOF 2
ENDMDL
MODEL 7
REMARK VINA RESULT:      -8.2      3.602      6.632
REMARK  2 active torsions:
REMARK  status: ('A' for Active; 'I' for Inactive)
REMARK    1  A    between atoms: C_2  and  N_3 
REMARK    2  A    between atoms: N_3  and  C_4 
ROOT
HETATM    1  C   UNL     1       6.439  26.874  54.686  1.00  0.00     0.143 A 
HETATM    2  N   UNL     1       6.316  27.116  56.014  1.00  0.00    -0.223 NA
HETATM    3  C   UNL     1       5.320  27.898  56.458  1.00  0.00     0.236 A 
HETATM    4  N   UNL     1       4.378  28.503  55.735  1.00  0.00    -0.234 NA
HETATM    5  C   UNL     1       4.508  28.254  54.423  1.00  0.00     0.114 A 
HETATM    6  C   UNL     1       5.493  27.469  53.819  1.00  0.00     0.053 A 
HETATM    7  S   UNL     1       3.392  28.930  53.302  1.00  0.00    -0.073 SA
HETATM    8  C   UNL     1       4.189  28.193  52.035  1.00  0.00    -0.008 A 
HETATM    9  C   UNL     1       5.279  27.455  52.409  1.00  0.00    -0.028 A 
HETATM   10  C   UNL     1       5.915  26.827  51.222  1.00  0.00     0.041 C 
HETATM   11  C   UNL     1       5.235  27.576  50.033  1.00  0.00     0.010 C 
HETATM   12  C   UNL     1       3.913  28.189  50.581  1.00  0.00     0.047 C 
ENDROOT
BRANCH   1  13
HETATM   13  N   UNL     1       7.495  26.094  54.192  1.00  0.00    -0.340 N 
HETATM   14  H   UNL     1       8.265  26.635  53.830  1.00  0.00     0.167 HD
BRANCH  13  15
HETATM   15  C   UNL     1       7.683  24.703  54.113  1.00  0.00     0.036 A 
HETATM   16  C   UNL     1       7.570  23.972  52.925  1.00  0.00     0.032 A 
HETATM   17  C   UNL     1       7.733  22.581  52.906  1.00  0.00     0.042 A 
HETATM   18  C   UNL     1       7.998  21.898  54.086  1.00  0.00     0.102 A 
HETATM   19  C   UNL     1       8.076  22.602  55.289  1.00  0.00     0.104 A 
HETATM   20  O   UNL     1       8.158  20.540  53.995  1.00  0.00    -0.346 OA
HETATM   21  C   UNL     1       7.934  23.991  55.298  1.00  0.00     0.069 A 
HETATM   22  O   UNL     1       8.288  21.995  56.502  1.00  0.00    -0.346 OA
HETATM   23  C   UNL     1       8.051  20.585  56.421  1.00  0.00     0.202 C 
HETATM   24  C   UNL     1       8.727  19.998  55.192  1.00  0.00     0.202 C 
ENDBRANCH  13  15
ENDBRANCH   1  13
TORSDOF 2
ENDMDL
MODEL 8
REMARK VINA RESULT:      -8.1      8.032     10.857
REMARK  2 active torsions:
REMARK  status: ('A' for Active; 'I' for Inactive)
REMARK    1  A    between atoms: C_2  and  N_3 
REMARK    2  A    between atoms: N_3  and  C_4 
ROOT
HETATM    1  C   UNL     1       7.124  32.246  62.520  1.00  0.00     0.143 A 
HETATM    2  N   UNL     1       7.711  32.320  63.740  1.00  0.00    -0.223 NA
HETATM    3  C   UNL     1       7.419  33.343  64.556  1.00  0.00     0.236 A 
HETATM    4  N   UNL     1       6.582  34.355  64.326  1.00  0.00    -0.234 NA
HETATM    5  C   UNL     1       6.005  34.268  63.118  1.00  0.00     0.114 A 
HETATM    6  C   UNL     1       6.215  33.269  62.165  1.00  0.00     0.053 A 
HETATM    7  S   UNL     1       4.880  35.468  62.613  1.00  0.00    -0.073 SA
HETATM    8  C   UNL     1       4.664  34.679  61.158  1.00  0.00    -0.008 A 
HETATM    9  C   UNL     1       5.412  33.542  61.018  1.00  0.00    -0.028 A 
HETATM   10  C   UNL     1       5.145  32.901  59.704  1.00  0.00     0.041 C 
HETATM   11  C   UNL     1       4.369  34.015  58.932  1.00  0.00     0.010 C 
HETATM   12  C   UNL     1       3.794  34.990  60.001  1.00  0.00     0.047 C 
ENDROOT
BRANCH   1  13
HETATM   13  N   UNL     1       7.442  31.208  61.631  1.00  0.00    -0.340 N 
HETATM   14  H   UNL     1       6.952  30.347  61.819  1.00  0.00     0.167 HD
BRANCH  13  15
HETATM   15  C   UNL     1       8.310  31.146  60.526  1.00  0.00     0.036 A 
HETATM   16  C   UNL     1       9.347  32.059  60.304  1.00  0.00     0.032 A 
HETATM   17  C   UNL     1      10.163  31.973  59.169  1.00  0.00     0.042 A 
HETATM   18  C   UNL     1       9.940  30.975  58.229  1.00  0.00     0.102 A 
HETATM   19  C   UNL     1       8.886  30.078  58.410  1.00  0.00     0.104 A 
HETATM   20  O   UNL     1      10.783  30.941  57.148  1.00  0.00    -0.346 OA
HETATM   21  C   UNL     1       8.090  30.155  59.555  1.00  0.00     0.069 A 
HETATM   22  O   UNL     1       8.572  29.095  57.505  1.00  0.00    -0.346 OA
HETATM   23  C   UNL     1       9.197  29.341  56.240  1.00  0.00     0.202 C 
HETATM   24  C   UNL     1      10.659  29.710  56.427  1.00  0.00     0.202 C 
ENDBRANCH  13  15
ENDBRANCH   1  13
TORSDOF 2
ENDMDL
MODEL 9
REMARK VINA RESULT:      -8.0      4.158      7.492
REMARK  2 active torsions:
REMARK  status: ('A' for Active; 'I' for Inactive)
REMARK    1  A    between atoms: C_2  and  N_3 
REMARK    2  A    between atoms: N_3  and  C_4 
ROOT
HETATM    1  C   UNL     1       5.265  27.675  50.520  1.00  0.00     0.143 A 
HETATM    2  N   UNL     1       5.684  28.775  51.193  1.00  0.00    -0.223 NA
HETATM    3  C   UNL     1       5.130  29.967  50.929  1.00  0.00     0.236 A 
HETATM    4  N   UNL     1       4.166  30.240  50.050  1.00  0.00    -0.234 NA
HETATM    5  C   UNL     1       3.757  29.143  49.393  1.00  0.00     0.114 A 
HETATM    6  C   UNL     1       4.243  27.844  49.557  1.00  0.00     0.053 A 
HETATM    7  S   UNL     1       2.511  29.261  48.212  1.00  0.00    -0.073 SA
HETATM    8  C   UNL     1       2.604  27.620  47.924  1.00  0.00    -0.008 A 
HETATM    9  C   UNL     1       3.545  26.969  48.673  1.00  0.00    -0.028 A 
HETATM   10  C   UNL     1       3.546  25.516  48.361  1.00  0.00     0.041 C 
HETATM   11  C   UNL     1       2.688  25.445  47.059  1.00  0.00     0.010 C 
HETATM   12  C   UNL     1       1.835  26.747  47.008  1.00  0.00     0.047 C 
ENDROOT
BRANCH   1  13
HETATM   13  N   UNL     1       5.857  26.424  50.748  1.00  0.00    -0.340 N 
HETATM   14  H   UNL     1       6.223  25.990  49.915  1.00  0.00     0.167 HD
BRANCH  13  15
HETATM   15  C   UNL     1       6.039  25.666  51.918  1.00  0.00     0.036 A 
HETATM   16  C   UNL     1       5.217  25.773  53.046  1.00  0.00     0.032 A 
HETATM   17  C   UNL     1       5.462  25.019  54.200  1.00  0.00     0.042 A 
HETATM   18  C   UNL     1       6.549  24.155  54.247  1.00  0.00     0.102 A 
HETATM   19  C   UNL     1       7.405  24.063  53.148  1.00  0.00     0.104 A 
HETATM   20  O   UNL     1       6.724  23.438  55.402  1.00  0.00    -0.346 OA
HETATM   21  C   UNL     1       7.143  24.800  51.992  1.00  0.00     0.069 A 
HETATM   22  O   UNL     1       8.525  23.268  53.133  1.00  0.00    -0.346 OA
HETATM   23  C   UNL     1       8.887  22.863  54.458  1.00  0.00     0.202 C 
HETATM   24  C   UNL     1       7.666  22.375  55.221  1.00  0.00     0.202 C 
ENDBRANCH  13  15
ENDBRANCH   1  13
TORSDOF 2
ENDMDL
MODEL 10
REMARK VINA RESULT:      -8.0      1.891      2.459
REMARK  2 active torsions:
REMARK  status: ('A' for Active; 'I' for Inactive)
REMARK    1  A    between atoms: C_2  and  N_3 
REMARK    2  A    between atoms: N_3  and  C_4 
ROOT
HETATM    1  C   UNL     1       5.869  27.306  53.463  1.00  0.00     0.143 A 
HETATM    2  N   UNL     1       5.158  28.211  54.180  1.00  0.00    -0.223 NA
HETATM    3  C   UNL     1       4.872  27.964  55.466  1.00  0.00     0.236 A 
HETATM    4  N   UNL     1       5.212  26.894  56.184  1.00  0.00    -0.234 NA
HETATM    5  C   UNL     1       5.919  26.007  55.466  1.00  0.00     0.114 A 
HETATM    6  C   UNL     1       6.284  26.126  54.123  1.00  0.00     0.053 A 
HETATM    7  S   UNL     1       6.470  24.550  56.197  1.00  0.00    -0.073 SA
HETATM    8  C   UNL     1       7.188  24.082  54.766  1.00  0.00    -0.008 A 
HETATM    9  C   UNL     1       7.029  24.972  53.739  1.00  0.00    -0.028 A 
HETATM   10  C   UNL     1       7.711  24.481  52.513  1.00  0.00     0.041 C 
HETATM   11  C   UNL     1       8.021  22.992  52.867  1.00  0.00     0.010 C 
HETATM   12  C   UNL     1       7.977  22.878  54.420  1.00  0.00     0.047 C 
ENDROOT
BRANCH   1  13
HETATM   13  N   UNL     1       6.146  27.521  52.105  1.00  0.00    -0.340 N 
HETATM   14  H   UNL     1       7.098  27.796  51.923  1.00  0.00     0.167 HD
BRANCH  13  15
HETATM   15  C   UNL     1       5.347  27.419  50.952  1.00  0.00     0.036 A 
HETATM   16  C   UNL     1       4.980  26.201  50.369  1.00  0.00     0.032 A 
HETATM   17  C   UNL     1       4.210  26.155  49.201  1.00  0.00     0.042 A 
HETATM   18  C   UNL     1       3.807  27.335  48.589  1.00  0.00     0.102 A 
HETATM   19  C   UNL     1       4.195  28.561  49.131  1.00  0.00     0.104 A 
HETATM   20  O   UNL     1       3.046  27.218  47.455  1.00  0.00    -0.346 OA
HETATM   21  C   UNL     1       4.944  28.601  50.308  1.00  0.00     0.069 A 
HETATM   22  O   UNL     1       3.877  29.769  48.561  1.00  0.00    -0.346 OA
HETATM   23  C   UNL     1       3.446  29.601  47.205  1.00  0.00     0.202 C 
HETATM   24  C   UNL     1       2.440  28.467  47.100  1.00  0.00     0.202 C 
ENDBRANCH  13  15
ENDBRANCH   1  13
TORSDOF 2
ENDMDL
