MODEL 1
REMARK VINA RESULT:     -11.0      0.000      0.000
REMARK  4 active torsions:
REMARK  status: ('A' for Active; 'I' for Inactive)
REMARK    1  A    between atoms: N_5  and  C_6 
REMARK    2  A    between atoms: C_6  and  C_7 
REMARK    3  A    between atoms: C_7  and  C_8 
REMARK    4  A    between atoms: C_8  and  N_9 
ROOT
HETATM    1  C   UNL     1       5.773  25.356  51.906  1.00  0.00     0.236 C 
ENDROOT
BRANCH   1   2
HETATM    2  C   UNL     1       7.206  24.842  51.783  1.00  0.00     0.048 C 
BRANCH   2   3
HETATM    3  C   UNL     1       8.024  25.329  52.994  1.00  0.00     0.131 C 
BRANCH   3   4
HETATM    4  N   UNL     1       7.649  24.608  54.224  1.00  0.00    -0.346 N 
HETATM    5  C   UNL     1       7.888  23.209  54.269  1.00  0.00     0.041 A 
HETATM    6  C   UNL     1       8.263  22.503  55.433  1.00  0.00    -0.031 A 
HETATM    7  C   UNL     1       7.664  22.433  53.106  1.00  0.00     0.030 A 
HETATM    8  C   UNL     1       8.435  21.097  55.377  1.00  0.00     0.009 A 
HETATM    9  C   UNL     1       8.473  23.103  56.807  1.00  0.00     0.045 C 
HETATM   10  C   UNL     1       8.251  20.378  54.203  1.00  0.00     0.001 A 
HETATM   11  C   UNL     1       7.855  21.047  53.062  1.00  0.00     0.002 A 
HETATM   12  C   UNL     1       8.893  24.563  56.854  1.00  0.00     0.045 C 
HETATM   13  C   UNL     1       7.728  25.459  56.536  1.00  0.00    -0.031 A 
HETATM   14  C   UNL     1       7.149  25.434  55.258  1.00  0.00     0.042 A 
HETATM   15  C   UNL     1       7.217  26.312  57.533  1.00  0.00     0.011 A 
HETATM   16  C   UNL     1       6.049  26.277  55.017  1.00  0.00     0.054 A 
HETATM   17  C   UNL     1       5.566  27.139  56.002  1.00  0.00     0.036 A 
HETATM   18 CL   UNL     1       4.284  28.222  55.627  1.00  0.00    -0.084 Cl
HETATM   19  C   UNL     1       6.143  27.157  57.263  1.00  0.00     0.024 A 
ENDBRANCH   3   4
ENDBRANCH   2   3
ENDBRANCH   1   2
BRANCH   1  20
HETATM   20  N   UNL     1       5.505  26.690  51.176  1.00  0.00    -0.071 N 
HETATM   21  H   UNL     1       6.464  27.013  50.974  1.00  0.00     0.279 HD
HETATM   22  C   UNL     1       4.845  27.782  51.981  1.00  0.00     0.238 C 
HETATM   23  C   UNL     1       3.830  28.621  51.212  1.00  0.00     0.077 C 
HETATM   24  C   UNL     1       4.044  28.784  49.701  1.00  0.00     0.212 C 
HETATM   25  N   UNL     1       4.589  30.155  49.297  1.00  0.00    -0.032 N 
HETATM   26  C   UNL     1       2.650  28.835  49.042  1.00  0.00     0.256 C 
HETATM   27  C   UNL     1       4.874  27.688  49.034  1.00  0.00     0.077 C 
HETATM   28  H   UNL     1       4.876  30.052  48.311  1.00  0.00     0.283 HD
HETATM   29  C   UNL     1       3.386  31.042  49.173  1.00  0.00     0.290 C 
HETATM   30  C   UNL     1       5.727  30.810  50.003  1.00  0.00     0.239 C 
HETATM   31  C   UNL     1       3.752  32.241  48.315  1.00  0.00     0.055 C 
HETATM   32  N   UNL     1       2.441  30.139  48.628  1.00  0.00    -0.331 N 
HETATM   33  C   UNL     1       4.963  32.973  48.910  1.00  0.00     0.005 C 
HETATM   34  C   UNL     1       6.141  32.032  49.187  1.00  0.00     0.028 C 
HETATM   35  H   UNL     1       1.506  30.413  48.327  1.00  0.00     0.164 HD
HETATM   36  O   UNL     1       1.888  27.898  48.919  1.00  0.00    -0.271 OA
HETATM   37  C   UNL     1       4.833  26.409  49.848  1.00  0.00     0.238 C 
ENDBRANCH   1  20
TORSDOF 4
ENDMDL
MODEL 2
REMARK VINA RESULT:     -11.0      1.331      2.282
REMARK  4 active torsions:
REMARK  status: ('A' for Active; 'I' for Inactive)
REMARK    1  A    between atoms: N_5  and  C_6 
REMARK    2  A    between atoms: C_6  and  C_7 
REMARK    3  A    between atoms: C_7  and  C_8 
REMARK    4  A    between atoms: C_8  and  N_9 
ROOT
HETATM    1  C   UNL     1       5.441  25.230  52.364  1.00  0.00     0.236 C 
ENDROOT
BRANCH   1   2
HETATM    2  C   UNL     1       6.865  24.849  51.961  1.00  0.00     0.048 C 
BRANCH   2   3
HETATM    3  C   UNL     1       7.839  25.289  53.069  1.00  0.00     0.131 C 
BRANCH   3   4
HETATM    4  N   UNL     1       7.562  24.596  54.340  1.00  0.00    -0.346 N 
HETATM    5  C   UNL     1       7.823  23.202  54.403  1.00  0.00     0.041 A 
HETATM    6  C   UNL     1       8.289  22.531  55.555  1.00  0.00    -0.031 A 
HETATM    7  C   UNL     1       7.529  22.393  53.279  1.00  0.00     0.030 A 
HETATM    8  C   UNL     1       8.476  21.126  55.522  1.00  0.00     0.009 A 
HETATM    9  C   UNL     1       8.586  23.169  56.895  1.00  0.00     0.045 C 
HETATM   10  C   UNL     1       8.219  20.374  54.382  1.00  0.00     0.001 A 
HETATM   11  C   UNL     1       7.735  21.010  53.255  1.00  0.00     0.002 A 
HETATM   12  C   UNL     1       8.987  24.635  56.876  1.00  0.00     0.045 C 
HETATM   13  C   UNL     1       7.791  25.508  56.618  1.00  0.00    -0.031 A 
HETATM   14  C   UNL     1       7.124  25.442  55.385  1.00  0.00     0.042 A 
HETATM   15  C   UNL     1       7.339  26.380  57.627  1.00  0.00     0.011 A 
HETATM   16  C   UNL     1       5.998  26.266  55.201  1.00  0.00     0.054 A 
HETATM   17  C   UNL     1       5.574  27.147  56.196  1.00  0.00     0.036 A 
HETATM   18 CL   UNL     1       4.254  28.204  55.886  1.00  0.00    -0.084 Cl
HETATM   19  C   UNL     1       6.237  27.204  57.413  1.00  0.00     0.024 A 
ENDBRANCH   3   4
ENDBRANCH   2   3
ENDBRANCH   1   2
BRANCH   1  20
HETATM   20  N   UNL     1       4.741  26.208  51.396  1.00  0.00    -0.071 N 
HETATM   21  H   UNL     1       3.750  25.945  51.515  1.00  0.00     0.279 HD
HETATM   22  C   UNL     1       5.056  26.052  49.929  1.00  0.00     0.238 C 
HETATM   23  C   UNL     1       5.166  27.361  49.154  1.00  0.00     0.077 C 
HETATM   24  C   UNL     1       4.339  28.553  49.654  1.00  0.00     0.212 C 
HETATM   25  N   UNL     1       3.102  28.848  48.804  1.00  0.00    -0.032 N 
HETATM   26  C   UNL     1       5.166  29.828  49.391  1.00  0.00     0.256 C 
HETATM   27  C   UNL     1       3.945  28.505  51.130  1.00  0.00     0.077 C 
HETATM   28  H   UNL     1       2.545  29.516  49.359  1.00  0.00     0.283 HD
HETATM   29  C   UNL     1       3.587  29.717  47.681  1.00  0.00     0.290 C 
HETATM   30  C   UNL     1       2.161  27.783  48.353  1.00  0.00     0.239 C 
HETATM   31  C   UNL     1       2.399  30.457  47.091  1.00  0.00     0.055 C 
HETATM   32  N   UNL     1       4.554  30.505  48.350  1.00  0.00    -0.331 N 
HETATM   33  C   UNL     1       1.321  29.462  46.640  1.00  0.00     0.005 C 
HETATM   34  C   UNL     1       0.941  28.468  47.743  1.00  0.00     0.028 C 
HETATM   35  H   UNL     1       5.050  31.282  47.914  1.00  0.00     0.164 HD
HETATM   36  O   UNL     1       6.167  30.162  49.992  1.00  0.00    -0.271 OA
HETATM   37  C   UNL     1       4.896  27.623  51.914  1.00  0.00     0.238 C 
ENDBRANCH   1  20
TORSDOF 4
ENDMDL
MODEL 3
REMARK VINA RESULT:     -10.7      5.842     10.026
REMARK  4 active torsions:
REMARK  status: ('A' for Active; 'I' for Inactive)
REMARK    1  A    between atoms: N_5  and  C_6 
REMARK    2  A    between atoms: C_6  and  C_7 
REMARK    3  A    between atoms: C_7  and  C_8 
REMARK    4  A    between atoms: C_8  and  N_9 
ROOT
HETATM    1  C   UNL     1       4.861  30.018  56.417  1.00  0.00     0.236 C 
ENDROOT
BRANCH   1   2
HETATM    2  C   UNL     1       5.141  30.438  57.860  1.00  0.00     0.048 C 
BRANCH   2   3
HETATM    3  C   UNL     1       6.015  31.706  57.857  1.00  0.00     0.131 C 
BRANCH   3   4
HETATM    4  N   UNL     1       5.620  32.637  58.930  1.00  0.00    -0.346 N 
HETATM    5  C   UNL     1       4.629  33.607  58.631  1.00  0.00     0.041 A 
HETATM    6  C   UNL     1       3.664  34.069  59.553  1.00  0.00    -0.031 A 
HETATM    7  C   UNL     1       4.633  34.230  57.359  1.00  0.00     0.030 A 
HETATM    8  C   UNL     1       2.744  35.075  59.163  1.00  0.00     0.009 A 
HETATM    9  C   UNL     1       3.521  33.618  60.991  1.00  0.00     0.045 C 
HETATM   10  C   UNL     1       2.753  35.628  57.888  1.00  0.00     0.001 A 
HETATM   11  C   UNL     1       3.707  35.209  56.983  1.00  0.00     0.002 A 
HETATM   12  C   UNL     1       4.006  32.214  61.314  1.00  0.00     0.045 C 
HETATM   13  C   UNL     1       5.508  32.166  61.347  1.00  0.00    -0.031 A 
HETATM   14  C   UNL     1       6.246  32.394  60.175  1.00  0.00     0.042 A 
HETATM   15  C   UNL     1       6.166  31.906  62.564  1.00  0.00     0.011 A 
HETATM   16  C   UNL     1       7.650  32.359  60.264  1.00  0.00     0.054 A 
HETATM   17  C   UNL     1       8.294  32.072  61.467  1.00  0.00     0.036 A 
HETATM   18 CL   UNL     1      10.008  31.941  61.503  1.00  0.00    -0.084 Cl
HETATM   19  C   UNL     1       7.557  31.851  62.622  1.00  0.00     0.024 A 
ENDBRANCH   3   4
ENDBRANCH   2   3
ENDBRANCH   1   2
BRANCH   1  20
HETATM   20  N   UNL     1       5.578  28.724  55.975  1.00  0.00    -0.071 N 
HETATM   21  H   UNL     1       5.730  28.904  54.970  1.00  0.00     0.279 HD
HETATM   22  C   UNL     1       4.785  27.445  56.068  1.00  0.00     0.238 C 
HETATM   23  C   UNL     1       5.586  26.225  56.515  1.00  0.00     0.077 C 
HETATM   24  C   UNL     1       7.082  26.196  56.174  1.00  0.00     0.212 C 
HETATM   25  N   UNL     1       7.435  25.258  55.018  1.00  0.00    -0.032 N 
HETATM   26  C   UNL     1       7.804  25.485  57.338  1.00  0.00     0.256 C 
HETATM   27  C   UNL     1       7.729  27.561  55.941  1.00  0.00     0.077 C 
HETATM   28  H   UNL     1       8.409  25.493  54.768  1.00  0.00     0.283 HD
HETATM   29  C   UNL     1       7.599  23.903  55.639  1.00  0.00     0.290 C 
HETATM   30  C   UNL     1       6.665  25.227  53.742  1.00  0.00     0.239 C 
HETATM   31  C   UNL     1       8.417  23.033  54.700  1.00  0.00     0.055 C 
HETATM   32  N   UNL     1       8.203  24.244  56.873  1.00  0.00    -0.331 N 
HETATM   33  C   UNL     1       7.754  22.970  53.318  1.00  0.00     0.005 C 
HETATM   34  C   UNL     1       7.439  24.360  52.753  1.00  0.00     0.028 C 
HETATM   35  H   UNL     1       8.543  23.556  57.545  1.00  0.00     0.164 HD
HETATM   36  O   UNL     1       7.980  25.941  58.449  1.00  0.00    -0.271 OA
HETATM   37  C   UNL     1       6.941  28.656  56.632  1.00  0.00     0.238 C 
ENDBRANCH   1  20
TORSDOF 4
ENDMDL
MODEL 4
REMARK VINA RESULT:     -10.7      2.712      9.084
REMARK  4 active torsions:
REMARK  status: ('A' for Active; 'I' for Inactive)
REMARK    1  A    between atoms: N_5  and  C_6 
REMARK    2  A    between atoms: C_6  and  C_7 
REMARK    3  A    between atoms: C_7  and  C_8 
REMARK    4  A    between atoms: C_8  and  N_9 
ROOT
HETATM    1  C   UNL     1       4.718  27.585  52.323  1.00  0.00     0.236 C 
ENDROOT
BRANCH   1   2
HETATM    2  C   UNL     1       5.482  28.767  51.727  1.00  0.00     0.048 C 
BRANCH   2   3
HETATM    3  C   UNL     1       5.706  28.519  50.224  1.00  0.00     0.131 C 
BRANCH   3   4
HETATM    4  N   UNL     1       4.557  28.979  49.423  1.00  0.00    -0.346 N 
HETATM    5  C   UNL     1       3.740  27.992  48.812  1.00  0.00     0.041 A 
HETATM    6  C   UNL     1       2.344  28.112  48.636  1.00  0.00    -0.031 A 
HETATM    7  C   UNL     1       4.346  26.837  48.261  1.00  0.00     0.030 A 
HETATM    8  C   UNL     1       1.628  27.083  47.973  1.00  0.00     0.009 A 
HETATM    9  C   UNL     1       1.493  29.290  49.061  1.00  0.00     0.045 C 
HETATM   10  C   UNL     1       2.256  25.943  47.488  1.00  0.00     0.001 A 
HETATM   11  C   UNL     1       3.625  25.822  47.625  1.00  0.00     0.002 A 
HETATM   12  C   UNL     1       2.001  30.106  50.238  1.00  0.00     0.045 C 
HETATM   13  C   UNL     1       3.160  30.970  49.823  1.00  0.00    -0.031 A 
HETATM   14  C   UNL     1       4.368  30.381  49.420  1.00  0.00     0.042 A 
HETATM   15  C   UNL     1       3.017  32.370  49.829  1.00  0.00     0.011 A 
HETATM   16  C   UNL     1       5.415  31.232  49.023  1.00  0.00     0.054 A 
HETATM   17  C   UNL     1       5.275  32.620  49.058  1.00  0.00     0.036 A 
HETATM   18 CL   UNL     1       6.616  33.619  48.658  1.00  0.00    -0.084 Cl
HETATM   19  C   UNL     1       4.076  33.195  49.455  1.00  0.00     0.024 A 
ENDBRANCH   3   4
ENDBRANCH   2   3
ENDBRANCH   1   2
BRANCH   1  20
HETATM   20  N   UNL     1       5.610  26.415  52.791  1.00  0.00    -0.071 N 
HETATM   21  H   UNL     1       5.879  25.986  51.891  1.00  0.00     0.279 HD
HETATM   22  C   UNL     1       4.938  25.333  53.600  1.00  0.00     0.238 C 
HETATM   23  C   UNL     1       5.785  24.762  54.733  1.00  0.00     0.077 C 
HETATM   24  C   UNL     1       7.309  24.775  54.555  1.00  0.00     0.212 C 
HETATM   25  N   UNL     1       7.905  23.405  54.223  1.00  0.00    -0.032 N 
HETATM   26  C   UNL     1       7.931  25.016  55.946  1.00  0.00     0.256 C 
HETATM   27  C   UNL     1       7.847  25.817  53.576  1.00  0.00     0.077 C 
HETATM   28  H   UNL     1       8.876  23.597  53.931  1.00  0.00     0.283 HD
HETATM   29  C   UNL     1       8.112  22.728  55.545  1.00  0.00     0.290 C 
HETATM   30  C   UNL     1       7.321  22.502  53.190  1.00  0.00     0.239 C 
HETATM   31  C   UNL     1       9.130  21.615  55.367  1.00  0.00     0.055 C 
HETATM   32  N   UNL     1       8.508  23.824  56.349  1.00  0.00    -0.331 N 
HETATM   33  C   UNL     1       8.670  20.641  54.274  1.00  0.00     0.005 C 
HETATM   34  C   UNL     1       8.302  21.354  52.968  1.00  0.00     0.028 C 
HETATM   35  H   UNL     1       8.817  23.733  57.316  1.00  0.00     0.164 HD
HETATM   36  O   UNL     1       7.910  26.063  56.562  1.00  0.00    -0.271 OA
HETATM   37  C   UNL     1       6.871  26.967  53.422  1.00  0.00     0.238 C 
ENDBRANCH   1  20
TORSDOF 4
ENDMDL
MODEL 5
REMARK VINA RESULT:     -10.6      4.127      6.484
REMARK  4 active torsions:
REMARK  status: ('A' for Active; 'I' for Inactive)
REMARK    1  A    between atoms: N_5  and  C_6 
REMARK    2  A    between atoms: C_6  and  C_7 
REMARK    3  A    between atoms: C_7  and  C_8 
REMARK    4  A    between atoms: C_8  and  N_9 
ROOT
HETATM    1  C   UNL     1       4.300  27.498  53.427  1.00  0.00     0.236 C 
ENDROOT
BRANCH   1   2
HETATM    2  C   UNL     1       4.994  26.162  53.688  1.00  0.00     0.048 C 
BRANCH   2   3
HETATM    3  C   UNL     1       6.485  26.287  53.325  1.00  0.00     0.131 C 
BRANCH   3   4
HETATM    4  N   UNL     1       7.350  25.935  54.466  1.00  0.00    -0.346 N 
HETATM    5  C   UNL     1       7.886  26.996  55.242  1.00  0.00     0.041 A 
HETATM    6  C   UNL     1       8.103  26.932  56.635  1.00  0.00    -0.031 A 
HETATM    7  C   UNL     1       8.316  28.178  54.591  1.00  0.00     0.030 A 
HETATM    8  C   UNL     1       8.685  28.037  57.307  1.00  0.00     0.009 A 
HETATM    9  C   UNL     1       7.806  25.746  57.527  1.00  0.00     0.045 C 
HETATM   10  C   UNL     1       9.050  29.198  56.638  1.00  0.00     0.001 A 
HETATM   11  C   UNL     1       8.873  29.267  55.270  1.00  0.00     0.002 A 
HETATM   12  C   UNL     1       6.698  24.812  57.070  1.00  0.00     0.045 C 
HETATM   13  C   UNL     1       7.164  23.956  55.925  1.00  0.00    -0.031 A 
HETATM   14  C   UNL     1       7.485  24.545  54.692  1.00  0.00     0.042 A 
HETATM   15  C   UNL     1       7.289  22.566  56.105  1.00  0.00     0.011 A 
HETATM   16  C   UNL     1       7.936  23.703  53.659  1.00  0.00     0.054 A 
HETATM   17  C   UNL     1       8.030  22.322  53.836  1.00  0.00     0.036 A 
HETATM   18 CL   UNL     1       8.490  21.326  52.513  1.00  0.00    -0.084 Cl
HETATM   19  C   UNL     1       7.714  21.749  55.060  1.00  0.00     0.024 A 
ENDBRANCH   3   4
ENDBRANCH   2   3
ENDBRANCH   1   2
BRANCH   1  20
HETATM   20  N   UNL     1       4.591  28.588  54.480  1.00  0.00    -0.071 N 
HETATM   21  H   UNL     1       5.621  28.551  54.539  1.00  0.00     0.279 HD
HETATM   22  C   UNL     1       4.070  28.339  55.874  1.00  0.00     0.238 C 
HETATM   23  C   UNL     1       3.543  29.578  56.592  1.00  0.00     0.077 C 
HETATM   24  C   UNL     1       4.162  30.932  56.217  1.00  0.00     0.212 C 
HETATM   25  N   UNL     1       5.138  31.476  57.262  1.00  0.00    -0.032 N 
HETATM   26  C   UNL     1       3.042  31.989  56.308  1.00  0.00     0.256 C 
HETATM   27  C   UNL     1       4.805  30.999  54.833  1.00  0.00     0.077 C 
HETATM   28  H   UNL     1       5.622  32.260  56.796  1.00  0.00     0.283 HD
HETATM   29  C   UNL     1       4.288  32.196  58.266  1.00  0.00     0.290 C 
HETATM   30  C   UNL     1       6.198  30.636  57.889  1.00  0.00     0.239 C 
HETATM   31  C   UNL     1       5.164  33.169  59.037  1.00  0.00     0.055 C 
HETATM   32  N   UNL     1       3.301  32.764  57.425  1.00  0.00    -0.331 N 
HETATM   33  C   UNL     1       6.340  32.427  59.686  1.00  0.00     0.005 C 
HETATM   34  C   UNL     1       7.114  31.561  58.686  1.00  0.00     0.028 C 
HETATM   35  H   UNL     1       2.580  33.406  57.753  1.00  0.00     0.164 HD
HETATM   36  O   UNL     1       2.111  32.105  55.537  1.00  0.00    -0.271 OA
HETATM   37  C   UNL     1       4.220  29.943  53.914  1.00  0.00     0.238 C 
ENDBRANCH   1  20
TORSDOF 4
ENDMDL
MODEL 6
REMARK VINA RESULT:     -10.5      5.787      9.808
REMARK  4 active torsions:
REMARK  status: ('A' for Active; 'I' for Inactive)
REMARK    1  A    between atoms: N_5  and  C_6 
REMARK    2  A    between atoms: C_6  and  C_7 
REMARK    3  A    between atoms: C_7  and  C_8 
REMARK    4  A    between atoms: C_8  and  N_9 
ROOT
HETATM    1  C   UNL     1       4.745  30.750  56.225  1.00  0.00     0.236 C 
ENDROOT
BRANCH   1   2
HETATM    2  C   UNL     1       5.569  31.598  57.193  1.00  0.00     0.048 C 
BRANCH   2   3
HETATM    3  C   UNL     1       4.909  31.562  58.584  1.00  0.00     0.131 C 
BRANCH   3   4
HETATM    4  N   UNL     1       5.621  32.426  59.543  1.00  0.00    -0.346 N 
HETATM    5  C   UNL     1       4.982  33.625  59.953  1.00  0.00     0.041 A 
HETATM    6  C   UNL     1       5.092  34.184  61.245  1.00  0.00    -0.031 A 
HETATM    7  C   UNL     1       4.244  34.374  59.004  1.00  0.00     0.030 A 
HETATM    8  C   UNL     1       4.445  35.411  61.538  1.00  0.00     0.009 A 
HETATM    9  C   UNL     1       5.894  33.612  62.394  1.00  0.00     0.045 C 
HETATM   10  C   UNL     1       3.692  36.092  60.589  1.00  0.00     0.001 A 
HETATM   11  C   UNL     1       3.597  35.575  59.312  1.00  0.00     0.002 A 
HETATM   12  C   UNL     1       6.105  32.107  62.394  1.00  0.00     0.045 C 
HETATM   13  C   UNL     1       7.125  31.715  61.362  1.00  0.00    -0.031 A 
HETATM   14  C   UNL     1       6.855  31.905  59.998  1.00  0.00     0.042 A 
HETATM   15  C   UNL     1       8.356  31.172  61.775  1.00  0.00     0.011 A 
HETATM   16  C   UNL     1       7.850  31.540  59.073  1.00  0.00     0.054 A 
HETATM   17  C   UNL     1       9.056  30.976  59.489  1.00  0.00     0.036 A 
HETATM   18 CL   UNL     1      10.200  30.456  58.315  1.00  0.00    -0.084 Cl
HETATM   19  C   UNL     1       9.317  30.795  60.840  1.00  0.00     0.024 A 
ENDBRANCH   3   4
ENDBRANCH   2   3
ENDBRANCH   1   2
BRANCH   1  20
HETATM   20  N   UNL     1       5.456  29.473  55.725  1.00  0.00    -0.071 N 
HETATM   21  H   UNL     1       5.605  29.695  54.728  1.00  0.00     0.279 HD
HETATM   22  C   UNL     1       4.658  28.194  55.768  1.00  0.00     0.238 C 
HETATM   23  C   UNL     1       5.457  26.954  56.160  1.00  0.00     0.077 C 
HETATM   24  C   UNL     1       6.951  26.934  55.813  1.00  0.00     0.212 C 
HETATM   25  N   UNL     1       7.297  26.044  54.616  1.00  0.00    -0.032 N 
HETATM   26  C   UNL     1       7.675  26.172  56.942  1.00  0.00     0.256 C 
HETATM   27  C   UNL     1       7.602  28.304  55.634  1.00  0.00     0.077 C 
HETATM   28  H   UNL     1       8.270  26.285  54.373  1.00  0.00     0.283 HD
HETATM   29  C   UNL     1       7.457  24.663  55.180  1.00  0.00     0.290 C 
HETATM   30  C   UNL     1       6.521  26.069  53.344  1.00  0.00     0.239 C 
HETATM   31  C   UNL     1       8.269  23.831  54.202  1.00  0.00     0.055 C 
HETATM   32  N   UNL     1       8.068  24.950  56.425  1.00  0.00    -0.331 N 
HETATM   33  C   UNL     1       7.600  23.828  52.821  1.00  0.00     0.005 C 
HETATM   34  C   UNL     1       7.288  25.242  52.315  1.00  0.00     0.028 C 
HETATM   35  H   UNL     1       8.407  24.233  57.066  1.00  0.00     0.164 HD
HETATM   36  O   UNL     1       7.856  26.580  58.072  1.00  0.00    -0.271 OA
HETATM   37  C   UNL     1       6.821  29.373  56.374  1.00  0.00     0.238 C 
ENDBRANCH   1  20
TORSDOF 4
ENDMDL
MODEL 7
REMARK VINA RESULT:     -10.4      6.591     10.503
REMARK  4 active torsions:
REMARK  status: ('A' for Active; 'I' for Inactive)
REMARK    1  A    between atoms: N_5  and  C_6 
REMARK    2  A    between atoms: C_6  and  C_7 
REMARK    3  A    between atoms: C_7  and  C_8 
REMARK    4  A    between atoms: C_8  and  N_9 
ROOT
HETATM    1  C   UNL     1       3.911  31.239  58.344  1.00  0.00     0.236 C 
ENDROOT
BRANCH   1   2
HETATM    2  C   UNL     1       4.903  32.173  59.036  1.00  0.00     0.048 C 
BRANCH   2   3
HETATM    3  C   UNL     1       4.591  32.214  60.543  1.00  0.00     0.131 C 
BRANCH   3   4
HETATM    4  N   UNL     1       5.490  33.141  61.255  1.00  0.00    -0.346 N 
HETATM    5  C   UNL     1       4.913  34.287  61.860  1.00  0.00     0.041 A 
HETATM    6  C   UNL     1       5.365  34.863  63.068  1.00  0.00    -0.031 A 
HETATM    7  C   UNL     1       3.866  34.968  61.192  1.00  0.00     0.030 A 
HETATM    8  C   UNL     1       4.743  36.037  63.563  1.00  0.00     0.009 A 
HETATM    9  C   UNL     1       6.521  34.367  63.910  1.00  0.00     0.045 C 
HETATM   10  C   UNL     1       3.686  36.648  62.899  1.00  0.00     0.001 A 
HETATM   11  C   UNL     1       3.250  36.115  61.702  1.00  0.00     0.002 A 
HETATM   12  C   UNL     1       6.840  32.884  63.820  1.00  0.00     0.045 C 
HETATM   13  C   UNL     1       7.526  32.567  62.521  1.00  0.00    -0.031 A 
HETATM   14  C   UNL     1       6.841  32.723  61.306  1.00  0.00     0.042 A 
HETATM   15  C   UNL     1       8.863  32.127  62.533  1.00  0.00     0.011 A 
HETATM   16  C   UNL     1       7.534  32.433  60.117  1.00  0.00     0.054 A 
HETATM   17  C   UNL     1       8.850  31.971  60.139  1.00  0.00     0.036 A 
HETATM   18 CL   UNL     1       9.621  31.534  58.665  1.00  0.00    -0.084 Cl
HETATM   19  C   UNL     1       9.522  31.822  61.344  1.00  0.00     0.024 A 
ENDBRANCH   3   4
ENDBRANCH   2   3
ENDBRANCH   1   2
BRANCH   1  20
HETATM   20  N   UNL     1       4.548  29.988  57.701  1.00  0.00    -0.071 N 
HETATM   21  H   UNL     1       4.364  29.269  58.418  1.00  0.00     0.279 HD
HETATM   22  C   UNL     1       6.043  30.019  57.497  1.00  0.00     0.238 C 
HETATM   23  C   UNL     1       6.527  29.368  56.206  1.00  0.00     0.077 C 
HETATM   24  C   UNL     1       5.682  28.225  55.628  1.00  0.00     0.212 C 
HETATM   25  N   UNL     1       6.284  26.836  55.850  1.00  0.00    -0.032 N 
HETATM   26  C   UNL     1       5.769  28.321  54.090  1.00  0.00     0.256 C 
HETATM   27  C   UNL     1       4.213  28.218  56.048  1.00  0.00     0.077 C 
HETATM   28  H   UNL     1       5.532  26.173  55.606  1.00  0.00     0.283 HD
HETATM   29  C   UNL     1       7.247  26.632  54.718  1.00  0.00     0.290 C 
HETATM   30  C   UNL     1       6.829  26.395  57.166  1.00  0.00     0.239 C 
HETATM   31  C   UNL     1       7.508  25.144  54.563  1.00  0.00     0.055 C 
HETATM   32  N   UNL     1       6.554  27.266  53.658  1.00  0.00    -0.331 N 
HETATM   33  C   UNL     1       8.020  24.553  55.884  1.00  0.00     0.005 C 
HETATM   34  C   UNL     1       7.117  24.899  57.073  1.00  0.00     0.028 C 
HETATM   35  H   UNL     1       6.873  27.258  52.690  1.00  0.00     0.164 HD
HETATM   36  O   UNL     1       5.243  29.172  53.401  1.00  0.00    -0.271 OA
HETATM   37  C   UNL     1       3.764  29.605  56.464  1.00  0.00     0.238 C 
ENDBRANCH   1  20
TORSDOF 4
ENDMDL
MODEL 8
REMARK VINA RESULT:     -10.4      2.262      3.940
REMARK  4 active torsions:
REMARK  status: ('A' for Active; 'I' for Inactive)
REMARK    1  A    between atoms: N_5  and  C_6 
REMARK    2  A    between atoms: C_6  and  C_7 
REMARK    3  A    between atoms: C_7  and  C_8 
REMARK    4  A    between atoms: C_8  and  N_9 
ROOT
HETATM    1  C   UNL     1       4.602  26.681  53.004  1.00  0.00     0.236 C 
ENDROOT
BRANCH   1   2
HETATM    2  C   UNL     1       5.028  25.228  52.803  1.00  0.00     0.048 C 
BRANCH   2   3
HETATM    3  C   UNL     1       6.551  25.173  52.585  1.00  0.00     0.131 C 
BRANCH   3   4
HETATM    4  N   UNL     1       7.277  25.070  53.864  1.00  0.00    -0.346 N 
HETATM    5  C   UNL     1       7.592  26.276  54.544  1.00  0.00     0.041 A 
HETATM    6  C   UNL     1       7.615  26.415  55.949  1.00  0.00    -0.031 A 
HETATM    7  C   UNL     1       7.993  27.407  53.793  1.00  0.00     0.030 A 
HETATM    8  C   UNL     1       7.987  27.656  56.526  1.00  0.00     0.009 A 
HETATM    9  C   UNL     1       7.313  25.325  56.955  1.00  0.00     0.045 C 
HETATM   10  C   UNL     1       8.329  28.757  55.751  1.00  0.00     0.001 A 
HETATM   11  C   UNL     1       8.340  28.631  54.376  1.00  0.00     0.002 A 
HETATM   12  C   UNL     1       6.376  24.219  56.497  1.00  0.00     0.045 C 
HETATM   13  C   UNL     1       7.080  23.285  55.553  1.00  0.00    -0.031 A 
HETATM   14  C   UNL     1       7.513  23.745  54.299  1.00  0.00     0.042 A 
HETATM   15  C   UNL     1       7.313  21.952  55.941  1.00  0.00     0.011 A 
HETATM   16  C   UNL     1       8.184  22.837  53.461  1.00  0.00     0.054 A 
HETATM   17  C   UNL     1       8.386  21.510  53.842  1.00  0.00     0.036 A 
HETATM   18 CL   UNL     1       9.123  20.414  52.742  1.00  0.00    -0.084 Cl
HETATM   19  C   UNL     1       7.958  21.064  55.084  1.00  0.00     0.024 A 
ENDBRANCH   3   4
ENDBRANCH   2   3
ENDBRANCH   1   2
BRANCH   1  20
HETATM   20  N   UNL     1       4.510  27.509  51.704  1.00  0.00    -0.071 N 
HETATM   21  H   UNL     1       5.404  28.025  51.722  1.00  0.00     0.279 HD
HETATM   22  C   UNL     1       3.416  28.545  51.636  1.00  0.00     0.238 C 
HETATM   23  C   UNL     1       2.751  28.686  50.270  1.00  0.00     0.077 C 
HETATM   24  C   UNL     1       3.597  28.360  49.033  1.00  0.00     0.212 C 
HETATM   25  N   UNL     1       4.071  29.595  48.264  1.00  0.00    -0.032 N 
HETATM   26  C   UNL     1       2.655  27.728  47.987  1.00  0.00     0.256 C 
HETATM   27  C   UNL     1       4.779  27.423  49.275  1.00  0.00     0.077 C 
HETATM   28  H   UNL     1       4.781  29.244  47.602  1.00  0.00     0.283 HD
HETATM   29  C   UNL     1       2.943  29.948  47.341  1.00  0.00     0.290 C 
HETATM   30  C   UNL     1       4.668  30.783  48.938  1.00  0.00     0.239 C 
HETATM   31  C   UNL     1       3.487  30.813  46.217  1.00  0.00     0.055 C 
HETATM   32  N   UNL     1       2.478  28.660  46.980  1.00  0.00    -0.331 N 
HETATM   33  C   UNL     1       4.188  32.052  46.789  1.00  0.00     0.005 C 
HETATM   34  C   UNL     1       5.232  31.698  47.854  1.00  0.00     0.028 C 
HETATM   35  H   UNL     1       1.750  28.497  46.284  1.00  0.00     0.164 HD
HETATM   36  O   UNL     1       2.166  26.618  48.050  1.00  0.00    -0.271 OA
HETATM   37  C   UNL     1       4.553  26.576  50.511  1.00  0.00     0.238 C 
ENDBRANCH   1  20
TORSDOF 4
ENDMDL
MODEL 9
REMARK VINA RESULT:     -10.1      1.656      2.221
REMARK  4 active torsions:
REMARK  status: ('A' for Active; 'I' for Inactive)
REMARK    1  A    between atoms: N_5  and  C_6 
REMARK    2  A    between atoms: C_6  and  C_7 
REMARK    3  A    between atoms: C_7  and  C_8 
REMARK    4  A    between atoms: C_8  and  N_9 
ROOT
HETATM    1  C   UNL     1       5.754  26.141  51.239  1.00  0.00     0.236 C 
ENDROOT
BRANCH   1   2
HETATM    2  C   UNL     1       5.551  26.664  52.660  1.00  0.00     0.048 C 
BRANCH   2   3
HETATM    3  C   UNL     1       6.923  26.827  53.339  1.00  0.00     0.131 C 
BRANCH   3   4
HETATM    4  N   UNL     1       6.885  26.391  54.747  1.00  0.00    -0.346 N 
HETATM    5  C   UNL     1       7.320  25.073  55.043  1.00  0.00     0.041 A 
HETATM    6  C   UNL     1       7.997  24.705  56.226  1.00  0.00    -0.031 A 
HETATM    7  C   UNL     1       6.998  24.022  54.150  1.00  0.00     0.030 A 
HETATM    8  C   UNL     1       8.350  23.348  56.441  1.00  0.00     0.009 A 
HETATM    9  C   UNL     1       8.370  25.634  57.362  1.00  0.00     0.045 C 
HETATM   10  C   UNL     1       8.056  22.354  55.517  1.00  0.00     0.001 A 
HETATM   11  C   UNL     1       7.368  22.691  54.367  1.00  0.00     0.002 A 
HETATM   12  C   UNL     1       8.583  27.095  57.003  1.00  0.00     0.045 C 
HETATM   13  C   UNL     1       7.267  27.776  56.750  1.00  0.00    -0.031 A 
HETATM   14  C   UNL     1       6.472  27.390  55.659  1.00  0.00     0.042 A 
HETATM   15  C   UNL     1       6.833  28.792  57.623  1.00  0.00     0.011 A 
HETATM   16  C   UNL     1       5.240  28.045  55.478  1.00  0.00     0.054 A 
HETATM   17  C   UNL     1       4.830  29.070  56.332  1.00  0.00     0.036 A 
HETATM   18 CL   UNL     1       3.363  29.906  56.010  1.00  0.00    -0.084 Cl
HETATM   19  C   UNL     1       5.620  29.443  57.410  1.00  0.00     0.024 A 
ENDBRANCH   3   4
ENDBRANCH   2   3
ENDBRANCH   1   2
BRANCH   1  20
HETATM   20  N   UNL     1       5.241  27.084  50.129  1.00  0.00    -0.071 N 
HETATM   21  H   UNL     1       6.122  27.491  49.778  1.00  0.00     0.279 HD
HETATM   22  C   UNL     1       4.378  28.240  50.569  1.00  0.00     0.238 C 
HETATM   23  C   UNL     1       3.226  28.576  49.625  1.00  0.00     0.077 C 
HETATM   24  C   UNL     1       3.418  28.264  48.135  1.00  0.00     0.212 C 
HETATM   25  N   UNL     1       3.693  29.499  47.274  1.00  0.00    -0.032 N 
HETATM   26  C   UNL     1       2.044  27.837  47.576  1.00  0.00     0.256 C 
HETATM   27  C   UNL     1       4.447  27.181  47.818  1.00  0.00     0.077 C 
HETATM   28  H   UNL     1       4.001  29.129  46.362  1.00  0.00     0.283 HD
HETATM   29  C   UNL     1       2.343  30.058  46.936  1.00  0.00     0.290 C 
HETATM   30  C   UNL     1       4.678  30.547  47.663  1.00  0.00     0.239 C 
HETATM   31  C   UNL     1       2.479  30.950  45.714  1.00  0.00     0.055 C 
HETATM   32  N   UNL     1       1.593  28.869  46.771  1.00  0.00    -0.331 N 
HETATM   33  C   UNL     1       3.522  32.046  45.967  1.00  0.00     0.005 C 
HETATM   34  C   UNL     1       4.856  31.483  46.469  1.00  0.00     0.028 C 
HETATM   35  H   UNL     1       0.625  28.851  46.450  1.00  0.00     0.164 HD
HETATM   36  O   UNL     1       1.477  26.789  47.809  1.00  0.00    -0.271 OA
HETATM   37  C   UNL     1       4.646  26.260  49.006  1.00  0.00     0.238 C 
ENDBRANCH   1  20
TORSDOF 4
ENDMDL
MODEL 10
REMARK VINA RESULT:      -9.9      6.436     10.530
REMARK  4 active torsions:
REMARK  status: ('A' for Active; 'I' for Inactive)
REMARK    1  A    between atoms: N_5  and  C_6 
REMARK    2  A    between atoms: C_6  and  C_7 
REMARK    3  A    between atoms: C_7  and  C_8 
REMARK    4  A    between atoms: C_8  and  N_9 
ROOT
HETATM    1  C   UNL     1       4.978  30.946  57.324  1.00  0.00     0.236 C 
ENDROOT
BRANCH   1   2
HETATM    2  C   UNL     1       5.731  31.719  58.406  1.00  0.00     0.048 C 
BRANCH   2   3
HETATM    3  C   UNL     1       4.766  32.035  59.564  1.00  0.00     0.131 C 
BRANCH   3   4
HETATM    4  N   UNL     1       5.169  33.257  60.284  1.00  0.00    -0.346 N 
HETATM    5  C   UNL     1       4.519  34.471  59.941  1.00  0.00     0.041 A 
HETATM    6  C   UNL     1       4.221  35.501  60.858  1.00  0.00    -0.031 A 
HETATM    7  C   UNL     1       4.211  34.729  58.583  1.00  0.00     0.030 A 
HETATM    8  C   UNL     1       3.606  36.695  60.400  1.00  0.00     0.009 A 
HETATM    9  C   UNL     1       4.535  35.491  62.339  1.00  0.00     0.045 C 
HETATM   10  C   UNL     1       3.278  36.889  59.065  1.00  0.00     0.001 A 
HETATM   11  C   UNL     1       3.588  35.904  58.148  1.00  0.00     0.002 A 
HETATM   12  C   UNL     1       4.620  34.128  63.006  1.00  0.00     0.045 C 
HETATM   13  C   UNL     1       5.900  33.434  62.632  1.00  0.00    -0.031 A 
HETATM   14  C   UNL     1       6.129  33.048  61.302  1.00  0.00     0.042 A 
HETATM   15  C   UNL     1       6.870  33.188  63.622  1.00  0.00     0.011 A 
HETATM   16  C   UNL     1       7.351  32.420  61.000  1.00  0.00     0.054 A 
HETATM   17  C   UNL     1       8.296  32.155  61.992  1.00  0.00     0.036 A 
HETATM   18 CL   UNL     1       9.730  31.296  61.591  1.00  0.00    -0.084 Cl
HETATM   19  C   UNL     1       8.063  32.542  63.304  1.00  0.00     0.024 A 
ENDBRANCH   3   4
ENDBRANCH   2   3
ENDBRANCH   1   2
BRANCH   1  20
HETATM   20  N   UNL     1       5.545  29.541  57.027  1.00  0.00    -0.071 N 
HETATM   21  H   UNL     1       5.776  29.206  57.975  1.00  0.00     0.279 HD
HETATM   22  C   UNL     1       6.821  29.481  56.225  1.00  0.00     0.238 C 
HETATM   23  C   UNL     1       6.896  28.332  55.224  1.00  0.00     0.077 C 
HETATM   24  C   UNL     1       6.119  27.051  55.556  1.00  0.00     0.212 C 
HETATM   25  N   UNL     1       7.002  25.898  56.037  1.00  0.00    -0.032 N 
HETATM   26  C   UNL     1       5.604  26.468  54.224  1.00  0.00     0.256 C 
HETATM   27  C   UNL     1       4.942  27.227  56.515  1.00  0.00     0.077 C 
HETATM   28  H   UNL     1       6.348  25.195  56.413  1.00  0.00     0.283 HD
HETATM   29  C   UNL     1       7.490  25.222  54.790  1.00  0.00     0.290 C 
HETATM   30  C   UNL     1       8.071  26.075  57.061  1.00  0.00     0.239 C 
HETATM   31  C   UNL     1       7.941  23.815  55.144  1.00  0.00     0.055 C 
HETATM   32  N   UNL     1       6.347  25.331  53.961  1.00  0.00    -0.331 N 
HETATM   33  C   UNL     1       9.009  23.859  56.245  1.00  0.00     0.005 C 
HETATM   34  C   UNL     1       8.570  24.688  57.457  1.00  0.00     0.028 C 
HETATM   35  H   UNL     1       6.276  24.902  53.038  1.00  0.00     0.164 HD
HETATM   36  O   UNL     1       4.713  26.933  53.542  1.00  0.00    -0.271 OA
HETATM   37  C   UNL     1       4.437  28.656  56.494  1.00  0.00     0.238 C 
ENDBRANCH   1  20
TORSDOF 4
ENDMDL
