MODEL 1
REMARK VINA RESULT:      -9.6      0.000      0.000
REMARK  13 active torsions:
REMARK  status: ('A' for Active; 'I' for Inactive)
REMARK    1  A    between atoms: O_2  and  C_3 
REMARK    2  A    between atoms: C_6  and  C_7 
REMARK    3  A    between atoms: C_7  and  C_8 
REMARK    4  A    between atoms: C_9  and  C_10 
REMARK    5  A    between atoms: N_17  and  C_18 
REMARK    6  A    between atoms: C_18  and  C_19 
REMARK    7  A    between atoms: C_19  and  O_20 
REMARK    8  A    between atoms: C_19  and  C_21 
REMARK    9  A    between atoms: C_21  and  N_22 
REMARK   10  A    between atoms: N_22  and  C_25 
REMARK   11  A    between atoms: C_25  and  C_26 
REMARK   12  A    between atoms: C_26  and  C_27 
REMARK   13  A    between atoms: C_32  and  O_33 
ROOT
HETATM    1  C   UNL     1       6.091  30.991  58.556  1.00  0.00     0.162 C 
ENDROOT
BRANCH   1   2
HETATM    2  N   UNL     1       6.979  30.301  57.632  1.00  0.00    -0.353 N 
HETATM    3  C   UNL     1       8.357  30.371  57.648  1.00  0.00     0.045 A 
HETATM    4  C   UNL     1       8.822  29.495  56.657  1.00  0.00     0.002 A 
HETATM    5  C   UNL     1       9.233  31.112  58.463  1.00  0.00     0.030 A 
HETATM    6  C   UNL     1       7.669  28.937  56.016  1.00  0.00    -0.008 A 
HETATM    7  C   UNL     1      10.221  29.340  56.517  1.00  0.00     0.014 A 
HETATM    8  C   UNL     1       6.555  29.450  56.650  1.00  0.00     0.103 A 
HETATM    9  C   UNL     1      11.097  30.075  57.322  1.00  0.00     0.001 A 
HETATM   10  C   UNL     1      10.606  30.954  58.278  1.00  0.00     0.002 A 
BRANCH   6  11
HETATM   11  C   UNL     1       7.558  28.002  54.940  1.00  0.00     0.018 C 
HETATM   12  C   UNL     1       6.454  27.332  54.573  1.00  0.00     0.056 C 
BRANCH  12  13
HETATM   13  C   UNL     1       6.503  26.413  53.401  1.00  0.00     0.182 C 
HETATM   14  O   UNL     1       6.111  26.772  52.294  1.00  0.00    -0.288 OA
BRANCH  13  15
HETATM   15  C   UNL     1       6.977  25.015  53.610  1.00  0.00     0.014 A 
HETATM   16  C   UNL     1       7.605  24.259  52.613  1.00  0.00     0.018 A 
HETATM   17  C   UNL     1       8.062  22.967  52.900  1.00  0.00     0.037 A 
HETATM   18  C   UNL     1       7.893  22.410  54.169  1.00  0.00     0.068 A 
HETATM   19  C   UNL     1       7.236  23.146  55.153  1.00  0.00     0.037 A 
HETATM   20  C   UNL     1       6.779  24.440  54.873  1.00  0.00     0.018 A 
BRANCH  18  21
HETATM   21  O   UNL     1       8.402  21.150  54.311  1.00  0.00    -0.356 OA
HETATM   22  C   UNL     1       8.415  20.325  53.152  1.00  0.00     0.210 C 
ENDBRANCH  18  21
ENDBRANCH  13  15
ENDBRANCH  12  13
ENDBRANCH   6  11
ENDBRANCH   1   2
BRANCH   1  23
HETATM   23  C   UNL     1       4.663  31.111  58.000  1.00  0.00     0.162 C 
BRANCH  23  24
HETATM   24  O   UNL     1       3.825  30.074  58.517  1.00  0.00    -0.392 OA
HETATM   25  H   UNL     1       2.903  30.403  58.568  1.00  0.00     0.210 HD
ENDBRANCH  23  24
BRANCH  23  26
HETATM   26  C   UNL     1       3.996  32.435  58.420  1.00  0.00     0.265 C 
BRANCH  26  27
HETATM   27  N   UNL     1       3.277  32.347  59.734  1.00  0.00    -0.072 N 
HETATM   28  H   UNL     1       2.415  31.792  59.665  1.00  0.00     0.277 HD
HETATM   29  H   UNL     1       3.883  31.857  60.407  1.00  0.00     0.277 HD
BRANCH  27  30
HETATM   30  C   UNL     1       2.938  33.684  60.351  1.00  0.00     0.237 C 
BRANCH  30  31
HETATM   31  C   UNL     1       4.178  34.568  60.500  1.00  0.00     0.068 C 
BRANCH  31  32
HETATM   32  C   UNL     1       4.718  34.534  61.889  1.00  0.00    -0.029 A 
HETATM   33  C   UNL     1       5.880  33.825  62.334  1.00  0.00     0.001 A 
HETATM   34  C   UNL     1       6.021  34.071  63.698  1.00  0.00     0.043 A 
HETATM   35  C   UNL     1       6.830  32.996  61.703  1.00  0.00     0.051 A 
HETATM   36  C   UNL     1       7.060  33.526  64.460  1.00  0.00     0.033 A 
HETATM   37  N   UNL     1       4.996  34.908  64.071  1.00  0.00    -0.365 N 
HETATM   38  C   UNL     1       7.986  32.700  63.808  1.00  0.00     0.039 A 
HETATM   39  C   UNL     1       7.879  32.434  62.445  1.00  0.00     0.069 A 
HETATM   40  H   UNL     1       4.863  35.267  65.008  1.00  0.00     0.165 HD
HETATM   41  C   UNL     1       4.199  35.187  62.990  1.00  0.00     0.096 A 
BRANCH  39  42
HETATM   42  O   UNL     1       8.723  31.645  61.710  1.00  0.00    -0.356 OA
HETATM   43  C   UNL     1       9.056  30.375  62.258  1.00  0.00     0.210 C 
ENDBRANCH  39  42
ENDBRANCH  31  32
ENDBRANCH  30  31
ENDBRANCH  27  30
ENDBRANCH  26  27
ENDBRANCH  23  26
ENDBRANCH   1  23
TORSDOF 13
ENDMDL
MODEL 2
REMARK VINA RESULT:      -9.6      2.676     11.516
REMARK  13 active torsions:
REMARK  status: ('A' for Active; 'I' for Inactive)
REMARK    1  A    between atoms: O_2  and  C_3 
REMARK    2  A    between atoms: C_6  and  C_7 
REMARK    3  A    between atoms: C_7  and  C_8 
REMARK    4  A    between atoms: C_9  and  C_10 
REMARK    5  A    between atoms: N_17  and  C_18 
REMARK    6  A    between atoms: C_18  and  C_19 
REMARK    7  A    between atoms: C_19  and  O_20 
REMARK    8  A    between atoms: C_19  and  C_21 
REMARK    9  A    between atoms: C_21  and  N_22 
REMARK   10  A    between atoms: N_22  and  C_25 
REMARK   11  A    between atoms: C_25  and  C_26 
REMARK   12  A    between atoms: C_26  and  C_27 
REMARK   13  A    between atoms: C_32  and  O_33 
ROOT
HETATM    1  C   UNL     1       5.730  31.071  57.246  1.00  0.00     0.162 C 
ENDROOT
BRANCH   1   2
HETATM    2  N   UNL     1       6.084  31.618  58.547  1.00  0.00    -0.353 N 
HETATM    3  C   UNL     1       7.354  31.641  59.084  1.00  0.00     0.045 A 
HETATM    4  C   UNL     1       7.271  32.331  60.303  1.00  0.00     0.002 A 
HETATM    5  C   UNL     1       8.572  31.137  58.592  1.00  0.00     0.030 A 
HETATM    6  C   UNL     1       5.894  32.674  60.496  1.00  0.00    -0.008 A 
HETATM    7  C   UNL     1       8.469  32.544  61.023  1.00  0.00     0.014 A 
HETATM    8  C   UNL     1       5.197  32.227  59.392  1.00  0.00     0.103 A 
HETATM    9  C   UNL     1       9.682  32.042  60.541  1.00  0.00     0.001 A 
HETATM   10  C   UNL     1       9.729  31.342  59.343  1.00  0.00     0.002 A 
BRANCH   6  11
HETATM   11  C   UNL     1       5.245  33.366  61.566  1.00  0.00     0.018 C 
HETATM   12  C   UNL     1       4.542  32.811  62.566  1.00  0.00     0.056 C 
BRANCH  12  13
HETATM   13  C   UNL     1       3.953  33.679  63.624  1.00  0.00     0.182 C 
HETATM   14  O   UNL     1       2.880  34.252  63.454  1.00  0.00    -0.288 OA
BRANCH  13  15
HETATM   15  C   UNL     1       4.727  33.898  64.880  1.00  0.00     0.014 A 
HETATM   16  C   UNL     1       4.136  34.273  66.092  1.00  0.00     0.018 A 
HETATM   17  C   UNL     1       4.925  34.418  67.239  1.00  0.00     0.037 A 
HETATM   18  C   UNL     1       6.303  34.202  67.195  1.00  0.00     0.068 A 
HETATM   19  C   UNL     1       6.901  33.863  65.982  1.00  0.00     0.037 A 
HETATM   20  C   UNL     1       6.116  33.715  64.831  1.00  0.00     0.018 A 
BRANCH  18  21
HETATM   21  O   UNL     1       6.945  34.361  68.391  1.00  0.00    -0.356 OA
HETATM   22  C   UNL     1       6.179  34.889  69.468  1.00  0.00     0.210 C 
ENDBRANCH  18  21
ENDBRANCH  13  15
ENDBRANCH  12  13
ENDBRANCH   6  11
ENDBRANCH   1   2
BRANCH   1  23
HETATM   23  C   UNL     1       5.619  29.539  57.276  1.00  0.00     0.162 C 
BRANCH  23  24
HETATM   24  O   UNL     1       4.392  29.127  57.883  1.00  0.00    -0.392 OA
HETATM   25  H   UNL     1       4.568  28.857  58.809  1.00  0.00     0.210 HD
ENDBRANCH  23  24
BRANCH  23  26
HETATM   26  C   UNL     1       5.605  28.939  55.856  1.00  0.00     0.265 C 
BRANCH  26  27
HETATM   27  N   UNL     1       5.016  27.560  55.801  1.00  0.00    -0.072 N 
HETATM   28  H   UNL     1       5.039  27.094  56.716  1.00  0.00     0.277 HD
HETATM   29  H   UNL     1       4.021  27.638  55.543  1.00  0.00     0.277 HD
BRANCH  27  30
HETATM   30  C   UNL     1       5.657  26.648  54.781  1.00  0.00     0.237 C 
BRANCH  30  31
HETATM   31  C   UNL     1       7.177  26.601  54.942  1.00  0.00     0.068 C 
BRANCH  31  32
HETATM   32  C   UNL     1       7.601  25.530  55.886  1.00  0.00    -0.029 A 
HETATM   33  C   UNL     1       7.742  24.136  55.586  1.00  0.00     0.001 A 
HETATM   34  C   UNL     1       8.161  23.499  56.752  1.00  0.00     0.043 A 
HETATM   35  C   UNL     1       7.555  23.354  54.428  1.00  0.00     0.051 A 
HETATM   36  C   UNL     1       8.395  22.121  56.816  1.00  0.00     0.033 A 
HETATM   37  N   UNL     1       8.285  24.463  57.723  1.00  0.00    -0.365 N 
HETATM   38  C   UNL     1       8.194  21.367  55.651  1.00  0.00     0.039 A 
HETATM   39  C   UNL     1       7.780  21.970  54.467  1.00  0.00     0.069 A 
HETATM   40  H   UNL     1       8.594  24.285  58.671  1.00  0.00     0.165 HD
HETATM   41  C   UNL     1       7.942  25.690  57.215  1.00  0.00     0.096 A 
BRANCH  39  42
HETATM   42  O   UNL     1       7.553  21.334  53.276  1.00  0.00    -0.356 OA
HETATM   43  C   UNL     1       8.489  20.332  52.893  1.00  0.00     0.210 C 
ENDBRANCH  39  42
ENDBRANCH  31  32
ENDBRANCH  30  31
ENDBRANCH  27  30
ENDBRANCH  26  27
ENDBRANCH  23  26
ENDBRANCH   1  23
TORSDOF 13
ENDMDL
MODEL 3
REMARK VINA RESULT:      -9.6      2.915     11.885
REMARK  13 active torsions:
REMARK  status: ('A' for Active; 'I' for Inactive)
REMARK    1  A    between atoms: O_2  and  C_3 
REMARK    2  A    between atoms: C_6  and  C_7 
REMARK    3  A    between atoms: C_7  and  C_8 
REMARK    4  A    between atoms: C_9  and  C_10 
REMARK    5  A    between atoms: N_17  and  C_18 
REMARK    6  A    between atoms: C_18  and  C_19 
REMARK    7  A    between atoms: C_19  and  O_20 
REMARK    8  A    between atoms: C_19  and  C_21 
REMARK    9  A    between atoms: C_21  and  N_22 
REMARK   10  A    between atoms: N_22  and  C_25 
REMARK   11  A    between atoms: C_25  and  C_26 
REMARK   12  A    between atoms: C_26  and  C_27 
REMARK   13  A    between atoms: C_32  and  O_33 
ROOT
HETATM    1  C   UNL     1       5.674  31.791  57.797  1.00  0.00     0.162 C 
ENDROOT
BRANCH   1   2
HETATM    2  N   UNL     1       6.036  31.946  59.198  1.00  0.00    -0.353 N 
HETATM    3  C   UNL     1       7.319  31.898  59.701  1.00  0.00     0.045 A 
HETATM    4  C   UNL     1       7.232  32.181  61.072  1.00  0.00     0.002 A 
HETATM    5  C   UNL     1       8.550  31.653  59.065  1.00  0.00     0.030 A 
HETATM    6  C   UNL     1       5.843  32.351  61.377  1.00  0.00    -0.008 A 
HETATM    7  C   UNL     1       8.437  32.254  61.809  1.00  0.00     0.014 A 
HETATM    8  C   UNL     1       5.140  32.208  60.198  1.00  0.00     0.103 A 
HETATM    9  C   UNL     1       9.664  32.009  61.183  1.00  0.00     0.001 A 
HETATM   10  C   UNL     1       9.716  31.706  59.829  1.00  0.00     0.002 A 
BRANCH   6  11
HETATM   11  C   UNL     1       5.186  32.641  62.614  1.00  0.00     0.018 C 
HETATM   12  C   UNL     1       4.778  33.847  63.038  1.00  0.00     0.056 C 
BRANCH  12  13
HETATM   13  C   UNL     1       4.077  33.971  64.347  1.00  0.00     0.182 C 
HETATM   14  O   UNL     1       2.854  34.059  64.409  1.00  0.00    -0.288 OA
BRANCH  13  15
HETATM   15  C   UNL     1       4.897  34.057  65.591  1.00  0.00     0.014 A 
HETATM   16  C   UNL     1       6.296  34.019  65.594  1.00  0.00     0.018 A 
HETATM   17  C   UNL     1       6.996  34.149  66.799  1.00  0.00     0.037 A 
HETATM   18  C   UNL     1       6.319  34.308  68.010  1.00  0.00     0.068 A 
HETATM   19  C   UNL     1       4.925  34.311  68.015  1.00  0.00     0.037 A 
HETATM   20  C   UNL     1       4.219  34.183  66.811  1.00  0.00     0.018 A 
BRANCH  18  21
HETATM   21  O   UNL     1       7.128  34.441  69.103  1.00  0.00    -0.356 OA
HETATM   22  C   UNL     1       6.851  33.599  70.216  1.00  0.00     0.210 C 
ENDBRANCH  18  21
ENDBRANCH  13  15
ENDBRANCH  12  13
ENDBRANCH   6  11
ENDBRANCH   1   2
BRANCH   1  23
HETATM   23  C   UNL     1       5.496  30.316  57.408  1.00  0.00     0.162 C 
BRANCH  23  24
HETATM   24  O   UNL     1       4.333  29.761  58.027  1.00  0.00    -0.392 OA
HETATM   25  H   UNL     1       4.133  30.266  58.843  1.00  0.00     0.210 HD
ENDBRANCH  23  24
BRANCH  23  26
HETATM   26  C   UNL     1       5.282  30.146  55.891  1.00  0.00     0.265 C 
BRANCH  26  27
HETATM   27  N   UNL     1       6.421  29.451  55.204  1.00  0.00    -0.072 N 
HETATM   28  H   UNL     1       6.786  29.997  54.413  1.00  0.00     0.277 HD
HETATM   29  H   UNL     1       7.199  29.357  55.873  1.00  0.00     0.277 HD
BRANCH  27  30
HETATM   30  C   UNL     1       6.099  28.057  54.717  1.00  0.00     0.237 C 
BRANCH  30  31
HETATM   31  C   UNL     1       7.216  27.068  55.056  1.00  0.00     0.068 C 
BRANCH  31  32
HETATM   32  C   UNL     1       7.355  26.013  54.013  1.00  0.00    -0.029 A 
HETATM   33  C   UNL     1       7.703  24.641  54.231  1.00  0.00     0.001 A 
HETATM   34  C   UNL     1       7.715  24.012  52.988  1.00  0.00     0.043 A 
HETATM   35  C   UNL     1       8.008  23.871  55.372  1.00  0.00     0.051 A 
HETATM   36  C   UNL     1       8.021  22.655  52.831  1.00  0.00     0.033 A 
HETATM   37  N   UNL     1       7.375  24.955  52.048  1.00  0.00    -0.365 N 
HETATM   38  C   UNL     1       8.328  21.916  53.982  1.00  0.00     0.039 A 
HETATM   39  C   UNL     1       8.322  22.510  55.242  1.00  0.00     0.069 A 
HETATM   40  H   UNL     1       7.287  24.770  51.057  1.00  0.00     0.165 HD
HETATM   41  C   UNL     1       7.163  26.167  52.653  1.00  0.00     0.096 A 
BRANCH  39  42
HETATM   42  O   UNL     1       8.605  21.886  56.427  1.00  0.00    -0.356 OA
HETATM   43  C   UNL     1       8.407  20.478  56.476  1.00  0.00     0.210 C 
ENDBRANCH  39  42
ENDBRANCH  31  32
ENDBRANCH  30  31
ENDBRANCH  27  30
ENDBRANCH  26  27
ENDBRANCH  23  26
ENDBRANCH   1  23
TORSDOF 13
ENDMDL
MODEL 4
REMARK VINA RESULT:      -9.5      2.898     11.695
REMARK  13 active torsions:
REMARK  status: ('A' for Active; 'I' for Inactive)
REMARK    1  A    between atoms: O_2  and  C_3 
REMARK    2  A    between atoms: C_6  and  C_7 
REMARK    3  A    between atoms: C_7  and  C_8 
REMARK    4  A    between atoms: C_9  and  C_10 
REMARK    5  A    between atoms: N_17  and  C_18 
REMARK    6  A    between atoms: C_18  and  C_19 
REMARK    7  A    between atoms: C_19  and  O_20 
REMARK    8  A    between atoms: C_19  and  C_21 
REMARK    9  A    between atoms: C_21  and  N_22 
REMARK   10  A    between atoms: N_22  and  C_25 
REMARK   11  A    between atoms: C_25  and  C_26 
REMARK   12  A    between atoms: C_26  and  C_27 
REMARK   13  A    between atoms: C_32  and  O_33 
ROOT
HETATM    1  C   UNL     1       5.957  30.909  57.425  1.00  0.00     0.162 C 
ENDROOT
BRANCH   1   2
HETATM    2  N   UNL     1       6.226  31.463  58.744  1.00  0.00    -0.353 N 
HETATM    3  C   UNL     1       7.473  31.580  59.321  1.00  0.00     0.045 A 
HETATM    4  C   UNL     1       7.296  32.241  60.546  1.00  0.00     0.002 A 
HETATM    5  C   UNL     1       8.742  31.183  58.862  1.00  0.00     0.030 A 
HETATM    6  C   UNL     1       5.891  32.469  60.699  1.00  0.00    -0.008 A 
HETATM    7  C   UNL     1       8.451  32.539  61.306  1.00  0.00     0.014 A 
HETATM    8  C   UNL     1       5.267  31.985  59.568  1.00  0.00     0.103 A 
HETATM    9  C   UNL     1       9.715  32.144  60.857  1.00  0.00     0.001 A 
HETATM   10  C   UNL     1       9.855  31.469  59.652  1.00  0.00     0.002 A 
BRANCH   6  11
HETATM   11  C   UNL     1       5.155  33.090  61.757  1.00  0.00     0.018 C 
HETATM   12  C   UNL     1       5.038  32.643  63.018  1.00  0.00     0.056 C 
BRANCH  12  13
HETATM   13  C   UNL     1       4.255  33.432  64.010  1.00  0.00     0.182 C 
HETATM   14  O   UNL     1       3.113  33.811  63.765  1.00  0.00    -0.288 OA
BRANCH  13  15
HETATM   15  C   UNL     1       4.911  33.817  65.293  1.00  0.00     0.014 A 
HETATM   16  C   UNL     1       4.200  34.215  66.431  1.00  0.00     0.018 A 
HETATM   17  C   UNL     1       4.886  34.519  67.613  1.00  0.00     0.037 A 
HETATM   18  C   UNL     1       6.278  34.440  67.676  1.00  0.00     0.068 A 
HETATM   19  C   UNL     1       6.992  34.079  66.535  1.00  0.00     0.037 A 
HETATM   20  C   UNL     1       6.311  33.771  65.350  1.00  0.00     0.018 A 
BRANCH  18  21
HETATM   21  O   UNL     1       6.813  34.747  68.896  1.00  0.00    -0.356 OA
HETATM   22  C   UNL     1       5.942  34.669  70.019  1.00  0.00     0.210 C 
ENDBRANCH  18  21
ENDBRANCH  13  15
ENDBRANCH  12  13
ENDBRANCH   6  11
ENDBRANCH   1   2
BRANCH   1  23
HETATM   23  C   UNL     1       5.965  29.373  57.433  1.00  0.00     0.162 C 
BRANCH  23  24
HETATM   24  O   UNL     1       4.651  28.856  57.660  1.00  0.00    -0.392 OA
HETATM   25  H   UNL     1       4.642  27.899  57.448  1.00  0.00     0.210 HD
ENDBRANCH  23  24
BRANCH  23  26
HETATM   26  C   UNL     1       6.410  28.797  56.075  1.00  0.00     0.265 C 
BRANCH  26  27
HETATM   27  N   UNL     1       7.696  28.027  56.149  1.00  0.00    -0.072 N 
HETATM   28  H   UNL     1       7.769  27.326  55.400  1.00  0.00     0.277 HD
HETATM   29  H   UNL     1       8.479  28.681  56.009  1.00  0.00     0.277 HD
BRANCH  27  30
HETATM   30  C   UNL     1       7.937  27.340  57.473  1.00  0.00     0.237 C 
BRANCH  30  31
HETATM   31  C   UNL     1       7.216  25.993  57.551  1.00  0.00     0.068 C 
BRANCH  31  32
HETATM   32  C   UNL     1       7.813  24.992  56.622  1.00  0.00    -0.029 A 
HETATM   33  C   UNL     1       7.355  24.674  55.303  1.00  0.00     0.001 A 
HETATM   34  C   UNL     1       8.201  23.692  54.793  1.00  0.00     0.043 A 
HETATM   35  C   UNL     1       6.297  25.131  54.491  1.00  0.00     0.051 A 
HETATM   36  C   UNL     1       8.039  23.144  53.516  1.00  0.00     0.033 A 
HETATM   37  N   UNL     1       9.148  23.429  55.754  1.00  0.00    -0.365 N 
HETATM   38  C   UNL     1       6.975  23.613  52.733  1.00  0.00     0.039 A 
HETATM   39  C   UNL     1       6.110  24.596  53.208  1.00  0.00     0.069 A 
HETATM   40  H   UNL     1       9.906  22.766  55.645  1.00  0.00     0.165 HD
HETATM   41  C   UNL     1       8.920  24.201  56.864  1.00  0.00     0.096 A 
BRANCH  39  42
HETATM   42  O   UNL     1       5.043  25.124  52.532  1.00  0.00    -0.356 OA
HETATM   43  C   UNL     1       5.309  25.701  51.259  1.00  0.00     0.210 C 
ENDBRANCH  39  42
ENDBRANCH  31  32
ENDBRANCH  30  31
ENDBRANCH  27  30
ENDBRANCH  26  27
ENDBRANCH  23  26
ENDBRANCH   1  23
TORSDOF 13
ENDMDL
MODEL 5
REMARK VINA RESULT:      -9.4      4.024      6.542
REMARK  13 active torsions:
REMARK  status: ('A' for Active; 'I' for Inactive)
REMARK    1  A    between atoms: O_2  and  C_3 
REMARK    2  A    between atoms: C_6  and  C_7 
REMARK    3  A    between atoms: C_7  and  C_8 
REMARK    4  A    between atoms: C_9  and  C_10 
REMARK    5  A    between atoms: N_17  and  C_18 
REMARK    6  A    between atoms: C_18  and  C_19 
REMARK    7  A    between atoms: C_19  and  O_20 
REMARK    8  A    between atoms: C_19  and  C_21 
REMARK    9  A    between atoms: C_21  and  N_22 
REMARK   10  A    between atoms: N_22  and  C_25 
REMARK   11  A    between atoms: C_25  and  C_26 
REMARK   12  A    between atoms: C_26  and  C_27 
REMARK   13  A    between atoms: C_32  and  O_33 
ROOT
HETATM    1  C   UNL     1       5.424  26.323  56.109  1.00  0.00     0.162 C 
ENDROOT
BRANCH   1   2
HETATM    2  N   UNL     1       5.840  25.955  54.764  1.00  0.00    -0.353 N 
HETATM    3  C   UNL     1       6.554  24.823  54.431  1.00  0.00     0.045 A 
HETATM    4  C   UNL     1       6.665  24.806  53.033  1.00  0.00     0.002 A 
HETATM    5  C   UNL     1       7.090  23.801  55.236  1.00  0.00     0.030 A 
HETATM    6  C   UNL     1       6.034  25.997  52.548  1.00  0.00    -0.008 A 
HETATM    7  C   UNL     1       7.309  23.697  52.436  1.00  0.00     0.014 A 
HETATM    8  C   UNL     1       5.531  26.673  53.641  1.00  0.00     0.103 A 
HETATM    9  C   UNL     1       7.847  22.680  53.231  1.00  0.00     0.001 A 
HETATM   10  C   UNL     1       7.743  22.737  54.615  1.00  0.00     0.002 A 
BRANCH   6  11
HETATM   11  C   UNL     1       5.867  26.490  51.216  1.00  0.00     0.018 C 
HETATM   12  C   UNL     1       4.920  27.342  50.793  1.00  0.00     0.056 C 
BRANCH  12  13
HETATM   13  C   UNL     1       4.907  27.783  49.369  1.00  0.00     0.182 C 
HETATM   14  O   UNL     1       5.866  28.369  48.875  1.00  0.00    -0.288 OA
BRANCH  13  15
HETATM   15  C   UNL     1       3.671  27.559  48.564  1.00  0.00     0.014 A 
HETATM   16  C   UNL     1       2.558  28.406  48.614  1.00  0.00     0.018 A 
HETATM   17  C   UNL     1       1.451  28.153  47.794  1.00  0.00     0.037 A 
HETATM   18  C   UNL     1       1.433  27.059  46.928  1.00  0.00     0.068 A 
HETATM   19  C   UNL     1       2.526  26.193  46.902  1.00  0.00     0.037 A 
HETATM   20  C   UNL     1       3.637  26.442  47.718  1.00  0.00     0.018 A 
BRANCH  18  21
HETATM   21  O   UNL     1       0.298  26.945  46.176  1.00  0.00    -0.356 OA
HETATM   22  C   UNL     1      -0.556  28.082  46.122  1.00  0.00     0.210 C 
ENDBRANCH  18  21
ENDBRANCH  13  15
ENDBRANCH  12  13
ENDBRANCH   6  11
ENDBRANCH   1   2
BRANCH   1  23
HETATM   23  C   UNL     1       5.088  27.818  56.219  1.00  0.00     0.162 C 
BRANCH  23  24
HETATM   24  O   UNL     1       3.702  28.010  56.512  1.00  0.00    -0.392 OA
HETATM   25  H   UNL     1       3.524  27.714  57.430  1.00  0.00     0.210 HD
ENDBRANCH  23  24
BRANCH  23  26
HETATM   26  C   UNL     1       5.855  28.494  57.372  1.00  0.00     0.265 C 
BRANCH  26  27
HETATM   27  N   UNL     1       5.199  29.748  57.869  1.00  0.00    -0.072 N 
HETATM   28  H   UNL     1       4.206  29.793  57.605  1.00  0.00     0.277 HD
HETATM   29  H   UNL     1       5.224  29.746  58.899  1.00  0.00     0.277 HD
BRANCH  27  30
HETATM   30  C   UNL     1       5.872  31.024  57.422  1.00  0.00     0.237 C 
BRANCH  30  31
HETATM   31  C   UNL     1       5.901  32.069  58.539  1.00  0.00     0.068 C 
BRANCH  31  32
HETATM   32  C   UNL     1       6.959  31.773  59.546  1.00  0.00    -0.029 A 
HETATM   33  C   UNL     1       7.018  32.264  60.890  1.00  0.00     0.001 A 
HETATM   34  C   UNL     1       8.167  31.737  61.476  1.00  0.00     0.043 A 
HETATM   35  C   UNL     1       6.199  33.109  61.667  1.00  0.00     0.051 A 
HETATM   36  C   UNL     1       8.537  32.018  62.797  1.00  0.00     0.033 A 
HETATM   37  N   UNL     1       8.779  30.944  60.536  1.00  0.00    -0.365 N 
HETATM   38  C   UNL     1       7.707  32.866  63.543  1.00  0.00     0.039 A 
HETATM   39  C   UNL     1       6.549  33.408  62.992  1.00  0.00     0.069 A 
HETATM   40  H   UNL     1       9.630  30.419  60.697  1.00  0.00     0.165 HD
HETATM   41  C   UNL     1       8.065  30.964  59.366  1.00  0.00     0.096 A 
BRANCH  39  42
HETATM   42  O   UNL     1       5.671  34.245  63.626  1.00  0.00    -0.356 OA
HETATM   43  C   UNL     1       4.851  33.670  64.638  1.00  0.00     0.210 C 
ENDBRANCH  39  42
ENDBRANCH  31  32
ENDBRANCH  30  31
ENDBRANCH  27  30
ENDBRANCH  26  27
ENDBRANCH  23  26
ENDBRANCH   1  23
TORSDOF 13
ENDMDL
MODEL 6
REMARK VINA RESULT:      -9.2      2.482      4.168
REMARK  13 active torsions:
REMARK  status: ('A' for Active; 'I' for Inactive)
REMARK    1  A    between atoms: O_2  and  C_3 
REMARK    2  A    between atoms: C_6  and  C_7 
REMARK    3  A    between atoms: C_7  and  C_8 
REMARK    4  A    between atoms: C_9  and  C_10 
REMARK    5  A    between atoms: N_17  and  C_18 
REMARK    6  A    between atoms: C_18  and  C_19 
REMARK    7  A    between atoms: C_19  and  O_20 
REMARK    8  A    between atoms: C_19  and  C_21 
REMARK    9  A    between atoms: C_21  and  N_22 
REMARK   10  A    between atoms: N_22  and  C_25 
REMARK   11  A    between atoms: C_25  and  C_26 
REMARK   12  A    between atoms: C_26  and  C_27 
REMARK   13  A    between atoms: C_32  and  O_33 
ROOT
HETATM    1  C   UNL     1       8.269  31.013  58.486  1.00  0.00     0.162 C 
ENDROOT
BRANCH   1   2
HETATM    2  N   UNL     1       7.444  30.301  57.521  1.00  0.00    -0.353 N 
HETATM    3  C   UNL     1       6.084  30.462  57.361  1.00  0.00     0.045 A 
HETATM    4  C   UNL     1       5.702  29.661  56.275  1.00  0.00     0.002 A 
HETATM    5  C   UNL     1       5.161  31.260  58.063  1.00  0.00     0.030 A 
HETATM    6  C   UNL     1       6.878  28.978  55.825  1.00  0.00    -0.008 A 
HETATM    7  C   UNL     1       4.348  29.703  55.868  1.00  0.00     0.014 A 
HETATM    8  C   UNL     1       7.930  29.405  56.610  1.00  0.00     0.103 A 
HETATM    9  C   UNL     1       3.426  30.492  56.563  1.00  0.00     0.001 A 
HETATM   10  C   UNL     1       3.829  31.255  57.651  1.00  0.00     0.002 A 
BRANCH   6  11
HETATM   11  C   UNL     1       7.063  28.037  54.764  1.00  0.00     0.018 C 
HETATM   12  C   UNL     1       6.131  27.218  54.251  1.00  0.00     0.056 C 
BRANCH  12  13
HETATM   13  C   UNL     1       6.485  26.315  53.120  1.00  0.00     0.182 C 
HETATM   14  O   UNL     1       6.303  26.653  51.954  1.00  0.00    -0.288 OA
BRANCH  13  15
HETATM   15  C   UNL     1       7.004  24.952  53.430  1.00  0.00     0.014 A 
HETATM   16  C   UNL     1       7.557  24.101  52.466  1.00  0.00     0.018 A 
HETATM   17  C   UNL     1       8.063  22.852  52.844  1.00  0.00     0.037 A 
HETATM   18  C   UNL     1       8.019  22.431  54.175  1.00  0.00     0.068 A 
HETATM   19  C   UNL     1       7.437  23.260  55.132  1.00  0.00     0.037 A 
HETATM   20  C   UNL     1       6.930  24.513  54.760  1.00  0.00     0.018 A 
BRANCH  18  21
HETATM   21  O   UNL     1       8.565  21.199  54.402  1.00  0.00    -0.356 OA
HETATM   22  C   UNL     1       8.542  20.275  53.321  1.00  0.00     0.210 C 
ENDBRANCH  18  21
ENDBRANCH  13  15
ENDBRANCH  12  13
ENDBRANCH   6  11
ENDBRANCH   1   2
BRANCH   1  23
HETATM   23  C   UNL     1       7.938  30.614  59.932  1.00  0.00     0.162 C 
BRANCH  23  24
HETATM   24  O   UNL     1       9.076  30.034  60.575  1.00  0.00    -0.392 OA
HETATM   25  H   UNL     1       9.171  30.422  61.471  1.00  0.00     0.210 HD
ENDBRANCH  23  24
BRANCH  23  26
HETATM   26  C   UNL     1       7.553  31.836  60.789  1.00  0.00     0.265 C 
BRANCH  26  27
HETATM   27  N   UNL     1       8.533  32.123  61.889  1.00  0.00    -0.072 N 
HETATM   28  H   UNL     1       9.392  31.568  61.793  1.00  0.00     0.277 HD
HETATM   29  H   UNL     1       8.819  33.111  61.823  1.00  0.00     0.277 HD
BRANCH  27  30
HETATM   30  C   UNL     1       7.984  31.923  63.282  1.00  0.00     0.237 C 
BRANCH  30  31
HETATM   31  C   UNL     1       7.863  33.247  64.037  1.00  0.00     0.068 C 
BRANCH  31  32
HETATM   32  C   UNL     1       6.521  33.405  64.666  1.00  0.00    -0.029 A 
HETATM   33  C   UNL     1       6.252  33.870  65.994  1.00  0.00     0.001 A 
HETATM   34  C   UNL     1       4.869  33.865  66.164  1.00  0.00     0.043 A 
HETATM   35  C   UNL     1       7.055  34.298  67.070  1.00  0.00     0.051 A 
HETATM   36  C   UNL     1       4.254  34.261  67.357  1.00  0.00     0.033 A 
HETATM   37  N   UNL     1       4.313  33.429  64.985  1.00  0.00    -0.365 N 
HETATM   38  C   UNL     1       5.078  34.675  68.412  1.00  0.00     0.039 A 
HETATM   39  C   UNL     1       6.464  34.697  68.277  1.00  0.00     0.069 A 
HETATM   40  H   UNL     1       3.318  33.345  64.818  1.00  0.00     0.165 HD
HETATM   41  C   UNL     1       5.299  33.141  64.077  1.00  0.00     0.096 A 
BRANCH  39  42
HETATM   42  O   UNL     1       7.360  35.080  69.239  1.00  0.00    -0.356 OA
HETATM   43  C   UNL     1       6.850  35.277  70.552  1.00  0.00     0.210 C 
ENDBRANCH  39  42
ENDBRANCH  31  32
ENDBRANCH  30  31
ENDBRANCH  27  30
ENDBRANCH  26  27
ENDBRANCH  23  26
ENDBRANCH   1  23
TORSDOF 13
ENDMDL
MODEL 7
REMARK VINA RESULT:      -9.1      1.717      2.983
REMARK  13 active torsions:
REMARK  status: ('A' for Active; 'I' for Inactive)
REMARK    1  A    between atoms: O_2  and  C_3 
REMARK    2  A    between atoms: C_6  and  C_7 
REMARK    3  A    between atoms: C_7  and  C_8 
REMARK    4  A    between atoms: C_9  and  C_10 
REMARK    5  A    between atoms: N_17  and  C_18 
REMARK    6  A    between atoms: C_18  and  C_19 
REMARK    7  A    between atoms: C_19  and  O_20 
REMARK    8  A    between atoms: C_19  and  C_21 
REMARK    9  A    between atoms: C_21  and  N_22 
REMARK   10  A    between atoms: N_22  and  C_25 
REMARK   11  A    between atoms: C_25  and  C_26 
REMARK   12  A    between atoms: C_26  and  C_27 
REMARK   13  A    between atoms: C_32  and  O_33 
ROOT
HETATM    1  C   UNL     1       5.844  30.463  58.412  1.00  0.00     0.162 C 
ENDROOT
BRANCH   1   2
HETATM    2  N   UNL     1       6.842  29.884  57.526  1.00  0.00    -0.353 N 
HETATM    3  C   UNL     1       8.197  30.135  57.578  1.00  0.00     0.045 A 
HETATM    4  C   UNL     1       8.803  29.314  56.615  1.00  0.00     0.002 A 
HETATM    5  C   UNL     1       8.945  30.995  58.405  1.00  0.00     0.030 A 
HETATM    6  C   UNL     1       7.753  28.601  55.953  1.00  0.00    -0.008 A 
HETATM    7  C   UNL     1      10.214  29.343  56.517  1.00  0.00     0.014 A 
HETATM    8  C   UNL     1       6.563  28.972  56.546  1.00  0.00     0.103 A 
HETATM    9  C   UNL     1      10.962  30.198  57.334  1.00  0.00     0.001 A 
HETATM   10  C   UNL     1      10.332  31.017  58.261  1.00  0.00     0.002 A 
BRANCH   6  11
HETATM   11  C   UNL     1       7.798  27.646  54.889  1.00  0.00     0.018 C 
HETATM   12  C   UNL     1       7.114  26.493  54.821  1.00  0.00     0.056 C 
BRANCH  12  13
HETATM   13  C   UNL     1       7.253  25.621  53.621  1.00  0.00     0.182 C 
HETATM   14  O   UNL     1       7.077  26.064  52.489  1.00  0.00    -0.288 OA
BRANCH  13  15
HETATM   15  C   UNL     1       7.545  24.173  53.820  1.00  0.00     0.014 A 
HETATM   16  C   UNL     1       7.540  23.552  55.075  1.00  0.00     0.018 A 
HETATM   17  C   UNL     1       7.781  22.177  55.175  1.00  0.00     0.037 A 
HETATM   18  C   UNL     1       8.037  21.407  54.039  1.00  0.00     0.068 A 
HETATM   19  C   UNL     1       8.079  22.028  52.792  1.00  0.00     0.037 A 
HETATM   20  C   UNL     1       7.836  23.404  52.684  1.00  0.00     0.018 A 
BRANCH  18  21
HETATM   21  O   UNL     1       8.237  20.078  54.284  1.00  0.00    -0.356 OA
HETATM   22  C   UNL     1       8.762  19.729  55.559  1.00  0.00     0.210 C 
ENDBRANCH  18  21
ENDBRANCH  13  15
ENDBRANCH  12  13
ENDBRANCH   6  11
ENDBRANCH   1   2
BRANCH   1  23
HETATM   23  C   UNL     1       5.665  31.970  58.172  1.00  0.00     0.162 C 
BRANCH  23  24
HETATM   24  O   UNL     1       4.346  32.259  57.703  1.00  0.00    -0.392 OA
HETATM   25  H   UNL     1       4.225  33.231  57.664  1.00  0.00     0.210 HD
ENDBRANCH  23  24
BRANCH  23  26
HETATM   26  C   UNL     1       5.832  32.780  59.472  1.00  0.00     0.265 C 
BRANCH  26  27
HETATM   27  N   UNL     1       6.237  31.940  60.648  1.00  0.00    -0.072 N 
HETATM   28  H   UNL     1       5.442  31.732  61.265  1.00  0.00     0.277 HD
HETATM   29  H   UNL     1       6.577  31.032  60.300  1.00  0.00     0.277 HD
BRANCH  27  30
HETATM   30  C   UNL     1       7.352  32.529  61.481  1.00  0.00     0.237 C 
BRANCH  30  31
HETATM   31  C   UNL     1       7.355  31.961  62.902  1.00  0.00     0.068 C 
BRANCH  31  32
HETATM   32  C   UNL     1       6.987  32.995  63.911  1.00  0.00    -0.029 A 
HETATM   33  C   UNL     1       5.677  33.525  64.148  1.00  0.00     0.001 A 
HETATM   34  C   UNL     1       5.787  34.458  65.177  1.00  0.00     0.043 A 
HETATM   35  C   UNL     1       4.405  33.296  63.586  1.00  0.00     0.051 A 
HETATM   36  C   UNL     1       4.688  35.176  65.664  1.00  0.00     0.033 A 
HETATM   37  N   UNL     1       7.105  34.490  65.563  1.00  0.00    -0.365 N 
HETATM   38  C   UNL     1       3.437  34.933  65.082  1.00  0.00     0.039 A 
HETATM   39  C   UNL     1       3.289  34.005  64.055  1.00  0.00     0.069 A 
HETATM   40  H   UNL     1       7.469  35.069  66.309  1.00  0.00     0.165 HD
HETATM   41  C   UNL     1       7.840  33.617  64.802  1.00  0.00     0.096 A 
BRANCH  39  42
HETATM   42  O   UNL     1       2.119  33.691  63.416  1.00  0.00    -0.356 OA
HETATM   43  C   UNL     1       1.689  34.577  62.389  1.00  0.00     0.210 C 
ENDBRANCH  39  42
ENDBRANCH  31  32
ENDBRANCH  30  31
ENDBRANCH  27  30
ENDBRANCH  26  27
ENDBRANCH  23  26
ENDBRANCH   1  23
TORSDOF 13
ENDMDL
MODEL 8
REMARK VINA RESULT:      -9.1      4.347      9.419
REMARK  13 active torsions:
REMARK  status: ('A' for Active; 'I' for Inactive)
REMARK    1  A    between atoms: O_2  and  C_3 
REMARK    2  A    between atoms: C_6  and  C_7 
REMARK    3  A    between atoms: C_7  and  C_8 
REMARK    4  A    between atoms: C_9  and  C_10 
REMARK    5  A    between atoms: N_17  and  C_18 
REMARK    6  A    between atoms: C_18  and  C_19 
REMARK    7  A    between atoms: C_19  and  O_20 
REMARK    8  A    between atoms: C_19  and  C_21 
REMARK    9  A    between atoms: C_21  and  N_22 
REMARK   10  A    between atoms: N_22  and  C_25 
REMARK   11  A    between atoms: C_25  and  C_26 
REMARK   12  A    between atoms: C_26  and  C_27 
REMARK   13  A    between atoms: C_32  and  O_33 
ROOT
HETATM    1  C   UNL     1       4.275  31.487  55.798  1.00  0.00     0.162 C 
ENDROOT
BRANCH   1   2
HETATM    2  N   UNL     1       5.117  30.302  55.730  1.00  0.00    -0.353 N 
HETATM    3  C   UNL     1       6.117  29.982  56.624  1.00  0.00     0.045 A 
HETATM    4  C   UNL     1       6.614  28.725  56.249  1.00  0.00     0.002 A 
HETATM    5  C   UNL     1       6.610  30.677  57.744  1.00  0.00     0.030 A 
HETATM    6  C   UNL     1       5.907  28.331  55.067  1.00  0.00    -0.008 A 
HETATM    7  C   UNL     1       7.617  28.144  57.059  1.00  0.00     0.014 A 
HETATM    8  C   UNL     1       4.989  29.322  54.785  1.00  0.00     0.103 A 
HETATM    9  C   UNL     1       8.113  28.831  58.171  1.00  0.00     0.001 A 
HETATM   10  C   UNL     1       7.619  30.085  58.503  1.00  0.00     0.002 A 
BRANCH   6  11
HETATM   11  C   UNL     1       6.017  27.156  54.260  1.00  0.00     0.018 C 
HETATM   12  C   UNL     1       7.113  26.733  53.609  1.00  0.00     0.056 C 
BRANCH  12  13
HETATM   13  C   UNL     1       7.067  25.462  52.833  1.00  0.00     0.182 C 
HETATM   14  O   UNL     1       6.751  25.452  51.647  1.00  0.00    -0.288 OA
BRANCH  13  15
HETATM   15  C   UNL     1       7.346  24.181  53.544  1.00  0.00     0.014 A 
HETATM   16  C   UNL     1       7.185  24.016  54.924  1.00  0.00     0.018 A 
HETATM   17  C   UNL     1       7.426  22.769  55.512  1.00  0.00     0.037 A 
HETATM   18  C   UNL     1       7.837  21.679  54.742  1.00  0.00     0.068 A 
HETATM   19  C   UNL     1       8.033  21.849  53.372  1.00  0.00     0.037 A 
HETATM   20  C   UNL     1       7.791  23.094  52.778  1.00  0.00     0.018 A 
BRANCH  18  21
HETATM   21  O   UNL     1       8.018  20.520  55.443  1.00  0.00    -0.356 OA
HETATM   22  C   UNL     1       9.249  20.375  56.140  1.00  0.00     0.210 C 
ENDBRANCH  18  21
ENDBRANCH  13  15
ENDBRANCH  12  13
ENDBRANCH   6  11
ENDBRANCH   1   2
BRANCH   1  23
HETATM   23  C   UNL     1       2.978  31.320  54.990  1.00  0.00     0.162 C 
BRANCH  23  24
HETATM   24  O   UNL     1       1.852  31.800  55.728  1.00  0.00    -0.392 OA
HETATM   25  H   UNL     1       1.858  31.396  56.622  1.00  0.00     0.210 HD
ENDBRANCH  23  24
BRANCH  23  26
HETATM   26  C   UNL     1       3.005  32.142  53.687  1.00  0.00     0.265 C 
BRANCH  26  27
HETATM   27  N   UNL     1       2.473  31.393  52.501  1.00  0.00    -0.072 N 
HETATM   28  H   UNL     1       1.681  30.788  52.751  1.00  0.00     0.277 HD
HETATM   29  H   UNL     1       2.111  32.075  51.819  1.00  0.00     0.277 HD
BRANCH  27  30
HETATM   30  C   UNL     1       3.503  30.560  51.775  1.00  0.00     0.237 C 
BRANCH  30  31
HETATM   31  C   UNL     1       2.995  30.099  50.408  1.00  0.00     0.068 C 
BRANCH  31  32
HETATM   32  C   UNL     1       3.666  28.845  49.963  1.00  0.00    -0.029 A 
HETATM   33  C   UNL     1       3.210  27.952  48.939  1.00  0.00     0.001 A 
HETATM   34  C   UNL     1       4.137  26.915  48.848  1.00  0.00     0.043 A 
HETATM   35  C   UNL     1       2.095  27.929  48.078  1.00  0.00     0.051 A 
HETATM   36  C   UNL     1       3.999  25.858  47.943  1.00  0.00     0.033 A 
HETATM   37  N   UNL     1       5.127  27.169  49.767  1.00  0.00    -0.365 N 
HETATM   38  C   UNL     1       2.877  25.857  47.103  1.00  0.00     0.039 A 
HETATM   39  C   UNL     1       1.932  26.877  47.163  1.00  0.00     0.069 A 
HETATM   40  H   UNL     1       5.943  26.586  49.906  1.00  0.00     0.165 HD
HETATM   41  C   UNL     1       4.850  28.325  50.451  1.00  0.00     0.096 A 
BRANCH  39  42
HETATM   42  O   UNL     1       0.803  26.976  46.394  1.00  0.00    -0.356 OA
HETATM   43  C   UNL     1       0.172  28.250  46.339  1.00  0.00     0.210 C 
ENDBRANCH  39  42
ENDBRANCH  31  32
ENDBRANCH  30  31
ENDBRANCH  27  30
ENDBRANCH  26  27
ENDBRANCH  23  26
ENDBRANCH   1  23
TORSDOF 13
ENDMDL
MODEL 9
REMARK VINA RESULT:      -9.1      1.378      1.920
REMARK  13 active torsions:
REMARK  status: ('A' for Active; 'I' for Inactive)
REMARK    1  A    between atoms: O_2  and  C_3 
REMARK    2  A    between atoms: C_6  and  C_7 
REMARK    3  A    between atoms: C_7  and  C_8 
REMARK    4  A    between atoms: C_9  and  C_10 
REMARK    5  A    between atoms: N_17  and  C_18 
REMARK    6  A    between atoms: C_18  and  C_19 
REMARK    7  A    between atoms: C_19  and  O_20 
REMARK    8  A    between atoms: C_19  and  C_21 
REMARK    9  A    between atoms: C_21  and  N_22 
REMARK   10  A    between atoms: N_22  and  C_25 
REMARK   11  A    between atoms: C_25  and  C_26 
REMARK   12  A    between atoms: C_26  and  C_27 
REMARK   13  A    between atoms: C_32  and  O_33 
ROOT
HETATM    1  C   UNL     1       4.520  31.593  56.112  1.00  0.00     0.162 C 
ENDROOT
BRANCH   1   2
HETATM    2  N   UNL     1       5.388  30.439  55.928  1.00  0.00    -0.353 N 
HETATM    3  C   UNL     1       6.489  30.138  56.701  1.00  0.00     0.045 A 
HETATM    4  C   UNL     1       6.983  28.906  56.248  1.00  0.00     0.002 A 
HETATM    5  C   UNL     1       7.079  30.831  57.775  1.00  0.00     0.030 A 
HETATM    6  C   UNL     1       6.164  28.508  55.143  1.00  0.00    -0.008 A 
HETATM    7  C   UNL     1       8.088  28.346  56.932  1.00  0.00     0.014 A 
HETATM    8  C   UNL     1       5.189  29.472  54.983  1.00  0.00     0.103 A 
HETATM    9  C   UNL     1       8.680  29.032  57.997  1.00  0.00     0.001 A 
HETATM   10  C   UNL     1       8.184  30.262  58.408  1.00  0.00     0.002 A 
BRANCH   6  11
HETATM   11  C   UNL     1       6.224  27.351  54.304  1.00  0.00     0.018 C 
HETATM   12  C   UNL     1       7.321  26.842  53.722  1.00  0.00     0.056 C 
BRANCH  12  13
HETATM   13  C   UNL     1       7.214  25.605  52.899  1.00  0.00     0.182 C 
HETATM   14  O   UNL     1       6.884  25.652  51.718  1.00  0.00    -0.288 OA
BRANCH  13  15
HETATM   15  C   UNL     1       7.450  24.287  53.557  1.00  0.00     0.014 A 
HETATM   16  C   UNL     1       7.204  24.050  54.915  1.00  0.00     0.018 A 
HETATM   17  C   UNL     1       7.409  22.773  55.449  1.00  0.00     0.037 A 
HETATM   18  C   UNL     1       7.866  21.724  54.650  1.00  0.00     0.068 A 
HETATM   19  C   UNL     1       8.146  21.965  53.306  1.00  0.00     0.037 A 
HETATM   20  C   UNL     1       7.941  23.241  52.764  1.00  0.00     0.018 A 
BRANCH  18  21
HETATM   21  O   UNL     1       8.004  20.530  55.299  1.00  0.00    -0.356 OA
HETATM   22  C   UNL     1       9.212  20.325  56.022  1.00  0.00     0.210 C 
ENDBRANCH  18  21
ENDBRANCH  13  15
ENDBRANCH  12  13
ENDBRANCH   6  11
ENDBRANCH   1   2
BRANCH   1  23
HETATM   23  C   UNL     1       3.488  31.366  57.227  1.00  0.00     0.162 C 
BRANCH  23  24
HETATM   24  O   UNL     1       3.547  30.022  57.712  1.00  0.00    -0.392 OA
HETATM   25  H   UNL     1       3.989  29.459  57.042  1.00  0.00     0.210 HD
ENDBRANCH  23  24
BRANCH  23  26
HETATM   26  C   UNL     1       3.760  32.263  58.450  1.00  0.00     0.265 C 
BRANCH  26  27
HETATM   27  N   UNL     1       4.187  31.495  59.667  1.00  0.00    -0.072 N 
HETATM   28  H   UNL     1       4.152  30.479  59.513  1.00  0.00     0.277 HD
HETATM   29  H   UNL     1       5.171  31.722  59.869  1.00  0.00     0.277 HD
BRANCH  27  30
HETATM   30  C   UNL     1       3.401  31.818  60.916  1.00  0.00     0.237 C 
BRANCH  30  31
HETATM   31  C   UNL     1       3.384  33.322  61.199  1.00  0.00     0.068 C 
BRANCH  31  32
HETATM   32  C   UNL     1       3.651  33.617  62.635  1.00  0.00    -0.029 A 
HETATM   33  C   UNL     1       4.905  33.480  63.314  1.00  0.00     0.001 A 
HETATM   34  C   UNL     1       4.706  33.866  64.638  1.00  0.00     0.043 A 
HETATM   35  C   UNL     1       6.195  33.066  62.926  1.00  0.00     0.051 A 
HETATM   36  C   UNL     1       5.732  33.852  65.590  1.00  0.00     0.033 A 
HETATM   37  N   UNL     1       3.389  34.238  64.763  1.00  0.00    -0.365 N 
HETATM   38  C   UNL     1       7.003  33.429  65.177  1.00  0.00     0.039 A 
HETATM   39  C   UNL     1       7.240  33.039  63.862  1.00  0.00     0.069 A 
HETATM   40  H   UNL     1       2.970  34.582  65.617  1.00  0.00     0.165 HD
HETATM   41  C   UNL     1       2.741  34.084  63.564  1.00  0.00     0.096 A 
BRANCH  39  42
HETATM   42  O   UNL     1       8.436  32.609  63.352  1.00  0.00    -0.356 OA
HETATM   43  C   UNL     1       8.408  32.013  62.061  1.00  0.00     0.210 C 
ENDBRANCH  39  42
ENDBRANCH  31  32
ENDBRANCH  30  31
ENDBRANCH  27  30
ENDBRANCH  26  27
ENDBRANCH  23  26
ENDBRANCH   1  23
TORSDOF 13
ENDMDL
MODEL 10
REMARK VINA RESULT:      -9.1      3.860      6.705
REMARK  13 active torsions:
REMARK  status: ('A' for Active; 'I' for Inactive)
REMARK    1  A    between atoms: O_2  and  C_3 
REMARK    2  A    between atoms: C_6  and  C_7 
REMARK    3  A    between atoms: C_7  and  C_8 
REMARK    4  A    between atoms: C_9  and  C_10 
REMARK    5  A    between atoms: N_17  and  C_18 
REMARK    6  A    between atoms: C_18  and  C_19 
REMARK    7  A    between atoms: C_19  and  O_20 
REMARK    8  A    between atoms: C_19  and  C_21 
REMARK    9  A    between atoms: C_21  and  N_22 
REMARK   10  A    between atoms: N_22  and  C_25 
REMARK   11  A    between atoms: C_25  and  C_26 
REMARK   12  A    between atoms: C_26  and  C_27 
REMARK   13  A    between atoms: C_32  and  O_33 
ROOT
HETATM    1  C   UNL     1       5.644  25.899  56.339  1.00  0.00     0.162 C 
ENDROOT
BRANCH   1   2
HETATM    2  N   UNL     1       5.896  25.459  54.975  1.00  0.00    -0.353 N 
HETATM    3  C   UNL     1       6.815  24.501  54.602  1.00  0.00     0.045 A 
HETATM    4  C   UNL     1       6.675  24.315  53.219  1.00  0.00     0.002 A 
HETATM    5  C   UNL     1       7.741  23.765  55.365  1.00  0.00     0.030 A 
HETATM    6  C   UNL     1       5.672  25.235  52.773  1.00  0.00    -0.008 A 
HETATM    7  C   UNL     1       7.475  23.326  52.602  1.00  0.00     0.014 A 
HETATM    8  C   UNL     1       5.211  25.914  53.882  1.00  0.00     0.103 A 
HETATM    9  C   UNL     1       8.399  22.593  53.354  1.00  0.00     0.001 A 
HETATM   10  C   UNL     1       8.533  22.817  54.718  1.00  0.00     0.002 A 
BRANCH   6  11
HETATM   11  C   UNL     1       5.143  25.480  51.467  1.00  0.00     0.018 C 
HETATM   12  C   UNL     1       5.048  26.670  50.854  1.00  0.00     0.056 C 
BRANCH  12  13
HETATM   13  C   UNL     1       4.498  26.747  49.471  1.00  0.00     0.182 C 
HETATM   14  O   UNL     1       4.188  25.733  48.852  1.00  0.00    -0.288 OA
BRANCH  13  15
HETATM   15  C   UNL     1       4.391  28.083  48.818  1.00  0.00     0.014 A 
HETATM   16  C   UNL     1       5.196  29.175  49.164  1.00  0.00     0.018 A 
HETATM   17  C   UNL     1       5.066  30.386  48.474  1.00  0.00     0.037 A 
HETATM   18  C   UNL     1       4.134  30.529  47.444  1.00  0.00     0.068 A 
HETATM   19  C   UNL     1       3.306  29.456  47.121  1.00  0.00     0.037 A 
HETATM   20  C   UNL     1       3.433  28.240  47.807  1.00  0.00     0.018 A 
BRANCH  18  21
HETATM   21  O   UNL     1       4.128  31.759  46.847  1.00  0.00    -0.356 OA
HETATM   22  C   UNL     1       4.117  32.892  47.706  1.00  0.00     0.210 C 
ENDBRANCH  18  21
ENDBRANCH  13  15
ENDBRANCH  12  13
ENDBRANCH   6  11
ENDBRANCH   1   2
BRANCH   1  23
HETATM   23  C   UNL     1       5.431  27.418  56.424  1.00  0.00     0.162 C 
BRANCH  23  24
HETATM   24  O   UNL     1       4.070  27.727  56.732  1.00  0.00    -0.392 OA
HETATM   25  H   UNL     1       4.044  28.521  57.307  1.00  0.00     0.210 HD
ENDBRANCH  23  24
BRANCH  23  26
HETATM   26  C   UNL     1       6.269  28.051  57.552  1.00  0.00     0.265 C 
BRANCH  26  27
HETATM   27  N   UNL     1       6.086  29.536  57.667  1.00  0.00    -0.072 N 
HETATM   28  H   UNL     1       5.879  29.970  56.758  1.00  0.00     0.277 HD
HETATM   29  H   UNL     1       5.269  29.721  58.266  1.00  0.00     0.277 HD
BRANCH  27  30
HETATM   30  C   UNL     1       7.254  30.263  58.291  1.00  0.00     0.237 C 
BRANCH  30  31
HETATM   31  C   UNL     1       6.810  31.547  58.994  1.00  0.00     0.068 C 
BRANCH  31  32
HETATM   32  C   UNL     1       7.577  31.783  60.250  1.00  0.00    -0.029 A 
HETATM   33  C   UNL     1       7.041  32.217  61.506  1.00  0.00     0.001 A 
HETATM   34  C   UNL     1       8.104  32.303  62.403  1.00  0.00     0.043 A 
HETATM   35  C   UNL     1       5.750  32.543  61.966  1.00  0.00     0.051 A 
HETATM   36  C   UNL     1       7.937  32.704  63.733  1.00  0.00     0.033 A 
HETATM   37  N   UNL     1       9.240  31.925  61.730  1.00  0.00    -0.365 N 
HETATM   38  C   UNL     1       6.642  33.029  64.162  1.00  0.00     0.039 A 
HETATM   39  C   UNL     1       5.556  32.951  63.294  1.00  0.00     0.069 A 
HETATM   40  H   UNL     1      10.162  31.875  62.146  1.00  0.00     0.165 HD
HETATM   41  C   UNL     1       8.936  31.617  60.429  1.00  0.00     0.096 A 
BRANCH  39  42
HETATM   42  O   UNL     1       4.255  33.244  63.604  1.00  0.00    -0.356 OA
HETATM   43  C   UNL     1       3.349  33.379  62.516  1.00  0.00     0.210 C 
ENDBRANCH  39  42
ENDBRANCH  31  32
ENDBRANCH  30  31
ENDBRANCH  27  30
ENDBRANCH  26  27
ENDBRANCH  23  26
ENDBRANCH   1  23
TORSDOF 13
ENDMDL
