MODEL 1
REMARK VINA RESULT:      -9.9      0.000      0.000
REMARK  8 active torsions:
REMARK  status: ('A' for Active; 'I' for Inactive)
REMARK    1  A    between atoms: C_2  and  O_3 
REMARK    2  A    between atoms: O_3  and  C_4 
REMARK    3  A    between atoms: C_4  and  C_5 
REMARK    4  A    between atoms: N_7  and  C_9 
REMARK    5  A    between atoms: C_9  and  C_10 
REMARK       I    between atoms: C_10  and  N_11 
REMARK    6  A    between atoms: N_11  and  C_12 
REMARK    7  A    between atoms: C_20  and  C_21 
REMARK       I    between atoms: C_21  and  N_22 
REMARK    8  A    between atoms: N_22  and  C_23 
ROOT
HETATM    1  C   UNL     1       5.640  27.872  53.199  1.00  0.00     0.093 C 
HETATM    2  S   UNL     1       5.276  29.346  52.446  1.00  0.00    -0.075 SA
HETATM    3  C   UNL     1       4.876  28.578  50.997  1.00  0.00    -0.008 C 
HETATM    4  C   UNL     1       4.989  27.198  51.065  1.00  0.00    -0.026 C 
HETATM    5  C   UNL     1       4.742  26.371  49.827  1.00  0.00     0.041 C 
HETATM    6  C   UNL     1       4.774  27.206  48.538  1.00  0.00     0.005 C 
HETATM    7  C   UNL     1       3.941  28.483  48.684  1.00  0.00     0.005 C 
HETATM    8  C   UNL     1       4.505  29.384  49.786  1.00  0.00     0.047 C 
HETATM    9  C   UNL     1       5.346  26.757  52.412  1.00  0.00     0.073 C 
ENDROOT
BRANCH   1  10
HETATM   10  N   UNL     1       6.089  27.872  54.517  1.00  0.00    -0.319 N 
HETATM   11  C   UNL     1       5.284  28.101  55.608  1.00  0.00     0.248 C 
HETATM   12  O   UNL     1       4.109  28.479  55.617  1.00  0.00    -0.271 OA
HETATM   13  H   UNL     1       7.101  27.995  54.606  1.00  0.00     0.169 HD
BRANCH  11  14
HETATM   14  C   UNL     1       5.948  27.869  56.969  1.00  0.00     0.337 C 
BRANCH  14  15
HETATM   15  N   UNL     1       7.236  28.710  57.034  1.00  0.00    -0.062 N 
HETATM   16  C   UNL     1       7.230  29.683  58.199  1.00  0.00     0.249 C 
HETATM   17  C   UNL     1       8.390  30.665  58.045  1.00  0.00     0.111 C 
HETATM   18  C   UNL     1       9.719  29.919  57.912  1.00  0.00     0.018 C 
HETATM   19  C   UNL     1       9.674  28.873  56.798  1.00  0.00     0.029 C 
HETATM   20  C   UNL     1       8.499  27.914  56.948  1.00  0.00     0.235 C 
HETATM   21  H   UNL     1       7.155  29.299  56.183  1.00  0.00     0.280 HD
BRANCH  17  22
HETATM   22  C   UNL     1       8.390  31.585  59.245  1.00  0.00     0.264 C 
HETATM   23  O   UNL     1       9.014  32.635  59.291  1.00  0.00    -0.265 OA
BRANCH  22  24
HETATM   24  O   UNL     1       7.632  31.062  60.242  1.00  0.00    -0.322 OA
BRANCH  24  25
HETATM   25  C   UNL     1       8.126  31.242  61.580  1.00  0.00     0.174 C 
HETATM   26  C   UNL     1       9.330  30.349  61.810  1.00  0.00     0.034 C 
ENDBRANCH  24  25
ENDBRANCH  22  24
ENDBRANCH  17  22
ENDBRANCH  14  15
ENDBRANCH  11  14
ENDBRANCH   1  10
BRANCH   9  27
HETATM   27  C   UNL     1       5.493  25.394  52.980  1.00  0.00     0.259 C 
HETATM   28  N   UNL     1       6.788  24.943  53.131  1.00  0.00    -0.323 N 
HETATM   29  H   UNL     1       7.521  25.540  52.790  1.00  0.00     0.169 HD
HETATM   30  O   UNL     1       4.485  24.738  53.250  1.00  0.00    -0.267 OA
BRANCH  28  31
HETATM   31  C   UNL     1       7.237  23.722  53.677  1.00  0.00     0.035 A 
HETATM   32  C   UNL     1       7.674  22.631  52.924  1.00  0.00     0.031 A 
HETATM   33  C   UNL     1       8.103  21.458  53.559  1.00  0.00     0.026 A 
HETATM   34  C   UNL     1       8.087  21.369  54.948  1.00  0.00     0.034 A 
HETATM   35 CL   UNL     1       8.609  19.925  55.723  1.00  0.00    -0.084 Cl
HETATM   36  C   UNL     1       7.648  22.445  55.712  1.00  0.00     0.026 A 
HETATM   37  C   UNL     1       7.229  23.618  55.078  1.00  0.00     0.031 A 
ENDBRANCH  28  31
ENDBRANCH   9  27
TORSDOF 8
ENDMDL
MODEL 2
REMARK VINA RESULT:      -9.9      2.932      5.643
REMARK  8 active torsions:
REMARK  status: ('A' for Active; 'I' for Inactive)
REMARK    1  A    between atoms: C_2  and  O_3 
REMARK    2  A    between atoms: O_3  and  C_4 
REMARK    3  A    between atoms: C_4  and  C_5 
REMARK    4  A    between atoms: N_7  and  C_9 
REMARK    5  A    between atoms: C_9  and  C_10 
REMARK       I    between atoms: C_10  and  N_11 
REMARK    6  A    between atoms: N_11  and  C_12 
REMARK    7  A    between atoms: C_20  and  C_21 
REMARK       I    between atoms: C_21  and  N_22 
REMARK    8  A    between atoms: N_22  and  C_23 
ROOT
HETATM    1  C   UNL     1       7.040  24.915  55.382  1.00  0.00     0.093 C 
HETATM    2  S   UNL     1       7.378  23.763  56.580  1.00  0.00    -0.075 SA
HETATM    3  C   UNL     1       7.785  22.596  55.429  1.00  0.00    -0.008 C 
HETATM    4  C   UNL     1       7.693  23.062  54.127  1.00  0.00    -0.026 C 
HETATM    5  C   UNL     1       7.947  22.115  52.980  1.00  0.00     0.041 C 
HETATM    6  C   UNL     1       7.898  20.640  53.405  1.00  0.00     0.005 C 
HETATM    7  C   UNL     1       8.711  20.402  54.680  1.00  0.00     0.005 C 
HETATM    8  C   UNL     1       8.138  21.200  55.854  1.00  0.00     0.047 C 
HETATM    9  C   UNL     1       7.348  24.482  54.091  1.00  0.00     0.073 C 
ENDROOT
BRANCH   1  10
HETATM   10  N   UNL     1       6.596  26.179  55.759  1.00  0.00    -0.319 N 
HETATM   11  C   UNL     1       6.964  26.813  56.922  1.00  0.00     0.248 C 
HETATM   12  O   UNL     1       7.601  26.346  57.871  1.00  0.00    -0.271 OA
HETATM   13  H   UNL     1       5.747  26.479  55.273  1.00  0.00     0.169 HD
BRANCH  11  14
HETATM   14  C   UNL     1       6.508  28.270  57.044  1.00  0.00     0.337 C 
BRANCH  14  15
HETATM   15  N   UNL     1       7.755  29.172  57.072  1.00  0.00    -0.062 N 
HETATM   16  C   UNL     1       8.063  29.687  58.466  1.00  0.00     0.249 C 
HETATM   17  C   UNL     1       9.123  30.783  58.379  1.00  0.00     0.111 C 
HETATM   18  C   UNL     1      10.372  30.273  57.654  1.00  0.00     0.018 C 
HETATM   19  C   UNL     1      10.030  29.668  56.293  1.00  0.00     0.029 C 
HETATM   20  C   UNL     1       8.953  28.594  56.388  1.00  0.00     0.235 C 
HETATM   21  H   UNL     1       7.435  30.002  56.536  1.00  0.00     0.280 HD
BRANCH  17  22
HETATM   22  C   UNL     1       9.448  31.237  59.785  1.00  0.00     0.264 C 
HETATM   23  O   UNL     1       9.954  32.319  60.046  1.00  0.00    -0.265 OA
BRANCH  22  24
HETATM   24  O   UNL     1       9.122  30.271  60.681  1.00  0.00    -0.322 OA
BRANCH  24  25
HETATM   25  C   UNL     1       9.133  30.656  62.066  1.00  0.00     0.174 C 
HETATM   26  C   UNL     1       7.775  31.208  62.458  1.00  0.00     0.034 C 
ENDBRANCH  24  25
ENDBRANCH  22  24
ENDBRANCH  17  22
ENDBRANCH  14  15
ENDBRANCH  11  14
ENDBRANCH   1  10
BRANCH   9  27
HETATM   27  C   UNL     1       7.224  25.423  52.950  1.00  0.00     0.259 C 
HETATM   28  N   UNL     1       5.936  25.731  52.563  1.00  0.00    -0.323 N 
HETATM   29  H   UNL     1       5.191  25.253  53.038  1.00  0.00     0.169 HD
HETATM   30  O   UNL     1       8.243  25.842  52.398  1.00  0.00    -0.267 OA
BRANCH  28  31
HETATM   31  C   UNL     1       5.510  26.618  51.553  1.00  0.00     0.035 A 
HETATM   32  C   UNL     1       5.562  28.010  51.647  1.00  0.00     0.031 A 
HETATM   33  C   UNL     1       5.114  28.809  50.586  1.00  0.00     0.026 A 
HETATM   34  C   UNL     1       4.603  28.219  49.433  1.00  0.00     0.034 A 
HETATM   35 CL   UNL     1       4.049  29.204  48.137  1.00  0.00    -0.084 Cl
HETATM   36  C   UNL     1       4.538  26.834  49.327  1.00  0.00     0.026 A 
HETATM   37  C   UNL     1       4.995  26.038  50.382  1.00  0.00     0.031 A 
ENDBRANCH  28  31
ENDBRANCH   9  27
TORSDOF 8
ENDMDL
MODEL 3
REMARK VINA RESULT:      -9.6      3.299      8.702
REMARK  8 active torsions:
REMARK  status: ('A' for Active; 'I' for Inactive)
REMARK    1  A    between atoms: C_2  and  O_3 
REMARK    2  A    between atoms: O_3  and  C_4 
REMARK    3  A    between atoms: C_4  and  C_5 
REMARK    4  A    between atoms: N_7  and  C_9 
REMARK    5  A    between atoms: C_9  and  C_10 
REMARK       I    between atoms: C_10  and  N_11 
REMARK    6  A    between atoms: N_11  and  C_12 
REMARK    7  A    between atoms: C_20  and  C_21 
REMARK       I    between atoms: C_21  and  N_22 
REMARK    8  A    between atoms: N_22  and  C_23 
ROOT
HETATM    1  C   UNL     1       6.246  25.616  53.953  1.00  0.00     0.093 C 
HETATM    2  S   UNL     1       6.176  24.329  52.851  1.00  0.00    -0.075 SA
HETATM    3  C   UNL     1       7.253  23.405  53.767  1.00  0.00    -0.008 C 
HETATM    4  C   UNL     1       7.664  24.042  54.927  1.00  0.00    -0.026 C 
HETATM    5  C   UNL     1       8.688  23.379  55.814  1.00  0.00     0.041 C 
HETATM    6  C   UNL     1       9.440  22.241  55.108  1.00  0.00     0.005 C 
HETATM    7  C   UNL     1       8.472  21.312  54.370  1.00  0.00     0.005 C 
HETATM    8  C   UNL     1       7.716  22.066  53.273  1.00  0.00     0.047 C 
HETATM    9  C   UNL     1       6.985  25.325  55.101  1.00  0.00     0.073 C 
ENDROOT
BRANCH   1  10
HETATM   10  N   UNL     1       5.517  26.774  53.697  1.00  0.00    -0.319 N 
HETATM   11  C   UNL     1       6.065  27.944  53.227  1.00  0.00     0.248 C 
HETATM   12  O   UNL     1       7.261  28.222  53.095  1.00  0.00    -0.271 OA
HETATM   13  H   UNL     1       4.608  26.799  54.166  1.00  0.00     0.169 HD
BRANCH  11  14
HETATM   14  C   UNL     1       5.055  29.028  52.839  1.00  0.00     0.337 C 
BRANCH  14  15
HETATM   15  N   UNL     1       5.185  29.299  51.329  1.00  0.00    -0.062 N 
HETATM   16  C   UNL     1       4.756  28.108  50.491  1.00  0.00     0.249 C 
HETATM   17  C   UNL     1       5.168  28.336  49.038  1.00  0.00     0.111 C 
HETATM   18  C   UNL     1       4.599  29.656  48.513  1.00  0.00     0.018 C 
HETATM   19  C   UNL     1       4.958  30.831  49.423  1.00  0.00     0.029 C 
HETATM   20  C   UNL     1       4.565  30.583  50.875  1.00  0.00     0.235 C 
HETATM   21  H   UNL     1       6.214  29.365  51.207  1.00  0.00     0.280 HD
BRANCH  17  22
HETATM   22  C   UNL     1       4.680  27.160  48.220  1.00  0.00     0.264 C 
HETATM   23  O   UNL     1       5.225  26.777  47.196  1.00  0.00    -0.265 OA
BRANCH  22  24
HETATM   24  O   UNL     1       3.559  26.633  48.774  1.00  0.00    -0.322 OA
BRANCH  24  25
HETATM   25  C   UNL     1       2.428  26.477  47.899  1.00  0.00     0.174 C 
HETATM   26  C   UNL     1       1.343  27.468  48.278  1.00  0.00     0.034 C 
ENDBRANCH  24  25
ENDBRANCH  22  24
ENDBRANCH  17  22
ENDBRANCH  14  15
ENDBRANCH  11  14
ENDBRANCH   1  10
BRANCH   9  27
HETATM   27  C   UNL     1       7.034  26.306  56.214  1.00  0.00     0.259 C 
HETATM   28  N   UNL     1       7.883  27.379  56.032  1.00  0.00    -0.323 N 
HETATM   29  H   UNL     1       8.443  27.380  55.197  1.00  0.00     0.169 HD
HETATM   30  O   UNL     1       6.364  26.106  57.228  1.00  0.00    -0.267 OA
BRANCH  28  31
HETATM   31  C   UNL     1       8.106  28.480  56.885  1.00  0.00     0.035 A 
HETATM   32  C   UNL     1       7.101  29.168  57.566  1.00  0.00     0.031 A 
HETATM   33  C   UNL     1       7.421  30.252  58.395  1.00  0.00     0.026 A 
HETATM   34  C   UNL     1       8.745  30.658  58.535  1.00  0.00     0.034 A 
HETATM   35 CL   UNL     1       9.133  31.993  59.547  1.00  0.00    -0.084 Cl
HETATM   36  C   UNL     1       9.757  29.987  57.857  1.00  0.00     0.026 A 
HETATM   37  C   UNL     1       9.437  28.899  57.039  1.00  0.00     0.031 A 
ENDBRANCH  28  31
ENDBRANCH   9  27
TORSDOF 8
ENDMDL
MODEL 4
REMARK VINA RESULT:      -9.4      3.002      5.844
REMARK  8 active torsions:
REMARK  status: ('A' for Active; 'I' for Inactive)
REMARK    1  A    between atoms: C_2  and  O_3 
REMARK    2  A    between atoms: O_3  and  C_4 
REMARK    3  A    between atoms: C_4  and  C_5 
REMARK    4  A    between atoms: N_7  and  C_9 
REMARK    5  A    between atoms: C_9  and  C_10 
REMARK       I    between atoms: C_10  and  N_11 
REMARK    6  A    between atoms: N_11  and  C_12 
REMARK    7  A    between atoms: C_20  and  C_21 
REMARK       I    between atoms: C_21  and  N_22 
REMARK    8  A    between atoms: N_22  and  C_23 
ROOT
HETATM    1  C   UNL     1       6.014  25.489  55.356  1.00  0.00     0.093 C 
HETATM    2  S   UNL     1       7.148  24.968  56.503  1.00  0.00    -0.075 SA
HETATM    3  C   UNL     1       7.768  23.802  55.451  1.00  0.00    -0.008 C 
HETATM    4  C   UNL     1       7.146  23.802  54.213  1.00  0.00    -0.026 C 
HETATM    5  C   UNL     1       7.533  22.766  53.187  1.00  0.00     0.041 C 
HETATM    6  C   UNL     1       8.306  21.587  53.796  1.00  0.00     0.005 C 
HETATM    7  C   UNL     1       9.420  22.075  54.728  1.00  0.00     0.005 C 
HETATM    8  C   UNL     1       8.843  22.859  55.909  1.00  0.00     0.047 C 
HETATM    9  C   UNL     1       6.163  24.880  54.109  1.00  0.00     0.073 C 
ENDROOT
BRANCH   1  10
HETATM   10  N   UNL     1       5.124  26.507  55.691  1.00  0.00    -0.319 N 
HETATM   11  C   UNL     1       5.214  27.797  55.223  1.00  0.00     0.248 C 
HETATM   12  O   UNL     1       6.135  28.306  54.577  1.00  0.00    -0.271 OA
HETATM   13  H   UNL     1       4.584  26.318  56.539  1.00  0.00     0.169 HD
BRANCH  11  14
HETATM   14  C   UNL     1       4.027  28.700  55.569  1.00  0.00     0.337 C 
BRANCH  14  15
HETATM   15  N   UNL     1       4.371  29.493  56.844  1.00  0.00    -0.062 N 
HETATM   16  C   UNL     1       5.824  29.931  56.875  1.00  0.00     0.249 C 
HETATM   17  C   UNL     1       6.165  30.456  58.268  1.00  0.00     0.111 C 
HETATM   18  C   UNL     1       5.206  31.578  58.675  1.00  0.00     0.018 C 
HETATM   19  C   UNL     1       3.744  31.151  58.542  1.00  0.00     0.029 C 
HETATM   20  C   UNL     1       3.421  30.605  57.156  1.00  0.00     0.235 C 
HETATM   21  H   UNL     1       4.287  28.766  57.581  1.00  0.00     0.280 HD
BRANCH  17  22
HETATM   22  C   UNL     1       7.600  30.935  58.253  1.00  0.00     0.264 C 
HETATM   23  O   UNL     1       7.968  31.982  58.766  1.00  0.00    -0.265 OA
BRANCH  22  24
HETATM   24  O   UNL     1       8.383  30.058  57.577  1.00  0.00    -0.322 OA
BRANCH  24  25
HETATM   25  C   UNL     1       9.800  30.164  57.802  1.00  0.00     0.174 C 
HETATM   26  C   UNL     1      10.553  29.723  56.561  1.00  0.00     0.034 C 
ENDBRANCH  24  25
ENDBRANCH  22  24
ENDBRANCH  17  22
ENDBRANCH  14  15
ENDBRANCH  11  14
ENDBRANCH   1  10
BRANCH   9  27
HETATM   27  C   UNL     1       5.325  25.323  52.967  1.00  0.00     0.259 C 
HETATM   28  N   UNL     1       5.884  26.282  52.148  1.00  0.00    -0.323 N 
HETATM   29  H   UNL     1       6.779  26.648  52.420  1.00  0.00     0.169 HD
HETATM   30  O   UNL     1       4.193  24.854  52.829  1.00  0.00    -0.267 OA
BRANCH  28  31
HETATM   31  C   UNL     1       5.351  26.857  50.976  1.00  0.00     0.035 A 
HETATM   32  C   UNL     1       4.825  26.130  49.907  1.00  0.00     0.031 A 
HETATM   33  C   UNL     1       4.315  26.793  48.782  1.00  0.00     0.026 A 
HETATM   34  C   UNL     1       4.340  28.184  48.718  1.00  0.00     0.034 A 
HETATM   35 CL   UNL     1       3.720  28.992  47.334  1.00  0.00    -0.084 Cl
HETATM   36  C   UNL     1       4.868  28.921  49.773  1.00  0.00     0.026 A 
HETATM   37  C   UNL     1       5.366  28.259  50.899  1.00  0.00     0.031 A 
ENDBRANCH  28  31
ENDBRANCH   9  27
TORSDOF 8
ENDMDL
MODEL 5
REMARK VINA RESULT:      -9.3      3.462      6.222
REMARK  8 active torsions:
REMARK  status: ('A' for Active; 'I' for Inactive)
REMARK    1  A    between atoms: C_2  and  O_3 
REMARK    2  A    between atoms: O_3  and  C_4 
REMARK    3  A    between atoms: C_4  and  C_5 
REMARK    4  A    between atoms: N_7  and  C_9 
REMARK    5  A    between atoms: C_9  and  C_10 
REMARK       I    between atoms: C_10  and  N_11 
REMARK    6  A    between atoms: N_11  and  C_12 
REMARK    7  A    between atoms: C_20  and  C_21 
REMARK       I    between atoms: C_21  and  N_22 
REMARK    8  A    between atoms: N_22  and  C_23 
ROOT
HETATM    1  C   UNL     1       7.811  24.790  55.424  1.00  0.00     0.093 C 
HETATM    2  S   UNL     1       8.243  23.614  56.566  1.00  0.00    -0.075 SA
HETATM    3  C   UNL     1       8.267  22.397  55.396  1.00  0.00    -0.008 C 
HETATM    4  C   UNL     1       7.972  22.861  54.124  1.00  0.00    -0.026 C 
HETATM    5  C   UNL     1       7.875  21.882  52.981  1.00  0.00     0.041 C 
HETATM    6  C   UNL     1       7.736  20.427  53.455  1.00  0.00     0.005 C 
HETATM    7  C   UNL     1       8.755  20.100  54.550  1.00  0.00     0.005 C 
HETATM    8  C   UNL     1       8.529  20.972  55.788  1.00  0.00     0.047 C 
HETATM    9  C   UNL     1       7.800  24.313  54.112  1.00  0.00     0.073 C 
ENDROOT
BRANCH   1  10
HETATM   10  N   UNL     1       7.607  26.103  55.840  1.00  0.00    -0.319 N 
HETATM   11  C   UNL     1       6.563  26.508  56.637  1.00  0.00     0.248 C 
HETATM   12  O   UNL     1       5.580  25.851  56.990  1.00  0.00    -0.271 OA
HETATM   13  H   UNL     1       8.101  26.795  55.270  1.00  0.00     0.169 HD
BRANCH  11  14
HETATM   14  C   UNL     1       6.639  27.958  57.124  1.00  0.00     0.337 C 
BRANCH  14  15
HETATM   15  N   UNL     1       5.381  28.702  56.641  1.00  0.00    -0.062 N 
HETATM   16  C   UNL     1       5.061  29.911  57.502  1.00  0.00     0.249 C 
HETATM   17  C   UNL     1       3.668  30.431  57.148  1.00  0.00     0.111 C 
HETATM   18  C   UNL     1       3.567  30.734  55.651  1.00  0.00     0.018 C 
HETATM   19  C   UNL     1       3.988  29.537  54.800  1.00  0.00     0.029 C 
HETATM   20  C   UNL     1       5.368  29.011  55.178  1.00  0.00     0.235 C 
HETATM   21  H   UNL     1       4.630  28.014  56.843  1.00  0.00     0.280 HD
BRANCH  17  22
HETATM   22  C   UNL     1       3.401  31.664  57.981  1.00  0.00     0.264 C 
HETATM   23  O   UNL     1       3.108  32.751  57.504  1.00  0.00    -0.265 OA
BRANCH  22  24
HETATM   24  O   UNL     1       3.560  31.388  59.300  1.00  0.00    -0.322 OA
BRANCH  24  25
HETATM   25  C   UNL     1       3.985  32.480  60.134  1.00  0.00     0.174 C 
HETATM   26  C   UNL     1       5.500  32.562  60.143  1.00  0.00     0.034 C 
ENDBRANCH  24  25
ENDBRANCH  22  24
ENDBRANCH  17  22
ENDBRANCH  14  15
ENDBRANCH  11  14
ENDBRANCH   1  10
BRANCH   9  27
HETATM   27  C   UNL     1       7.562  25.253  52.988  1.00  0.00     0.259 C 
HETATM   28  N   UNL     1       6.247  25.611  52.772  1.00  0.00    -0.323 N 
HETATM   29  H   UNL     1       5.554  25.165  53.347  1.00  0.00     0.169 HD
HETATM   30  O   UNL     1       8.514  25.629  52.301  1.00  0.00    -0.267 OA
BRANCH  28  31
HETATM   31  C   UNL     1       5.725  26.510  51.819  1.00  0.00     0.035 A 
HETATM   32  C   UNL     1       5.757  27.900  51.941  1.00  0.00     0.031 A 
HETATM   33  C   UNL     1       5.212  28.712  50.937  1.00  0.00     0.026 A 
HETATM   34  C   UNL     1       4.624  28.136  49.814  1.00  0.00     0.034 A 
HETATM   35 CL   UNL     1       3.951  29.136  48.588  1.00  0.00    -0.084 Cl
HETATM   36  C   UNL     1       4.578  26.752  49.682  1.00  0.00     0.026 A 
HETATM   37  C   UNL     1       5.131  25.944  50.679  1.00  0.00     0.031 A 
ENDBRANCH  28  31
ENDBRANCH   9  27
TORSDOF 8
ENDMDL
MODEL 6
REMARK VINA RESULT:      -9.3      2.862      5.530
REMARK  8 active torsions:
REMARK  status: ('A' for Active; 'I' for Inactive)
REMARK    1  A    between atoms: C_2  and  O_3 
REMARK    2  A    between atoms: O_3  and  C_4 
REMARK    3  A    between atoms: C_4  and  C_5 
REMARK    4  A    between atoms: N_7  and  C_9 
REMARK    5  A    between atoms: C_9  and  C_10 
REMARK       I    between atoms: C_10  and  N_11 
REMARK    6  A    between atoms: N_11  and  C_12 
REMARK    7  A    between atoms: C_20  and  C_21 
REMARK       I    between atoms: C_21  and  N_22 
REMARK    8  A    between atoms: N_22  and  C_23 
ROOT
HETATM    1  C   UNL     1       7.274  25.010  55.417  1.00  0.00     0.093 C 
HETATM    2  S   UNL     1       8.534  24.138  56.142  1.00  0.00    -0.075 SA
HETATM    3  C   UNL     1       8.477  22.944  54.949  1.00  0.00    -0.008 C 
HETATM    4  C   UNL     1       7.524  23.195  53.975  1.00  0.00    -0.026 C 
HETATM    5  C   UNL     1       7.296  22.181  52.881  1.00  0.00     0.041 C 
HETATM    6  C   UNL     1       7.890  20.804  53.214  1.00  0.00     0.005 C 
HETATM    7  C   UNL     1       9.323  20.931  53.740  1.00  0.00     0.005 C 
HETATM    8  C   UNL     1       9.361  21.734  55.042  1.00  0.00     0.047 C 
HETATM    9  C   UNL     1       6.869  24.484  54.188  1.00  0.00     0.073 C 
ENDROOT
BRANCH   1  10
HETATM   10  N   UNL     1       6.824  26.183  56.015  1.00  0.00    -0.319 N 
HETATM   11  C   UNL     1       7.048  27.443  55.512  1.00  0.00     0.248 C 
HETATM   12  O   UNL     1       7.778  27.764  54.570  1.00  0.00    -0.271 OA
HETATM   13  H   UNL     1       6.584  26.074  57.004  1.00  0.00     0.169 HD
BRANCH  11  14
HETATM   14  C   UNL     1       6.305  28.574  56.230  1.00  0.00     0.337 C 
BRANCH  14  15
HETATM   15  N   UNL     1       7.336  29.446  56.967  1.00  0.00    -0.062 N 
HETATM   16  C   UNL     1       6.724  30.201  58.133  1.00  0.00     0.249 C 
HETATM   17  C   UNL     1       7.717  31.246  58.639  1.00  0.00     0.111 C 
HETATM   18  C   UNL     1       9.054  30.593  59.001  1.00  0.00     0.018 C 
HETATM   19  C   UNL     1       9.607  29.756  57.847  1.00  0.00     0.029 C 
HETATM   20  C   UNL     1       8.600  28.734  57.334  1.00  0.00     0.235 C 
HETATM   21  H   UNL     1       7.557  30.170  56.256  1.00  0.00     0.280 HD
BRANCH  17  22
HETATM   22  C   UNL     1       7.101  31.942  59.832  1.00  0.00     0.264 C 
HETATM   23  O   UNL     1       6.141  32.694  59.754  1.00  0.00    -0.265 OA
BRANCH  22  24
HETATM   24  O   UNL     1       7.781  31.629  60.964  1.00  0.00    -0.322 OA
BRANCH  24  25
HETATM   25  C   UNL     1       7.082  31.834  62.204  1.00  0.00     0.174 C 
HETATM   26  C   UNL     1       8.041  32.356  63.257  1.00  0.00     0.034 C 
ENDBRANCH  24  25
ENDBRANCH  22  24
ENDBRANCH  17  22
ENDBRANCH  14  15
ENDBRANCH  11  14
ENDBRANCH   1  10
BRANCH   9  27
HETATM   27  C   UNL     1       5.861  25.208  53.373  1.00  0.00     0.259 C 
HETATM   28  N   UNL     1       6.362  25.976  52.343  1.00  0.00    -0.323 N 
HETATM   29  H   UNL     1       7.362  26.036  52.263  1.00  0.00     0.169 HD
HETATM   30  O   UNL     1       4.668  25.119  53.667  1.00  0.00    -0.267 OA
BRANCH  28  31
HETATM   31  C   UNL     1       5.655  26.732  51.384  1.00  0.00     0.035 A 
HETATM   32  C   UNL     1       5.463  28.113  51.450  1.00  0.00     0.031 A 
HETATM   33  C   UNL     1       4.745  28.777  50.446  1.00  0.00     0.026 A 
HETATM   34  C   UNL     1       4.208  28.061  49.380  1.00  0.00     0.034 A 
HETATM   35 CL   UNL     1       3.322  28.880  48.155  1.00  0.00    -0.084 Cl
HETATM   36  C   UNL     1       4.384  26.684  49.305  1.00  0.00     0.026 A 
HETATM   37  C   UNL     1       5.109  26.024  50.301  1.00  0.00     0.031 A 
ENDBRANCH  28  31
ENDBRANCH   9  27
TORSDOF 8
ENDMDL
MODEL 7
REMARK VINA RESULT:      -9.2      3.043      5.742
REMARK  8 active torsions:
REMARK  status: ('A' for Active; 'I' for Inactive)
REMARK    1  A    between atoms: C_2  and  O_3 
REMARK    2  A    between atoms: O_3  and  C_4 
REMARK    3  A    between atoms: C_4  and  C_5 
REMARK    4  A    between atoms: N_7  and  C_9 
REMARK    5  A    between atoms: C_9  and  C_10 
REMARK       I    between atoms: C_10  and  N_11 
REMARK    6  A    between atoms: N_11  and  C_12 
REMARK    7  A    between atoms: C_20  and  C_21 
REMARK       I    between atoms: C_21  and  N_22 
REMARK    8  A    between atoms: N_22  and  C_23 
ROOT
HETATM    1  C   UNL     1       6.939  27.666  55.872  1.00  0.00     0.093 C 
HETATM    2  S   UNL     1       8.083  27.086  56.982  1.00  0.00    -0.075 SA
HETATM    3  C   UNL     1       8.005  25.526  56.340  1.00  0.00    -0.008 C 
HETATM    4  C   UNL     1       7.134  25.423  55.267  1.00  0.00    -0.026 C 
HETATM    5  C   UNL     1       6.894  24.075  54.633  1.00  0.00     0.041 C 
HETATM    6  C   UNL     1       7.359  22.910  55.520  1.00  0.00     0.005 C 
HETATM    7  C   UNL     1       8.763  23.162  56.075  1.00  0.00     0.005 C 
HETATM    8  C   UNL     1       8.786  24.407  56.966  1.00  0.00     0.047 C 
HETATM    9  C   UNL     1       6.569  26.723  54.912  1.00  0.00     0.073 C 
ENDROOT
BRANCH   1  10
HETATM   10  N   UNL     1       6.546  29.000  55.932  1.00  0.00    -0.319 N 
HETATM   11  C   UNL     1       5.550  29.477  56.752  1.00  0.00     0.248 C 
HETATM   12  O   UNL     1       4.758  28.826  57.438  1.00  0.00    -0.271 OA
HETATM   13  H   UNL     1       6.829  29.549  55.116  1.00  0.00     0.169 HD
BRANCH  11  14
HETATM   14  C   UNL     1       5.413  31.002  56.792  1.00  0.00     0.337 C 
BRANCH  14  15
HETATM   15  N   UNL     1       5.450  31.457  58.263  1.00  0.00    -0.062 N 
HETATM   16  C   UNL     1       6.847  31.848  58.709  1.00  0.00     0.249 C 
HETATM   17  C   UNL     1       6.865  32.016  60.228  1.00  0.00     0.111 C 
HETATM   18  C   UNL     1       5.803  33.024  60.675  1.00  0.00     0.018 C 
HETATM   19  C   UNL     1       4.419  32.668  60.133  1.00  0.00     0.029 C 
HETATM   20  C   UNL     1       4.417  32.478  58.621  1.00  0.00     0.235 C 
HETATM   21  H   UNL     1       5.236  30.575  58.769  1.00  0.00     0.280 HD
BRANCH  17  22
HETATM   22  C   UNL     1       8.253  32.459  60.635  1.00  0.00     0.264 C 
HETATM   23  O   UNL     1       9.097  32.850  59.842  1.00  0.00    -0.265 OA
BRANCH  22  24
HETATM   24  O   UNL     1       8.415  32.331  61.976  1.00  0.00    -0.322 OA
BRANCH  24  25
HETATM   25  C   UNL     1       8.301  31.000  62.509  1.00  0.00     0.174 C 
HETATM   26  C   UNL     1       9.531  30.191  62.142  1.00  0.00     0.034 C 
ENDBRANCH  24  25
ENDBRANCH  22  24
ENDBRANCH  17  22
ENDBRANCH  14  15
ENDBRANCH  11  14
ENDBRANCH   1  10
BRANCH   9  27
HETATM   27  C   UNL     1       5.670  27.120  53.798  1.00  0.00     0.259 C 
HETATM   28  N   UNL     1       6.196  26.995  52.529  1.00  0.00    -0.323 N 
HETATM   29  H   UNL     1       7.157  26.709  52.460  1.00  0.00     0.169 HD
HETATM   30  O   UNL     1       4.547  27.559  54.053  1.00  0.00    -0.267 OA
BRANCH  28  31
HETATM   31  C   UNL     1       5.573  27.250  51.290  1.00  0.00     0.035 A 
HETATM   32  C   UNL     1       5.424  28.518  50.725  1.00  0.00     0.031 A 
HETATM   33  C   UNL     1       4.790  28.670  49.484  1.00  0.00     0.026 A 
HETATM   34  C   UNL     1       4.293  27.557  48.810  1.00  0.00     0.034 A 
HETATM   35 CL   UNL     1       3.510  27.750  47.292  1.00  0.00    -0.084 Cl
HETATM   36  C   UNL     1       4.427  26.289  49.364  1.00  0.00     0.026 A 
HETATM   37  C   UNL     1       5.070  26.137  50.597  1.00  0.00     0.031 A 
ENDBRANCH  28  31
ENDBRANCH   9  27
TORSDOF 8
ENDMDL
MODEL 8
REMARK VINA RESULT:      -9.0      3.042      5.864
REMARK  8 active torsions:
REMARK  status: ('A' for Active; 'I' for Inactive)
REMARK    1  A    between atoms: C_2  and  O_3 
REMARK    2  A    between atoms: O_3  and  C_4 
REMARK    3  A    between atoms: C_4  and  C_5 
REMARK    4  A    between atoms: N_7  and  C_9 
REMARK    5  A    between atoms: C_9  and  C_10 
REMARK       I    between atoms: C_10  and  N_11 
REMARK    6  A    between atoms: N_11  and  C_12 
REMARK    7  A    between atoms: C_20  and  C_21 
REMARK       I    between atoms: C_21  and  N_22 
REMARK    8  A    between atoms: N_22  and  C_23 
ROOT
HETATM    1  C   UNL     1       6.106  25.960  55.524  1.00  0.00     0.093 C 
HETATM    2  S   UNL     1       6.485  24.766  56.667  1.00  0.00    -0.075 SA
HETATM    3  C   UNL     1       7.273  23.821  55.511  1.00  0.00    -0.008 C 
HETATM    4  C   UNL     1       7.282  24.400  54.252  1.00  0.00    -0.026 C 
HETATM    5  C   UNL     1       7.880  23.644  53.092  1.00  0.00     0.041 C 
HETATM    6  C   UNL     1       8.057  22.146  53.386  1.00  0.00     0.005 C 
HETATM    7  C   UNL     1       8.707  21.924  54.755  1.00  0.00     0.005 C 
HETATM    8  C   UNL     1       7.826  22.475  55.878  1.00  0.00     0.047 C 
HETATM    9  C   UNL     1       6.677  25.731  54.271  1.00  0.00     0.073 C 
ENDROOT
BRANCH   1  10
HETATM   10  N   UNL     1       5.375  27.076  55.921  1.00  0.00    -0.319 N 
HETATM   11  C   UNL     1       5.864  28.072  56.733  1.00  0.00     0.248 C 
HETATM   12  O   UNL     1       6.931  28.089  57.353  1.00  0.00    -0.271 OA
HETATM   13  H   UNL     1       4.363  26.960  55.825  1.00  0.00     0.169 HD
BRANCH  11  14
HETATM   14  C   UNL     1       4.954  29.294  56.888  1.00  0.00     0.337 C 
BRANCH  14  15
HETATM   15  N   UNL     1       5.482  30.153  58.051  1.00  0.00    -0.062 N 
HETATM   16  C   UNL     1       6.961  30.467  57.909  1.00  0.00     0.249 C 
HETATM   17  C   UNL     1       7.477  31.072  59.213  1.00  0.00     0.111 C 
HETATM   18  C   UNL     1       6.652  32.300  59.606  1.00  0.00     0.018 C 
HETATM   19  C   UNL     1       5.156  31.989  59.648  1.00  0.00     0.029 C 
HETATM   20  C   UNL     1       4.656  31.364  58.351  1.00  0.00     0.235 C 
HETATM   21  H   UNL     1       5.416  29.498  58.853  1.00  0.00     0.280 HD
BRANCH  17  22
HETATM   22  C   UNL     1       8.936  31.424  59.023  1.00  0.00     0.264 C 
HETATM   23  O   UNL     1       9.401  32.529  59.264  1.00  0.00    -0.265 OA
BRANCH  22  24
HETATM   24  O   UNL     1       9.619  30.360  58.533  1.00  0.00    -0.322 OA
BRANCH  24  25
HETATM   25  C   UNL     1      10.612  30.645  57.532  1.00  0.00     0.174 C 
HETATM   26  C   UNL     1      10.533  29.616  56.420  1.00  0.00     0.034 C 
ENDBRANCH  24  25
ENDBRANCH  22  24
ENDBRANCH  17  22
ENDBRANCH  14  15
ENDBRANCH  11  14
ENDBRANCH   1  10
BRANCH   9  27
HETATM   27  C   UNL     1       6.539  26.750  53.201  1.00  0.00     0.259 C 
HETATM   28  N   UNL     1       5.712  26.410  52.150  1.00  0.00    -0.323 N 
HETATM   29  H   UNL     1       5.321  25.485  52.160  1.00  0.00     0.169 HD
HETATM   30  O   UNL     1       7.175  27.803  53.282  1.00  0.00    -0.267 OA
BRANCH  28  31
HETATM   31  C   UNL     1       5.357  27.182  51.025  1.00  0.00     0.035 A 
HETATM   32  C   UNL     1       5.395  28.577  50.978  1.00  0.00     0.031 A 
HETATM   33  C   UNL     1       5.023  29.257  49.810  1.00  0.00     0.026 A 
HETATM   34  C   UNL     1       4.601  28.545  48.690  1.00  0.00     0.034 A 
HETATM   35 CL   UNL     1       4.140  29.384  47.263  1.00  0.00    -0.084 Cl
HETATM   36  C   UNL     1       4.551  27.156  48.724  1.00  0.00     0.026 A 
HETATM   37  C   UNL     1       4.932  26.478  49.886  1.00  0.00     0.031 A 
ENDBRANCH  28  31
ENDBRANCH   9  27
TORSDOF 8
ENDMDL
MODEL 9
REMARK VINA RESULT:      -9.0      2.567      7.567
REMARK  8 active torsions:
REMARK  status: ('A' for Active; 'I' for Inactive)
REMARK    1  A    between atoms: C_2  and  O_3 
REMARK    2  A    between atoms: O_3  and  C_4 
REMARK    3  A    between atoms: C_4  and  C_5 
REMARK    4  A    between atoms: N_7  and  C_9 
REMARK    5  A    between atoms: C_9  and  C_10 
REMARK       I    between atoms: C_10  and  N_11 
REMARK    6  A    between atoms: N_11  and  C_12 
REMARK    7  A    between atoms: C_20  and  C_21 
REMARK       I    between atoms: C_21  and  N_22 
REMARK    8  A    between atoms: N_22  and  C_23 
ROOT
HETATM    1  C   UNL     1       5.835  30.696  57.579  1.00  0.00     0.093 C 
HETATM    2  S   UNL     1       5.682  32.136  58.461  1.00  0.00    -0.075 SA
HETATM    3  C   UNL     1       7.046  31.783  59.392  1.00  0.00    -0.008 C 
HETATM    4  C   UNL     1       7.650  30.587  59.038  1.00  0.00    -0.026 C 
HETATM    5  C   UNL     1       8.835  30.092  59.829  1.00  0.00     0.041 C 
HETATM    6  C   UNL     1       8.982  30.799  61.185  1.00  0.00     0.005 C 
HETATM    7  C   UNL     1       8.845  32.317  61.038  1.00  0.00     0.005 C 
HETATM    8  C   UNL     1       7.458  32.694  60.511  1.00  0.00     0.047 C 
HETATM    9  C   UNL     1       6.994  29.979  57.882  1.00  0.00     0.073 C 
ENDROOT
BRANCH   1  10
HETATM   10  N   UNL     1       4.898  30.396  56.594  1.00  0.00    -0.319 N 
HETATM   11  C   UNL     1       4.675  31.168  55.478  1.00  0.00     0.248 C 
HETATM   12  O   UNL     1       5.130  32.287  55.227  1.00  0.00    -0.271 OA
HETATM   13  H   UNL     1       4.176  29.739  56.901  1.00  0.00     0.169 HD
BRANCH  11  14
HETATM   14  C   UNL     1       3.734  30.554  54.438  1.00  0.00     0.337 C 
BRANCH  14  15
HETATM   15  N   UNL     1       4.584  29.850  53.364  1.00  0.00    -0.062 N 
HETATM   16  C   UNL     1       4.753  28.368  53.644  1.00  0.00     0.249 C 
HETATM   17  C   UNL     1       5.821  27.795  52.714  1.00  0.00     0.111 C 
HETATM   18  C   UNL     1       5.473  28.079  51.250  1.00  0.00     0.018 C 
HETATM   19  C   UNL     1       5.209  29.565  51.007  1.00  0.00     0.029 C 
HETATM   20  C   UNL     1       4.161  30.132  51.957  1.00  0.00     0.235 C 
HETATM   21  H   UNL     1       5.521  30.269  53.520  1.00  0.00     0.280 HD
BRANCH  17  22
HETATM   22  C   UNL     1       5.927  26.310  52.978  1.00  0.00     0.264 C 
HETATM   23  O   UNL     1       4.965  25.556  52.993  1.00  0.00    -0.265 OA
BRANCH  22  24
HETATM   24  O   UNL     1       7.217  25.963  53.213  1.00  0.00    -0.322 OA
BRANCH  24  25
HETATM   25  C   UNL     1       7.863  25.179  52.195  1.00  0.00     0.174 C 
HETATM   26  C   UNL     1       7.874  23.717  52.598  1.00  0.00     0.034 C 
ENDBRANCH  24  25
ENDBRANCH  22  24
ENDBRANCH  17  22
ENDBRANCH  14  15
ENDBRANCH  11  14
ENDBRANCH   1  10
BRANCH   9  27
HETATM   27  C   UNL     1       7.331  28.760  57.104  1.00  0.00     0.259 C 
HETATM   28  N   UNL     1       7.230  27.565  57.787  1.00  0.00    -0.323 N 
HETATM   29  H   UNL     1       6.999  27.616  58.763  1.00  0.00     0.169 HD
HETATM   30  O   UNL     1       7.706  28.872  55.936  1.00  0.00    -0.267 OA
BRANCH  28  31
HETATM   31  C   UNL     1       7.442  26.256  57.305  1.00  0.00     0.035 A 
HETATM   32  C   UNL     1       8.647  25.560  57.409  1.00  0.00     0.031 A 
HETATM   33  C   UNL     1       8.759  24.259  56.899  1.00  0.00     0.026 A 
HETATM   34  C   UNL     1       7.671  23.655  56.275  1.00  0.00     0.034 A 
HETATM   35 CL   UNL     1       7.816  22.062  55.646  1.00  0.00    -0.084 Cl
HETATM   36  C   UNL     1       6.466  24.340  56.157  1.00  0.00     0.026 A 
HETATM   37  C   UNL     1       6.352  25.633  56.675  1.00  0.00     0.031 A 
ENDBRANCH  28  31
ENDBRANCH   9  27
TORSDOF 8
ENDMDL
MODEL 10
REMARK VINA RESULT:      -8.9      3.242      5.851
REMARK  8 active torsions:
REMARK  status: ('A' for Active; 'I' for Inactive)
REMARK    1  A    between atoms: C_2  and  O_3 
REMARK    2  A    between atoms: O_3  and  C_4 
REMARK    3  A    between atoms: C_4  and  C_5 
REMARK    4  A    between atoms: N_7  and  C_9 
REMARK    5  A    between atoms: C_9  and  C_10 
REMARK       I    between atoms: C_10  and  N_11 
REMARK    6  A    between atoms: N_11  and  C_12 
REMARK    7  A    between atoms: C_20  and  C_21 
REMARK       I    between atoms: C_21  and  N_22 
REMARK    8  A    between atoms: N_22  and  C_23 
ROOT
HETATM    1  C   UNL     1       6.898  24.856  55.489  1.00  0.00     0.093 C 
HETATM    2  S   UNL     1       8.118  24.025  56.322  1.00  0.00    -0.075 SA
HETATM    3  C   UNL     1       8.273  22.886  55.086  1.00  0.00    -0.008 C 
HETATM    4  C   UNL     1       7.423  23.125  54.017  1.00  0.00    -0.026 C 
HETATM    5  C   UNL     1       7.385  22.150  52.867  1.00  0.00     0.041 C 
HETATM    6  C   UNL     1       8.021  20.796  53.214  1.00  0.00     0.005 C 
HETATM    7  C   UNL     1       9.374  20.980  53.907  1.00  0.00     0.005 C 
HETATM    8  C   UNL     1       9.213  21.725  55.235  1.00  0.00     0.047 C 
HETATM    9  C   UNL     1       6.669  24.364  54.202  1.00  0.00     0.073 C 
ENDROOT
BRANCH   1  10
HETATM   10  N   UNL     1       6.310  25.974  56.075  1.00  0.00    -0.319 N 
HETATM   11  C   UNL     1       6.543  27.269  55.676  1.00  0.00     0.248 C 
HETATM   12  O   UNL     1       7.385  27.673  54.869  1.00  0.00    -0.271 OA
HETATM   13  H   UNL     1       5.937  25.797  57.011  1.00  0.00     0.169 HD
BRANCH  11  14
HETATM   14  C   UNL     1       5.651  28.325  56.335  1.00  0.00     0.337 C 
BRANCH  14  15
HETATM   15  N   UNL     1       6.548  29.311  57.105  1.00  0.00    -0.062 N 
HETATM   16  C   UNL     1       5.748  30.410  57.781  1.00  0.00     0.249 C 
HETATM   17  C   UNL     1       6.700  31.495  58.281  1.00  0.00     0.111 C 
HETATM   18  C   UNL     1       7.768  30.898  59.201  1.00  0.00     0.018 C 
HETATM   19  C   UNL     1       8.497  29.728  58.539  1.00  0.00     0.029 C 
HETATM   20  C   UNL     1       7.537  28.663  58.021  1.00  0.00     0.235 C 
HETATM   21  H   UNL     1       7.065  29.781  56.336  1.00  0.00     0.280 HD
BRANCH  17  22
HETATM   22  C   UNL     1       5.880  32.546  58.997  1.00  0.00     0.264 C 
HETATM   23  O   UNL     1       5.709  32.560  60.207  1.00  0.00    -0.265 OA
BRANCH  22  24
HETATM   24  O   UNL     1       5.359  33.427  58.106  1.00  0.00    -0.322 OA
BRANCH  24  25
HETATM   25  C   UNL     1       3.992  33.816  58.319  1.00  0.00     0.174 C 
HETATM   26  C   UNL     1       3.371  34.260  57.008  1.00  0.00     0.034 C 
ENDBRANCH  24  25
ENDBRANCH  22  24
ENDBRANCH  17  22
ENDBRANCH  14  15
ENDBRANCH  11  14
ENDBRANCH   1  10
BRANCH   9  27
HETATM   27  C   UNL     1       5.718  25.065  53.304  1.00  0.00     0.259 C 
HETATM   28  N   UNL     1       6.282  25.936  52.394  1.00  0.00    -0.323 N 
HETATM   29  H   UNL     1       7.276  26.074  52.451  1.00  0.00     0.169 HD
HETATM   30  O   UNL     1       4.508  24.869  53.431  1.00  0.00    -0.267 OA
BRANCH  28  31
HETATM   31  C   UNL     1       5.644  26.700  51.395  1.00  0.00     0.035 A 
HETATM   32  C   UNL     1       5.059  26.169  50.245  1.00  0.00     0.031 A 
HETATM   33  C   UNL     1       4.446  27.012  49.308  1.00  0.00     0.026 A 
HETATM   34  C   UNL     1       4.424  28.389  49.514  1.00  0.00     0.034 A 
HETATM   35 CL   UNL     1       3.676  29.419  48.359  1.00  0.00    -0.084 Cl
HETATM   36  C   UNL     1       5.009  28.934  50.652  1.00  0.00     0.026 A 
HETATM   37  C   UNL     1       5.612  28.091  51.591  1.00  0.00     0.031 A 
ENDBRANCH  28  31
ENDBRANCH   9  27
TORSDOF 8
ENDMDL
