MODEL 1
REMARK VINA RESULT:     -10.9      0.000      0.000
REMARK  6 active torsions:
REMARK  status: ('A' for Active; 'I' for Inactive)
REMARK    1  A    between atoms: C_2  and  O_3 
REMARK    2  A    between atoms: O_3  and  C_4 
REMARK    3  A    between atoms: C_5  and  O_6 
REMARK    4  A    between atoms: O_6  and  C_7 
REMARK    5  A    between atoms: C_7  and  C_8 
REMARK    6  A    between atoms: C_18  and  C_19 
ROOT
HETATM    1  C   UNL     1       5.963  29.013  56.492  1.00  0.00     0.103 A 
HETATM    2  C   UNL     1       7.001  28.089  56.297  1.00  0.00     0.112 A 
HETATM    3  C   UNL     1       8.174  28.148  57.049  1.00  0.00     0.041 A 
HETATM    4  C   UNL     1       8.320  29.141  58.014  1.00  0.00     0.014 A 
HETATM    5  C   UNL     1       7.292  30.070  58.249  1.00  0.00    -0.013 A 
HETATM    6  C   UNL     1       6.119  30.002  57.468  1.00  0.00     0.050 A 
ENDROOT
BRANCH   5   7
HETATM    7  C   UNL     1       7.424  31.040  59.399  1.00  0.00     0.219 C 
HETATM    8  N   UNL     1       7.936  30.373  60.567  1.00  0.00    -0.332 N 
HETATM    9  C   UNL     1       7.965  30.996  61.787  1.00  0.00     0.256 C 
HETATM   10  H   UNL     1       8.643  29.664  60.438  1.00  0.00     0.165 HD
HETATM   11  O   UNL     1       8.710  30.634  62.690  1.00  0.00    -0.267 OA
HETATM   12  C   UNL     1       7.034  32.106  61.928  1.00  0.00     0.073 A 
HETATM   13  C   UNL     1       6.158  32.373  60.898  1.00  0.00     0.088 A 
HETATM   14  C   UNL     1       6.868  33.010  63.021  1.00  0.00    -0.023 A 
HETATM   15  S   UNL     1       5.122  33.673  61.248  1.00  0.00    -0.074 SA
HETATM   16  N   UNL     1       6.158  31.667  59.741  1.00  0.00    -0.358 N 
HETATM   17  C   UNL     1       5.853  33.916  62.768  1.00  0.00     0.018 A 
HETATM   18  C   UNL     1       5.440  35.015  63.686  1.00  0.00     0.281 C 
HETATM   19  N   UNL     1       6.004  34.814  65.090  1.00  0.00    -0.070 N 
HETATM   20  C   UNL     1       7.462  34.361  65.054  1.00  0.00     0.239 C 
HETATM   21  H   UNL     1       5.999  35.741  65.532  1.00  0.00     0.279 HD
HETATM   22  C   UNL     1       5.132  33.940  65.945  1.00  0.00     0.270 C 
HETATM   23  C   UNL     1       7.639  33.027  64.307  1.00  0.00     0.068 C 
HETATM   24  H   UNL     1       5.660  32.049  58.940  1.00  0.00     0.162 HD
ENDBRANCH   5   7
BRANCH   1  25
HETATM   25  O   UNL     1       4.852  28.835  55.711  1.00  0.00    -0.349 OA
BRANCH  25  26
HETATM   26  C   UNL     1       4.592  29.799  54.695  1.00  0.00     0.171 C 
HETATM   27  C   UNL     1       4.500  29.063  53.369  1.00  0.00     0.034 C 
ENDBRANCH  25  26
ENDBRANCH   1  25
BRANCH   2  28
HETATM   28  O   UNL     1       6.742  27.012  55.415  1.00  0.00    -0.272 OA
BRANCH  28  29
HETATM   29  C   UNL     1       7.409  26.860  54.212  1.00  0.00     0.298 C 
HETATM   30  O   UNL     1       7.852  27.744  53.495  1.00  0.00    -0.259 OA
BRANCH  29  31
HETATM   31  C   UNL     1       7.600  25.407  53.951  1.00  0.00     0.040 A 
HETATM   32  C   UNL     1       7.550  24.527  55.041  1.00  0.00     0.019 A 
HETATM   33  C   UNL     1       7.672  23.149  54.839  1.00  0.00     0.020 A 
HETATM   34  C   UNL     1       7.852  22.653  53.549  1.00  0.00     0.011 A 
HETATM   35 BR   UNL     1       8.000  20.789  53.273  1.00  0.00    -0.051 Br
HETATM   36  C   UNL     1       7.916  23.519  52.458  1.00  0.00     0.020 A 
HETATM   37  C   UNL     1       7.792  24.897  52.658  1.00  0.00     0.019 A 
ENDBRANCH  29  31
ENDBRANCH  28  29
ENDBRANCH   2  28
TORSDOF 6
ENDMDL
MODEL 2
REMARK VINA RESULT:     -10.9      0.972      2.102
REMARK  6 active torsions:
REMARK  status: ('A' for Active; 'I' for Inactive)
REMARK    1  A    between atoms: C_2  and  O_3 
REMARK    2  A    between atoms: O_3  and  C_4 
REMARK    3  A    between atoms: C_5  and  O_6 
REMARK    4  A    between atoms: O_6  and  C_7 
REMARK    5  A    between atoms: C_7  and  C_8 
REMARK    6  A    between atoms: C_18  and  C_19 
ROOT
HETATM    1  C   UNL     1       7.959  28.015  57.036  1.00  0.00     0.103 A 
HETATM    2  C   UNL     1       7.268  28.453  55.896  1.00  0.00     0.112 A 
HETATM    3  C   UNL     1       6.602  29.677  55.879  1.00  0.00     0.041 A 
HETATM    4  C   UNL     1       6.623  30.485  57.012  1.00  0.00     0.014 A 
HETATM    5  C   UNL     1       7.322  30.087  58.164  1.00  0.00    -0.013 A 
HETATM    6  C   UNL     1       7.978  28.838  58.167  1.00  0.00     0.050 A 
ENDROOT
BRANCH   5   7
HETATM    7  C   UNL     1       7.445  31.049  59.322  1.00  0.00     0.219 C 
HETATM    8  N   UNL     1       7.958  30.376  60.486  1.00  0.00    -0.332 N 
HETATM    9  C   UNL     1       7.981  30.990  61.710  1.00  0.00     0.256 C 
HETATM   10  H   UNL     1       8.670  29.672  60.353  1.00  0.00     0.165 HD
HETATM   11  O   UNL     1       8.726  30.626  62.612  1.00  0.00    -0.267 OA
HETATM   12  C   UNL     1       7.043  32.093  61.858  1.00  0.00     0.073 A 
HETATM   13  C   UNL     1       6.168  32.362  60.828  1.00  0.00     0.088 A 
HETATM   14  C   UNL     1       6.869  32.988  62.957  1.00  0.00    -0.023 A 
HETATM   15  S   UNL     1       5.122  33.654  61.186  1.00  0.00    -0.074 SA
HETATM   16  N   UNL     1       6.174  31.665  59.666  1.00  0.00    -0.358 N 
HETATM   17  C   UNL     1       5.849  33.889  62.709  1.00  0.00     0.018 A 
HETATM   18  C   UNL     1       5.426  34.979  63.635  1.00  0.00     0.281 C 
HETATM   19  N   UNL     1       5.989  34.771  65.038  1.00  0.00    -0.070 N 
HETATM   20  C   UNL     1       7.450  34.327  65.002  1.00  0.00     0.239 C 
HETATM   21  H   UNL     1       5.977  35.695  65.487  1.00  0.00     0.279 HD
HETATM   22  C   UNL     1       5.120  33.885  65.884  1.00  0.00     0.270 C 
HETATM   23  C   UNL     1       7.637  33.000  64.245  1.00  0.00     0.068 C 
HETATM   24  H   UNL     1       5.675  32.050  58.866  1.00  0.00     0.162 HD
ENDBRANCH   5   7
BRANCH   1  25
HETATM   25  O   UNL     1       8.595  26.808  56.922  1.00  0.00    -0.349 OA
BRANCH  25  26
HETATM   26  C   UNL     1       8.106  25.721  57.703  1.00  0.00     0.171 C 
HETATM   27  C   UNL     1       8.993  24.518  57.432  1.00  0.00     0.034 C 
ENDBRANCH  25  26
ENDBRANCH   1  25
BRANCH   2  28
HETATM   28  O   UNL     1       7.405  27.668  54.725  1.00  0.00    -0.272 OA
BRANCH  28  29
HETATM   29  C   UNL     1       6.366  26.911  54.212  1.00  0.00     0.298 C 
HETATM   30  O   UNL     1       5.236  27.290  53.947  1.00  0.00    -0.259 OA
BRANCH  29  31
HETATM   31  C   UNL     1       6.867  25.538  53.931  1.00  0.00     0.040 A 
HETATM   32  C   UNL     1       6.586  24.527  54.860  1.00  0.00     0.019 A 
HETATM   33  C   UNL     1       6.991  23.212  54.615  1.00  0.00     0.020 A 
HETATM   34  C   UNL     1       7.684  22.910  53.444  1.00  0.00     0.011 A 
HETATM   35 BR   UNL     1       8.218  21.129  53.103  1.00  0.00    -0.051 Br
HETATM   36  C   UNL     1       7.982  23.909  52.518  1.00  0.00     0.020 A 
HETATM   37  C   UNL     1       7.576  25.225  52.761  1.00  0.00     0.019 A 
ENDBRANCH  29  31
ENDBRANCH  28  29
ENDBRANCH   2  28
TORSDOF 6
ENDMDL
MODEL 3
REMARK VINA RESULT:     -10.2      1.208      1.568
REMARK  6 active torsions:
REMARK  status: ('A' for Active; 'I' for Inactive)
REMARK    1  A    between atoms: C_2  and  O_3 
REMARK    2  A    between atoms: O_3  and  C_4 
REMARK    3  A    between atoms: C_5  and  O_6 
REMARK    4  A    between atoms: O_6  and  C_7 
REMARK    5  A    between atoms: C_7  and  C_8 
REMARK    6  A    between atoms: C_18  and  C_19 
ROOT
HETATM    1  C   UNL     1       6.204  28.454  56.447  1.00  0.00     0.103 A 
HETATM    2  C   UNL     1       7.400  27.721  56.464  1.00  0.00     0.112 A 
HETATM    3  C   UNL     1       8.483  28.122  57.246  1.00  0.00     0.041 A 
HETATM    4  C   UNL     1       8.377  29.270  58.027  1.00  0.00     0.014 A 
HETATM    5  C   UNL     1       7.187  30.016  58.048  1.00  0.00    -0.013 A 
HETATM    6  C   UNL     1       6.107  29.602  57.240  1.00  0.00     0.050 A 
ENDROOT
BRANCH   5   7
HETATM    7  C   UNL     1       7.056  31.169  59.015  1.00  0.00     0.219 C 
HETATM    8  N   UNL     1       7.558  30.800  60.313  1.00  0.00    -0.332 N 
HETATM    9  C   UNL     1       7.376  31.610  61.402  1.00  0.00     0.256 C 
HETATM   10  H   UNL     1       8.378  30.212  60.356  1.00  0.00     0.165 HD
HETATM   11  O   UNL     1       8.083  31.535  62.400  1.00  0.00    -0.267 OA
HETATM   12  C   UNL     1       6.272  32.551  61.286  1.00  0.00     0.073 A 
HETATM   13  C   UNL     1       5.463  32.491  60.172  1.00  0.00     0.088 A 
HETATM   14  C   UNL     1       5.864  33.580  62.189  1.00  0.00    -0.023 A 
HETATM   15  S   UNL     1       4.205  33.633  60.220  1.00  0.00    -0.074 SA
HETATM   16  N   UNL     1       5.681  31.616  59.160  1.00  0.00    -0.358 N 
HETATM   17  C   UNL     1       4.746  34.244  61.716  1.00  0.00     0.018 A 
HETATM   18  C   UNL     1       4.081  35.391  62.397  1.00  0.00     0.281 C 
HETATM   19  N   UNL     1       4.539  35.523  63.848  1.00  0.00    -0.070 N 
HETATM   20  C   UNL     1       6.048  35.328  63.984  1.00  0.00     0.239 C 
HETATM   21  H   UNL     1       4.346  36.495  64.117  1.00  0.00     0.279 HD
HETATM   22  C   UNL     1       3.742  34.663  64.786  1.00  0.00     0.270 C 
HETATM   23  C   UNL     1       6.502  33.940  63.498  1.00  0.00     0.068 C 
HETATM   24  H   UNL     1       5.204  31.770  58.274  1.00  0.00     0.162 HD
ENDBRANCH   5   7
BRANCH   1  25
HETATM   25  O   UNL     1       5.205  27.946  55.660  1.00  0.00    -0.349 OA
BRANCH  25  26
HETATM   26  C   UNL     1       5.003  28.535  54.378  1.00  0.00     0.171 C 
HETATM   27  C   UNL     1       4.799  27.410  53.378  1.00  0.00     0.034 C 
ENDBRANCH  25  26
ENDBRANCH   1  25
BRANCH   2  28
HETATM   28  O   UNL     1       7.404  26.485  55.774  1.00  0.00    -0.272 OA
BRANCH  28  29
HETATM   29  C   UNL     1       6.990  25.303  56.363  1.00  0.00     0.298 C 
HETATM   30  O   UNL     1       6.356  25.176  57.399  1.00  0.00    -0.259 OA
BRANCH  29  31
HETATM   31  C   UNL     1       7.360  24.169  55.474  1.00  0.00     0.040 A 
HETATM   32  C   UNL     1       7.779  22.971  56.068  1.00  0.00     0.019 A 
HETATM   33  C   UNL     1       8.088  21.862  55.276  1.00  0.00     0.020 A 
HETATM   34  C   UNL     1       7.985  21.954  53.889  1.00  0.00     0.011 A 
HETATM   35 BR   UNL     1       8.386  20.449  52.817  1.00  0.00    -0.051 Br
HETATM   36  C   UNL     1       7.583  23.144  53.285  1.00  0.00     0.020 A 
HETATM   37  C   UNL     1       7.272  24.254  54.076  1.00  0.00     0.019 A 
ENDBRANCH  29  31
ENDBRANCH  28  29
ENDBRANCH   2  28
TORSDOF 6
ENDMDL
MODEL 4
REMARK VINA RESULT:      -9.6      2.724      3.731
REMARK  6 active torsions:
REMARK  status: ('A' for Active; 'I' for Inactive)
REMARK    1  A    between atoms: C_2  and  O_3 
REMARK    2  A    between atoms: O_3  and  C_4 
REMARK    3  A    between atoms: C_5  and  O_6 
REMARK    4  A    between atoms: O_6  and  C_7 
REMARK    5  A    between atoms: C_7  and  C_8 
REMARK    6  A    between atoms: C_18  and  C_19 
ROOT
HETATM    1  C   UNL     1       7.566  28.815  57.197  1.00  0.00     0.103 A 
HETATM    2  C   UNL     1       6.791  27.825  56.575  1.00  0.00     0.112 A 
HETATM    3  C   UNL     1       5.402  27.926  56.511  1.00  0.00     0.041 A 
HETATM    4  C   UNL     1       4.769  29.031  57.073  1.00  0.00     0.014 A 
HETATM    5  C   UNL     1       5.515  30.051  57.686  1.00  0.00    -0.013 A 
HETATM    6  C   UNL     1       6.919  29.924  57.753  1.00  0.00     0.050 A 
ENDROOT
BRANCH   5   7
HETATM    7  C   UNL     1       4.809  31.301  58.155  1.00  0.00     0.219 C 
HETATM    8  N   UNL     1       5.327  32.459  57.474  1.00  0.00    -0.332 N 
HETATM    9  C   UNL     1       4.981  33.726  57.861  1.00  0.00     0.256 C 
HETATM   10  H   UNL     1       5.570  32.367  56.498  1.00  0.00     0.165 HD
HETATM   11  O   UNL     1       5.079  34.691  57.112  1.00  0.00    -0.267 OA
HETATM   12  C   UNL     1       4.504  33.837  59.232  1.00  0.00     0.073 A 
HETATM   13  C   UNL     1       4.530  32.718  60.036  1.00  0.00     0.088 A 
HETATM   14  C   UNL     1       3.991  34.979  59.919  1.00  0.00    -0.023 A 
HETATM   15  S   UNL     1       3.976  33.037  61.611  1.00  0.00    -0.074 SA
HETATM   16  N   UNL     1       4.944  31.508  59.587  1.00  0.00    -0.358 N 
HETATM   17  C   UNL     1       3.665  34.668  61.227  1.00  0.00     0.018 A 
HETATM   18  C   UNL     1       3.075  35.620  62.211  1.00  0.00     0.281 C 
HETATM   19  N   UNL     1       3.206  37.066  61.739  1.00  0.00    -0.070 N 
HETATM   20  C   UNL     1       2.880  37.207  60.253  1.00  0.00     0.239 C 
HETATM   21  H   UNL     1       2.486  37.595  62.245  1.00  0.00     0.279 HD
HETATM   22  C   UNL     1       4.522  37.682  62.119  1.00  0.00     0.270 C 
HETATM   23  C   UNL     1       3.814  36.363  59.369  1.00  0.00     0.068 C 
HETATM   24  H   UNL     1       4.726  30.684  60.142  1.00  0.00     0.162 HD
ENDBRANCH   5   7
BRANCH   1  25
HETATM   25  O   UNL     1       8.920  28.617  57.174  1.00  0.00    -0.349 OA
BRANCH  25  26
HETATM   26  C   UNL     1       9.706  29.485  56.362  1.00  0.00     0.171 C 
HETATM   27  C   UNL     1      10.953  29.853  57.148  1.00  0.00     0.034 C 
ENDBRANCH  25  26
ENDBRANCH   1  25
BRANCH   2  28
HETATM   28  O   UNL     1       7.491  26.803  55.889  1.00  0.00    -0.272 OA
BRANCH  28  29
HETATM   29  C   UNL     1       7.448  26.666  54.513  1.00  0.00     0.298 C 
HETATM   30  O   UNL     1       7.366  27.559  53.684  1.00  0.00    -0.259 OA
BRANCH  29  31
HETATM   31  C   UNL     1       7.617  25.228  54.169  1.00  0.00     0.040 A 
HETATM   32  C   UNL     1       7.505  24.283  55.199  1.00  0.00     0.019 A 
HETATM   33  C   UNL     1       7.605  22.918  54.916  1.00  0.00     0.020 A 
HETATM   34  C   UNL     1       7.824  22.498  53.605  1.00  0.00     0.011 A 
HETATM   35 BR   UNL     1       7.943  20.652  53.219  1.00  0.00    -0.051 Br
HETATM   36  C   UNL     1       7.951  23.428  52.575  1.00  0.00     0.020 A 
HETATM   37  C   UNL     1       7.849  24.794  52.855  1.00  0.00     0.019 A 
ENDBRANCH  29  31
ENDBRANCH  28  29
ENDBRANCH   2  28
TORSDOF 6
ENDMDL
MODEL 5
REMARK VINA RESULT:      -9.5      4.695     10.548
REMARK  6 active torsions:
REMARK  status: ('A' for Active; 'I' for Inactive)
REMARK    1  A    between atoms: C_2  and  O_3 
REMARK    2  A    between atoms: O_3  and  C_4 
REMARK    3  A    between atoms: C_5  and  O_6 
REMARK    4  A    between atoms: O_6  and  C_7 
REMARK    5  A    between atoms: C_7  and  C_8 
REMARK    6  A    between atoms: C_18  and  C_19 
ROOT
HETATM    1  C   UNL     1       6.869  31.411  58.295  1.00  0.00     0.103 A 
HETATM    2  C   UNL     1       5.638  32.030  58.030  1.00  0.00     0.112 A 
HETATM    3  C   UNL     1       4.602  31.341  57.401  1.00  0.00     0.041 A 
HETATM    4  C   UNL     1       4.788  30.012  57.031  1.00  0.00     0.014 A 
HETATM    5  C   UNL     1       6.001  29.356  57.299  1.00  0.00    -0.013 A 
HETATM    6  C   UNL     1       7.043  30.074  57.923  1.00  0.00     0.050 A 
ENDROOT
BRANCH   5   7
HETATM    7  C   UNL     1       6.117  27.876  57.015  1.00  0.00     0.219 C 
HETATM    8  N   UNL     1       7.214  27.305  57.753  1.00  0.00    -0.332 N 
HETATM    9  C   UNL     1       7.637  26.024  57.519  1.00  0.00     0.256 C 
HETATM   10  H   UNL     1       7.382  27.642  58.691  1.00  0.00     0.165 HD
HETATM   11  O   UNL     1       8.280  25.386  58.345  1.00  0.00    -0.267 OA
HETATM   12  C   UNL     1       7.280  25.492  56.214  1.00  0.00     0.073 A 
HETATM   13  C   UNL     1       6.651  26.319  55.309  1.00  0.00     0.088 A 
HETATM   14  C   UNL     1       7.488  24.181  55.686  1.00  0.00    -0.023 A 
HETATM   15  S   UNL     1       6.343  25.545  53.827  1.00  0.00    -0.074 SA
HETATM   16  N   UNL     1       6.316  27.599  55.603  1.00  0.00    -0.358 N 
HETATM   17  C   UNL     1       7.018  24.085  54.388  1.00  0.00     0.018 A 
HETATM   18  C   UNL     1       7.050  22.849  53.556  1.00  0.00     0.281 C 
HETATM   19  N   UNL     1       7.986  21.799  54.149  1.00  0.00    -0.070 N 
HETATM   20  C   UNL     1       7.828  21.691  55.664  1.00  0.00     0.239 C 
HETATM   21  H   UNL     1       7.682  20.898  53.760  1.00  0.00     0.279 HD
HETATM   22  C   UNL     1       9.412  21.982  53.712  1.00  0.00     0.270 C 
HETATM   23  C   UNL     1       8.138  23.020  56.377  1.00  0.00     0.068 C 
HETATM   24  H   UNL     1       5.658  28.081  54.994  1.00  0.00     0.162 HD
ENDBRANCH   5   7
BRANCH   1  25
HETATM   25  O   UNL     1       7.798  32.183  58.940  1.00  0.00    -0.349 OA
BRANCH  25  26
HETATM   26  C   UNL     1       8.991  31.548  59.393  1.00  0.00     0.171 C 
HETATM   27  C   UNL     1       9.354  32.149  60.740  1.00  0.00     0.034 C 
ENDBRANCH  25  26
ENDBRANCH   1  25
BRANCH   2  28
HETATM   28  O   UNL     1       5.448  33.329  58.561  1.00  0.00    -0.272 OA
BRANCH  28  29
HETATM   29  C   UNL     1       4.454  33.618  59.480  1.00  0.00     0.298 C 
HETATM   30  O   UNL     1       3.259  33.741  59.262  1.00  0.00    -0.259 OA
BRANCH  29  31
HETATM   31  C   UNL     1       5.058  33.668  60.839  1.00  0.00     0.040 A 
HETATM   32  C   UNL     1       5.421  32.458  61.447  1.00  0.00     0.019 A 
HETATM   33  C   UNL     1       6.038  32.457  62.700  1.00  0.00     0.020 A 
HETATM   34  C   UNL     1       6.286  33.665  63.350  1.00  0.00     0.011 A 
HETATM   35 BR   UNL     1       7.136  33.666  65.038  1.00  0.00    -0.051 Br
HETATM   36  C   UNL     1       5.917  34.874  62.762  1.00  0.00     0.020 A 
HETATM   37  C   UNL     1       5.302  34.878  61.507  1.00  0.00     0.019 A 
ENDBRANCH  29  31
ENDBRANCH  28  29
ENDBRANCH   2  28
TORSDOF 6
ENDMDL
MODEL 6
REMARK VINA RESULT:      -9.5      4.583     10.622
REMARK  6 active torsions:
REMARK  status: ('A' for Active; 'I' for Inactive)
REMARK    1  A    between atoms: C_2  and  O_3 
REMARK    2  A    between atoms: O_3  and  C_4 
REMARK    3  A    between atoms: C_5  and  O_6 
REMARK    4  A    between atoms: O_6  and  C_7 
REMARK    5  A    between atoms: C_7  and  C_8 
REMARK    6  A    between atoms: C_18  and  C_19 
ROOT
HETATM    1  C   UNL     1       6.835  31.396  58.292  1.00  0.00     0.103 A 
HETATM    2  C   UNL     1       5.507  31.758  58.016  1.00  0.00     0.112 A 
HETATM    3  C   UNL     1       4.739  31.046  57.097  1.00  0.00     0.041 A 
HETATM    4  C   UNL     1       5.296  29.952  56.440  1.00  0.00     0.014 A 
HETATM    5  C   UNL     1       6.615  29.550  56.707  1.00  0.00    -0.013 A 
HETATM    6  C   UNL     1       7.382  30.292  57.630  1.00  0.00     0.050 A 
ENDROOT
BRANCH   5   7
HETATM    7  C   UNL     1       7.138  28.276  56.086  1.00  0.00     0.219 C 
HETATM    8  N   UNL     1       6.171  27.726  55.172  1.00  0.00    -0.332 N 
HETATM    9  C   UNL     1       6.335  26.479  54.629  1.00  0.00     0.256 C 
HETATM   10  H   UNL     1       5.636  28.367  54.604  1.00  0.00     0.165 HD
HETATM   11  O   UNL     1       5.771  26.134  53.598  1.00  0.00    -0.267 OA
HETATM   12  C   UNL     1       7.214  25.596  55.382  1.00  0.00     0.073 A 
HETATM   13  C   UNL     1       7.718  26.032  56.588  1.00  0.00     0.088 A 
HETATM   14  C   UNL     1       7.661  24.279  55.059  1.00  0.00    -0.023 A 
HETATM   15  S   UNL     1       8.691  24.862  57.345  1.00  0.00    -0.074 SA
HETATM   16  N   UNL     1       7.460  27.267  57.082  1.00  0.00    -0.358 N 
HETATM   17  C   UNL     1       8.476  23.771  56.054  1.00  0.00     0.018 A 
HETATM   18  C   UNL     1       9.137  22.435  56.021  1.00  0.00     0.281 C 
HETATM   19  N   UNL     1       8.530  21.537  54.945  1.00  0.00    -0.070 N 
HETATM   20  C   UNL     1       8.287  22.299  53.644  1.00  0.00     0.239 C 
HETATM   21  H   UNL     1       9.241  20.826  54.737  1.00  0.00     0.279 HD
HETATM   22  C   UNL     1       7.322  20.790  55.431  1.00  0.00     0.270 C 
HETATM   23  C   UNL     1       7.322  23.482  53.834  1.00  0.00     0.068 C 
HETATM   24  H   UNL     1       8.035  27.615  57.846  1.00  0.00     0.162 HD
ENDBRANCH   5   7
BRANCH   1  25
HETATM   25  O   UNL     1       7.478  32.156  59.232  1.00  0.00    -0.349 OA
BRANCH  25  26
HETATM   26  C   UNL     1       8.775  31.741  59.650  1.00  0.00     0.171 C 
HETATM   27  C   UNL     1       8.907  32.051  61.131  1.00  0.00     0.034 C 
ENDBRANCH  25  26
ENDBRANCH   1  25
BRANCH   2  28
HETATM   28  O   UNL     1       4.943  32.779  58.819  1.00  0.00    -0.272 OA
BRANCH  28  29
HETATM   29  C   UNL     1       4.084  32.509  59.870  1.00  0.00     0.298 C 
HETATM   30  O   UNL     1       2.975  32.002  59.807  1.00  0.00    -0.259 OA
BRANCH  29  31
HETATM   31  C   UNL     1       4.769  32.849  61.147  1.00  0.00     0.040 A 
HETATM   32  C   UNL     1       4.828  31.869  62.148  1.00  0.00     0.019 A 
HETATM   33  C   UNL     1       5.505  32.124  63.344  1.00  0.00     0.020 A 
HETATM   34  C   UNL     1       6.115  33.362  63.543  1.00  0.00     0.011 A 
HETATM   35 BR   UNL     1       7.044  33.702  65.153  1.00  0.00    -0.051 Br
HETATM   36  C   UNL     1       6.050  34.350  62.561  1.00  0.00     0.020 A 
HETATM   37  C   UNL     1       5.376  34.095  61.363  1.00  0.00     0.019 A 
ENDBRANCH  29  31
ENDBRANCH  28  29
ENDBRANCH   2  28
TORSDOF 6
ENDMDL
MODEL 7
REMARK VINA RESULT:      -9.5      4.708     10.732
REMARK  6 active torsions:
REMARK  status: ('A' for Active; 'I' for Inactive)
REMARK    1  A    between atoms: C_2  and  O_3 
REMARK    2  A    between atoms: O_3  and  C_4 
REMARK    3  A    between atoms: C_5  and  O_6 
REMARK    4  A    between atoms: O_6  and  C_7 
REMARK    5  A    between atoms: C_7  and  C_8 
REMARK    6  A    between atoms: C_18  and  C_19 
ROOT
HETATM    1  C   UNL     1       6.571  31.536  58.639  1.00  0.00     0.103 A 
HETATM    2  C   UNL     1       7.679  30.973  59.291  1.00  0.00     0.112 A 
HETATM    3  C   UNL     1       8.201  29.741  58.897  1.00  0.00     0.041 A 
HETATM    4  C   UNL     1       7.616  29.057  57.835  1.00  0.00     0.014 A 
HETATM    5  C   UNL     1       6.519  29.601  57.148  1.00  0.00    -0.013 A 
HETATM    6  C   UNL     1       5.995  30.842  57.570  1.00  0.00     0.050 A 
ENDROOT
BRANCH   5   7
HETATM    7  C   UNL     1       6.002  28.903  55.913  1.00  0.00     0.219 C 
HETATM    8  N   UNL     1       7.071  28.217  55.235  1.00  0.00    -0.332 N 
HETATM    9  C   UNL     1       6.890  27.669  53.993  1.00  0.00     0.256 C 
HETATM   10  H   UNL     1       7.777  27.764  55.798  1.00  0.00     0.165 HD
HETATM   11  O   UNL     1       7.614  26.781  53.556  1.00  0.00    -0.267 OA
HETATM   12  C   UNL     1       5.786  28.234  53.232  1.00  0.00     0.073 A 
HETATM   13  C   UNL     1       5.095  29.303  53.758  1.00  0.00     0.088 A 
HETATM   14  C   UNL     1       5.277  27.843  51.956  1.00  0.00    -0.023 A 
HETATM   15  S   UNL     1       3.868  29.858  52.721  1.00  0.00    -0.074 SA
HETATM   16  N   UNL     1       5.377  29.824  54.978  1.00  0.00    -0.358 N 
HETATM   17  C   UNL     1       4.226  28.654  51.568  1.00  0.00     0.018 A 
HETATM   18  C   UNL     1       3.447  28.502  50.306  1.00  0.00     0.281 C 
HETATM   19  N   UNL     1       4.162  27.588  49.314  1.00  0.00    -0.070 N 
HETATM   20  C   UNL     1       4.747  26.356  50.001  1.00  0.00     0.239 C 
HETATM   21  H   UNL     1       3.438  27.247  48.672  1.00  0.00     0.279 HD
HETATM   22  C   UNL     1       5.159  28.325  48.465  1.00  0.00     0.270 C 
HETATM   23  C   UNL     1       5.774  26.726  51.086  1.00  0.00     0.068 C 
HETATM   24  H   UNL     1       4.698  30.447  55.408  1.00  0.00     0.162 HD
ENDBRANCH   5   7
BRANCH   1  25
HETATM   25  O   UNL     1       6.167  32.761  59.100  1.00  0.00    -0.349 OA
BRANCH  25  26
HETATM   26  C   UNL     1       4.776  32.956  59.338  1.00  0.00     0.171 C 
HETATM   27  C   UNL     1       4.625  34.167  60.243  1.00  0.00     0.034 C 
ENDBRANCH  25  26
ENDBRANCH   1  25
BRANCH   2  28
HETATM   28  O   UNL     1       8.327  31.775  60.260  1.00  0.00    -0.272 OA
BRANCH  28  29
HETATM   29  C   UNL     1       8.638  31.309  61.525  1.00  0.00     0.298 C 
HETATM   30  O   UNL     1       9.585  30.606  61.842  1.00  0.00    -0.259 OA
BRANCH  29  31
HETATM   31  C   UNL     1       7.670  31.884  62.499  1.00  0.00     0.040 A 
HETATM   32  C   UNL     1       8.163  32.742  63.493  1.00  0.00     0.019 A 
HETATM   33  C   UNL     1       7.286  33.347  64.398  1.00  0.00     0.020 A 
HETATM   34  C   UNL     1       5.919  33.088  64.314  1.00  0.00     0.011 A 
HETATM   35 BR   UNL     1       4.731  33.919  65.527  1.00  0.00    -0.051 Br
HETATM   36  C   UNL     1       5.419  32.226  63.339  1.00  0.00     0.020 A 
HETATM   37  C   UNL     1       6.294  31.622  62.431  1.00  0.00     0.019 A 
ENDBRANCH  29  31
ENDBRANCH  28  29
ENDBRANCH   2  28
TORSDOF 6
ENDMDL
MODEL 8
REMARK VINA RESULT:      -9.1      2.465      3.364
REMARK  6 active torsions:
REMARK  status: ('A' for Active; 'I' for Inactive)
REMARK    1  A    between atoms: C_2  and  O_3 
REMARK    2  A    between atoms: O_3  and  C_4 
REMARK    3  A    between atoms: C_5  and  O_6 
REMARK    4  A    between atoms: O_6  and  C_7 
REMARK    5  A    between atoms: C_7  and  C_8 
REMARK    6  A    between atoms: C_18  and  C_19 
ROOT
HETATM    1  C   UNL     1       4.430  28.528  55.076  1.00  0.00     0.103 A 
HETATM    2  C   UNL     1       5.491  27.680  55.430  1.00  0.00     0.112 A 
HETATM    3  C   UNL     1       6.217  27.880  56.603  1.00  0.00     0.041 A 
HETATM    4  C   UNL     1       5.884  28.939  57.444  1.00  0.00     0.014 A 
HETATM    5  C   UNL     1       4.816  29.795  57.130  1.00  0.00    -0.013 A 
HETATM    6  C   UNL     1       4.102  29.586  55.931  1.00  0.00     0.050 A 
ENDROOT
BRANCH   5   7
HETATM    7  C   UNL     1       4.391  30.842  58.132  1.00  0.00     0.219 C 
HETATM    8  N   UNL     1       3.813  31.978  57.462  1.00  0.00    -0.332 N 
HETATM    9  C   UNL     1       3.526  33.133  58.140  1.00  0.00     0.256 C 
HETATM   10  H   UNL     1       3.234  31.808  56.652  1.00  0.00     0.165 HD
HETATM   11  O   UNL     1       2.716  33.953  57.724  1.00  0.00    -0.267 OA
HETATM   12  C   UNL     1       4.268  33.315  59.378  1.00  0.00     0.073 A 
HETATM   13  C   UNL     1       5.238  32.395  59.713  1.00  0.00     0.088 A 
HETATM   14  C   UNL     1       4.153  34.350  60.356  1.00  0.00    -0.023 A 
HETATM   15  S   UNL     1       6.028  32.783  61.167  1.00  0.00    -0.074 SA
HETATM   16  N   UNL     1       5.499  31.303  58.953  1.00  0.00    -0.358 N 
HETATM   17  C   UNL     1       5.061  34.170  61.383  1.00  0.00     0.018 A 
HETATM   18  C   UNL     1       5.186  35.051  62.579  1.00  0.00     0.281 C 
HETATM   19  N   UNL     1       4.459  36.378  62.375  1.00  0.00    -0.070 N 
HETATM   20  C   UNL     1       3.096  36.180  61.715  1.00  0.00     0.239 C 
HETATM   21  H   UNL     1       4.276  36.746  63.316  1.00  0.00     0.279 HD
HETATM   22  C   UNL     1       5.311  37.403  61.684  1.00  0.00     0.270 C 
HETATM   23  C   UNL     1       3.210  35.517  60.331  1.00  0.00     0.068 C 
HETATM   24  H   UNL     1       6.050  30.550  59.358  1.00  0.00     0.162 HD
ENDBRANCH   5   7
BRANCH   1  25
HETATM   25  O   UNL     1       3.777  28.215  53.914  1.00  0.00    -0.349 OA
BRANCH  25  26
HETATM   26  C   UNL     1       4.016  29.035  52.774  1.00  0.00     0.171 C 
HETATM   27  C   UNL     1       4.382  28.124  51.615  1.00  0.00     0.034 C 
ENDBRANCH  25  26
ENDBRANCH   1  25
BRANCH   2  28
HETATM   28  O   UNL     1       5.689  26.534  54.623  1.00  0.00    -0.272 OA
BRANCH  28  29
HETATM   29  C   UNL     1       6.886  26.277  53.977  1.00  0.00     0.298 C 
HETATM   30  O   UNL     1       7.632  27.089  53.453  1.00  0.00    -0.259 OA
BRANCH  29  31
HETATM   31  C   UNL     1       7.194  24.826  54.099  1.00  0.00     0.040 A 
HETATM   32  C   UNL     1       7.580  24.132  52.943  1.00  0.00     0.019 A 
HETATM   33  C   UNL     1       7.930  22.781  53.017  1.00  0.00     0.020 A 
HETATM   34  C   UNL     1       7.885  22.122  54.244  1.00  0.00     0.011 A 
HETATM   35 BR   UNL     1       8.373  20.299  54.348  1.00  0.00    -0.051 Br
HETATM   36  C   UNL     1       7.489  22.797  55.398  1.00  0.00     0.020 A 
HETATM   37  C   UNL     1       7.142  24.150  55.327  1.00  0.00     0.019 A 
ENDBRANCH  29  31
ENDBRANCH  28  29
ENDBRANCH   2  28
TORSDOF 6
ENDMDL
MODEL 9
REMARK VINA RESULT:      -9.0      1.946      2.327
REMARK  6 active torsions:
REMARK  status: ('A' for Active; 'I' for Inactive)
REMARK    1  A    between atoms: C_2  and  O_3 
REMARK    2  A    between atoms: O_3  and  C_4 
REMARK    3  A    between atoms: C_5  and  O_6 
REMARK    4  A    between atoms: O_6  and  C_7 
REMARK    5  A    between atoms: C_7  and  C_8 
REMARK    6  A    between atoms: C_18  and  C_19 
ROOT
HETATM    1  C   UNL     1       6.652  29.571  55.972  1.00  0.00     0.103 A 
HETATM    2  C   UNL     1       7.460  28.424  56.001  1.00  0.00     0.112 A 
HETATM    3  C   UNL     1       8.352  28.194  57.046  1.00  0.00     0.041 A 
HETATM    4  C   UNL     1       8.444  29.116  58.085  1.00  0.00     0.014 A 
HETATM    5  C   UNL     1       7.636  30.264  58.099  1.00  0.00    -0.013 A 
HETATM    6  C   UNL     1       6.749  30.488  57.025  1.00  0.00     0.050 A 
ENDROOT
BRANCH   5   7
HETATM    7  C   UNL     1       7.657  31.167  59.310  1.00  0.00     0.219 C 
HETATM    8  N   UNL     1       8.057  30.432  60.481  1.00  0.00    -0.332 N 
HETATM    9  C   UNL     1       7.971  30.984  61.731  1.00  0.00     0.256 C 
HETATM   10  H   UNL     1       8.775  29.728  60.378  1.00  0.00     0.165 HD
HETATM   11  O   UNL     1       8.628  30.568  62.678  1.00  0.00    -0.267 OA
HETATM   12  C   UNL     1       7.029  32.087  61.847  1.00  0.00     0.073 A 
HETATM   13  C   UNL     1       6.254  32.416  60.757  1.00  0.00     0.088 A 
HETATM   14  C   UNL     1       6.759  32.929  62.970  1.00  0.00    -0.023 A 
HETATM   15  S   UNL     1       5.186  33.699  61.082  1.00  0.00    -0.074 SA
HETATM   16  N   UNL     1       6.363  31.778  59.566  1.00  0.00    -0.358 N 
HETATM   17  C   UNL     1       5.771  33.851  62.675  1.00  0.00     0.018 A 
HETATM   18  C   UNL     1       5.271  34.898  63.612  1.00  0.00     0.281 C 
HETATM   19  N   UNL     1       5.701  34.615  65.049  1.00  0.00    -0.070 N 
HETATM   20  C   UNL     1       7.157  34.159  65.124  1.00  0.00     0.239 C 
HETATM   21  H   UNL     1       5.653  35.515  65.540  1.00  0.00     0.279 HD
HETATM   22  C   UNL     1       4.754  33.696  65.766  1.00  0.00     0.270 C 
HETATM   23  C   UNL     1       7.406  32.869  64.322  1.00  0.00     0.068 C 
HETATM   24  H   UNL     1       5.942  32.206  58.745  1.00  0.00     0.162 HD
ENDBRANCH   5   7
BRANCH   1  25
HETATM   25  O   UNL     1       5.797  29.673  54.907  1.00  0.00    -0.349 OA
BRANCH  25  26
HETATM   26  C   UNL     1       4.402  29.766  55.180  1.00  0.00     0.171 C 
HETATM   27  C   UNL     1       3.713  30.252  53.916  1.00  0.00     0.034 C 
ENDBRANCH  25  26
ENDBRANCH   1  25
BRANCH   2  28
HETATM   28  O   UNL     1       7.220  27.448  55.004  1.00  0.00    -0.272 OA
BRANCH  28  29
HETATM   29  C   UNL     1       6.111  26.620  55.025  1.00  0.00     0.298 C 
HETATM   30  O   UNL     1       5.534  26.184  56.008  1.00  0.00    -0.259 OA
BRANCH  29  31
HETATM   31  C   UNL     1       5.647  26.405  53.628  1.00  0.00     0.040 A 
HETATM   32  C   UNL     1       5.879  27.420  52.689  1.00  0.00     0.019 A 
HETATM   33  C   UNL     1       5.508  27.243  51.353  1.00  0.00     0.020 A 
HETATM   34  C   UNL     1       4.897  26.054  50.958  1.00  0.00     0.011 A 
HETATM   35 BR   UNL     1       4.410  25.806  49.149  1.00  0.00    -0.051 Br
HETATM   36  C   UNL     1       4.648  25.042  51.884  1.00  0.00     0.020 A 
HETATM   37  C   UNL     1       5.021  25.217  53.221  1.00  0.00     0.019 A 
ENDBRANCH  29  31
ENDBRANCH  28  29
ENDBRANCH   2  28
TORSDOF 6
ENDMDL
MODEL 10
REMARK VINA RESULT:      -8.8      6.432     11.177
REMARK  6 active torsions:
REMARK  status: ('A' for Active; 'I' for Inactive)
REMARK    1  A    between atoms: C_2  and  O_3 
REMARK    2  A    between atoms: O_3  and  C_4 
REMARK    3  A    between atoms: C_5  and  O_6 
REMARK    4  A    between atoms: O_6  and  C_7 
REMARK    5  A    between atoms: C_7  and  C_8 
REMARK    6  A    between atoms: C_18  and  C_19 
ROOT
HETATM    1  C   UNL     1       6.878  24.131  53.382  1.00  0.00     0.103 A 
HETATM    2  C   UNL     1       7.672  25.095  54.021  1.00  0.00     0.112 A 
HETATM    3  C   UNL     1       7.578  26.445  53.687  1.00  0.00     0.041 A 
HETATM    4  C   UNL     1       6.679  26.848  52.703  1.00  0.00     0.014 A 
HETATM    5  C   UNL     1       5.855  25.911  52.058  1.00  0.00    -0.013 A 
HETATM    6  C   UNL     1       5.974  24.547  52.399  1.00  0.00     0.050 A 
ENDROOT
BRANCH   5   7
HETATM    7  C   UNL     1       4.792  26.399  51.102  1.00  0.00     0.219 C 
HETATM    8  N   UNL     1       5.289  26.398  49.750  1.00  0.00    -0.332 N 
HETATM    9  C   UNL     1       4.579  26.973  48.731  1.00  0.00     0.256 C 
HETATM   10  H   UNL     1       5.896  25.641  49.468  1.00  0.00     0.165 HD
HETATM   11  O   UNL     1       4.760  26.676  47.556  1.00  0.00    -0.267 OA
HETATM   12  C   UNL     1       3.608  27.972  49.152  1.00  0.00     0.073 A 
HETATM   13  C   UNL     1       3.548  28.321  50.484  1.00  0.00     0.088 A 
HETATM   14  C   UNL     1       2.657  28.694  48.367  1.00  0.00    -0.023 A 
HETATM   15  S   UNL     1       2.389  29.526  50.789  1.00  0.00    -0.074 SA
HETATM   16  N   UNL     1       4.332  27.739  51.424  1.00  0.00    -0.358 N 
HETATM   17  C   UNL     1       1.930  29.573  49.148  1.00  0.00     0.018 A 
HETATM   18  C   UNL     1       0.836  30.456  48.651  1.00  0.00     0.281 C 
HETATM   19  N   UNL     1       0.847  30.557  47.128  1.00  0.00    -0.070 N 
HETATM   20  C   UNL     1       1.086  29.198  46.472  1.00  0.00     0.239 C 
HETATM   21  H   UNL     1      -0.100  30.848  46.858  1.00  0.00     0.279 HD
HETATM   22  C   UNL     1       1.772  31.629  46.627  1.00  0.00     0.270 C 
HETATM   23  C   UNL     1       2.432  28.580  46.888  1.00  0.00     0.068 C 
HETATM   24  H   UNL     1       4.087  27.864  52.404  1.00  0.00     0.162 HD
ENDBRANCH   5   7
BRANCH   1  25
HETATM   25  O   UNL     1       7.042  22.841  53.814  1.00  0.00    -0.349 OA
BRANCH  25  26
HETATM   26  C   UNL     1       7.883  21.984  53.047  1.00  0.00     0.171 C 
HETATM   27  C   UNL     1       7.877  20.616  53.708  1.00  0.00     0.034 C 
ENDBRANCH  25  26
ENDBRANCH   1  25
BRANCH   2  28
HETATM   28  O   UNL     1       8.456  24.656  55.115  1.00  0.00    -0.272 OA
BRANCH  28  29
HETATM   29  C   UNL     1       7.964  24.599  56.407  1.00  0.00     0.298 C 
HETATM   30  O   UNL     1       7.977  23.639  57.162  1.00  0.00    -0.259 OA
BRANCH  29  31
HETATM   31  C   UNL     1       7.483  25.953  56.796  1.00  0.00     0.040 A 
HETATM   32  C   UNL     1       8.437  26.922  57.136  1.00  0.00     0.019 A 
HETATM   33  C   UNL     1       8.037  28.222  57.458  1.00  0.00     0.020 A 
HETATM   34  C   UNL     1       6.682  28.550  57.448  1.00  0.00     0.011 A 
HETATM   35 BR   UNL     1       6.140  30.312  57.867  1.00  0.00    -0.051 Br
HETATM   36  C   UNL     1       5.722  27.591  57.126  1.00  0.00     0.020 A 
HETATM   37  C   UNL     1       6.121  26.291  56.800  1.00  0.00     0.019 A 
ENDBRANCH  29  31
ENDBRANCH  28  29
ENDBRANCH   2  28
TORSDOF 6
ENDMDL
