MODEL 1
REMARK VINA RESULT:      -9.0      0.000      0.000
REMARK  2 active torsions:
REMARK  status: ('A' for Active; 'I' for Inactive)
REMARK    1  A    between atoms: C_12  and  C_13 
REMARK    2  A    between atoms: C_16  and  O_17 
ROOT
HETATM    1  C   UNL     1       7.777  28.425  57.884  1.00  0.00     0.002 A 
HETATM    2  C   UNL     1       8.005  27.114  57.465  1.00  0.00     0.026 A 
HETATM    3  C   UNL     1       7.076  26.457  56.652  1.00  0.00     0.036 A 
HETATM    4  C   UNL     1       5.914  27.136  56.219  1.00  0.00     0.053 A 
HETATM    5  N   UNL     1       4.988  26.547  55.315  1.00  0.00    -0.356 N 
HETATM    6  C   UNL     1       5.413  25.881  54.178  1.00  0.00     0.041 A 
HETATM    7  C   UNL     1       6.555  25.199  53.984  1.00  0.00     0.056 A 
HETATM    8  C   UNL     1       6.614  24.877  52.548  1.00  0.00     0.251 A 
HETATM    9  O   UNL     1       7.552  24.392  51.946  1.00  0.00    -0.268 OA
HETATM   10  N   UNL     1       5.426  25.273  51.990  1.00  0.00    -0.351 N 
HETATM   11  C   UNL     1       4.587  25.944  52.921  1.00  0.00     0.180 A 
HETATM   12  C   UNL     1       7.662  24.838  54.917  1.00  0.00     0.134 C 
HETATM   13  N   UNL     1       7.309  25.101  56.330  1.00  0.00    -0.278 NA
HETATM   14  C   UNL     1       5.690  28.447  56.667  1.00  0.00     0.031 A 
HETATM   15  C   UNL     1       6.616  29.087  57.494  1.00  0.00     0.002 A 
HETATM   16  H   UNL     1       4.174  27.137  55.164  1.00  0.00     0.166 HD
HETATM   17  H   UNL     1       5.273  25.198  50.993  1.00  0.00     0.163 HD
HETATM   18  H   UNL     1       6.427  24.623  56.512  1.00  0.00     0.128 HD
ENDROOT
BRANCH  12  19
HETATM   19  C   UNL     1       8.034  23.354  54.845  1.00  0.00    -0.035 A 
HETATM   20  C   UNL     1       7.317  22.410  55.602  1.00  0.00     0.012 A 
HETATM   21  C   UNL     1       7.647  21.053  55.554  1.00  0.00     0.037 A 
HETATM   22  C   UNL     1       8.694  20.630  54.741  1.00  0.00     0.065 A 
HETATM   23  C   UNL     1       9.416  21.540  53.982  1.00  0.00     0.037 A 
HETATM   24  C   UNL     1       9.090  22.897  54.033  1.00  0.00     0.012 A 
BRANCH  22  25
HETATM   25  O   UNL     1       9.049  19.316  54.665  1.00  0.00    -0.361 OA
HETATM   26  H   UNL     1       9.364  19.137  53.764  1.00  0.00     0.217 HD
ENDBRANCH  22  25
ENDBRANCH  12  19
TORSDOF 2
ENDMDL
MODEL 2
REMARK VINA RESULT:      -8.9      2.081      3.126
REMARK  2 active torsions:
REMARK  status: ('A' for Active; 'I' for Inactive)
REMARK    1  A    between atoms: C_12  and  C_13 
REMARK    2  A    between atoms: C_16  and  O_17 
ROOT
HETATM    1  C   UNL     1      10.005  30.105  57.710  1.00  0.00     0.002 A 
HETATM    2  C   UNL     1       9.721  28.927  57.021  1.00  0.00     0.026 A 
HETATM    3  C   UNL     1       8.421  28.409  57.005  1.00  0.00     0.036 A 
HETATM    4  C   UNL     1       7.378  29.103  57.661  1.00  0.00     0.053 A 
HETATM    5  N   UNL     1       6.026  28.672  57.595  1.00  0.00    -0.356 N 
HETATM    6  C   UNL     1       5.449  28.285  56.397  1.00  0.00     0.041 A 
HETATM    7  C   UNL     1       6.037  27.720  55.328  1.00  0.00     0.056 A 
HETATM    8  C   UNL     1       5.033  27.714  54.251  1.00  0.00     0.251 A 
HETATM    9  O   UNL     1       5.214  27.417  53.086  1.00  0.00    -0.268 OA
HETATM   10  N   UNL     1       3.852  28.156  54.787  1.00  0.00    -0.351 N 
HETATM   11  C   UNL     1       3.993  28.570  56.141  1.00  0.00     0.180 A 
HETATM   12  C   UNL     1       7.428  27.228  55.110  1.00  0.00     0.134 C 
HETATM   13  N   UNL     1       8.203  27.167  56.369  1.00  0.00    -0.278 NA
HETATM   14  C   UNL     1       7.686  30.276  58.369  1.00  0.00     0.031 A 
HETATM   15  C   UNL     1       8.991  30.774  58.392  1.00  0.00     0.002 A 
HETATM   16  H   UNL     1       5.415  29.237  58.180  1.00  0.00     0.166 HD
HETATM   17  H   UNL     1       3.035  28.287  54.205  1.00  0.00     0.163 HD
HETATM   18  H   UNL     1       7.656  26.615  57.031  1.00  0.00     0.128 HD
ENDROOT
BRANCH  12  19
HETATM   19  C   UNL     1       7.469  25.814  54.522  1.00  0.00    -0.035 A 
HETATM   20  C   UNL     1       7.088  24.712  55.308  1.00  0.00     0.012 A 
HETATM   21  C   UNL     1       7.125  23.415  54.789  1.00  0.00     0.037 A 
HETATM   22  C   UNL     1       7.537  23.213  53.476  1.00  0.00     0.065 A 
HETATM   23  C   UNL     1       7.915  24.283  52.677  1.00  0.00     0.037 A 
HETATM   24  C   UNL     1       7.884  25.579  53.196  1.00  0.00     0.012 A 
BRANCH  22  25
HETATM   25  O   UNL     1       7.589  21.963  52.932  1.00  0.00    -0.361 OA
HETATM   26  H   UNL     1       8.378  21.909  52.369  1.00  0.00     0.217 HD
ENDBRANCH  22  25
ENDBRANCH  12  19
TORSDOF 2
ENDMDL
MODEL 3
REMARK VINA RESULT:      -8.9      5.374      8.773
REMARK  2 active torsions:
REMARK  status: ('A' for Active; 'I' for Inactive)
REMARK    1  A    between atoms: C_12  and  C_13 
REMARK    2  A    between atoms: C_16  and  O_17 
ROOT
HETATM    1  C   UNL     1       4.745  28.469  55.771  1.00  0.00     0.002 A 
HETATM    2  C   UNL     1       5.177  29.083  56.946  1.00  0.00     0.026 A 
HETATM    3  C   UNL     1       6.494  28.924  57.388  1.00  0.00     0.036 A 
HETATM    4  C   UNL     1       7.409  28.166  56.620  1.00  0.00     0.053 A 
HETATM    5  N   UNL     1       8.780  28.053  56.974  1.00  0.00    -0.356 N 
HETATM    6  C   UNL     1       9.521  29.159  57.354  1.00  0.00     0.041 A 
HETATM    7  C   UNL     1       9.102  30.274  57.977  1.00  0.00     0.056 A 
HETATM    8  C   UNL     1      10.231  31.220  57.950  1.00  0.00     0.251 A 
HETATM    9  O   UNL     1      10.212  32.389  58.283  1.00  0.00    -0.268 OA
HETATM   10  N   UNL     1      11.310  30.557  57.428  1.00  0.00    -0.351 N 
HETATM   11  C   UNL     1      10.980  29.244  56.992  1.00  0.00     0.180 A 
HETATM   12  C   UNL     1       7.778  30.647  58.554  1.00  0.00     0.134 C 
HETATM   13  N   UNL     1       6.857  29.491  58.630  1.00  0.00    -0.278 NA
HETATM   14  C   UNL     1       6.952  27.537  55.451  1.00  0.00     0.031 A 
HETATM   15  C   UNL     1       5.629  27.688  55.029  1.00  0.00     0.002 A 
HETATM   16  H   UNL     1       9.282  27.415  56.362  1.00  0.00     0.166 HD
HETATM   17  H   UNL     1      12.184  31.038  57.264  1.00  0.00     0.163 HD
HETATM   18  H   UNL     1       7.347  28.751  59.134  1.00  0.00     0.128 HD
ENDROOT
BRANCH  12  19
HETATM   19  C   UNL     1       7.887  31.193  59.980  1.00  0.00    -0.035 A 
HETATM   20  C   UNL     1       7.202  32.367  60.341  1.00  0.00     0.012 A 
HETATM   21  C   UNL     1       7.296  32.881  61.637  1.00  0.00     0.037 A 
HETATM   22  C   UNL     1       8.072  32.221  62.583  1.00  0.00     0.065 A 
HETATM   23  C   UNL     1       8.757  31.059  62.255  1.00  0.00     0.037 A 
HETATM   24  C   UNL     1       8.667  30.546  60.959  1.00  0.00     0.012 A 
BRANCH  22  25
HETATM   25  O   UNL     1       8.191  32.690  63.858  1.00  0.00    -0.361 OA
HETATM   26  H   UNL     1       9.125  32.901  64.018  1.00  0.00     0.217 HD
ENDBRANCH  22  25
ENDBRANCH  12  19
TORSDOF 2
ENDMDL
MODEL 4
REMARK VINA RESULT:      -8.9      2.522      5.876
REMARK  2 active torsions:
REMARK  status: ('A' for Active; 'I' for Inactive)
REMARK    1  A    between atoms: C_12  and  C_13 
REMARK    2  A    between atoms: C_16  and  O_17 
ROOT
HETATM    1  C   UNL     1       8.042  20.978  55.224  1.00  0.00     0.002 A 
HETATM    2  C   UNL     1       8.125  22.303  55.652  1.00  0.00     0.026 A 
HETATM    3  C   UNL     1       8.047  23.353  54.732  1.00  0.00     0.036 A 
HETATM    4  C   UNL     1       7.845  23.074  53.360  1.00  0.00     0.053 A 
HETATM    5  N   UNL     1       7.663  24.105  52.399  1.00  0.00    -0.356 N 
HETATM    6  C   UNL     1       6.815  25.172  52.637  1.00  0.00     0.041 A 
HETATM    7  C   UNL     1       6.498  25.746  53.811  1.00  0.00     0.056 A 
HETATM    8  C   UNL     1       5.398  26.686  53.537  1.00  0.00     0.251 A 
HETATM    9  O   UNL     1       4.736  27.294  54.356  1.00  0.00    -0.268 OA
HETATM   10  N   UNL     1       5.213  26.717  52.180  1.00  0.00    -0.351 N 
HETATM   11  C   UNL     1       6.040  25.781  51.499  1.00  0.00     0.180 A 
HETATM   12  C   UNL     1       7.014  25.520  55.193  1.00  0.00     0.134 C 
HETATM   13  N   UNL     1       8.227  24.672  55.204  1.00  0.00    -0.278 NA
HETATM   14  C   UNL     1       7.786  21.735  52.944  1.00  0.00     0.031 A 
HETATM   15  C   UNL     1       7.883  20.694  53.870  1.00  0.00     0.002 A 
HETATM   16  H   UNL     1       7.605  23.739  51.452  1.00  0.00     0.166 HD
HETATM   17  H   UNL     1       4.462  27.258  51.772  1.00  0.00     0.163 HD
HETATM   18  H   UNL     1       8.897  25.101  54.565  1.00  0.00     0.128 HD
ENDROOT
BRANCH  12  19
HETATM   19  C   UNL     1       7.404  26.822  55.898  1.00  0.00    -0.035 A 
HETATM   20  C   UNL     1       8.008  27.863  55.171  1.00  0.00     0.012 A 
HETATM   21  C   UNL     1       8.376  29.056  55.801  1.00  0.00     0.037 A 
HETATM   22  C   UNL     1       8.135  29.217  57.161  1.00  0.00     0.065 A 
HETATM   23  C   UNL     1       7.537  28.206  57.901  1.00  0.00     0.037 A 
HETATM   24  C   UNL     1       7.174  27.012  57.274  1.00  0.00     0.012 A 
BRANCH  22  25
HETATM   25  O   UNL     1       8.479  30.364  57.813  1.00  0.00    -0.361 OA
HETATM   26  H   UNL     1       8.627  30.150  58.748  1.00  0.00     0.217 HD
ENDBRANCH  22  25
ENDBRANCH  12  19
TORSDOF 2
ENDMDL
MODEL 5
REMARK VINA RESULT:      -8.8      7.060      9.541
REMARK  2 active torsions:
REMARK  status: ('A' for Active; 'I' for Inactive)
REMARK    1  A    between atoms: C_12  and  C_13 
REMARK    2  A    between atoms: C_16  and  O_17 
ROOT
HETATM    1  C   UNL     1       7.284  33.749  65.065  1.00  0.00     0.002 A 
HETATM    2  C   UNL     1       7.787  33.116  63.928  1.00  0.00     0.026 A 
HETATM    3  C   UNL     1       6.930  32.440  63.055  1.00  0.00     0.036 A 
HETATM    4  C   UNL     1       5.538  32.426  63.304  1.00  0.00     0.053 A 
HETATM    5  N   UNL     1       4.615  31.835  62.398  1.00  0.00    -0.356 N 
HETATM    6  C   UNL     1       4.695  32.062  61.035  1.00  0.00     0.041 A 
HETATM    7  C   UNL     1       5.785  32.314  60.290  1.00  0.00     0.056 A 
HETATM    8  C   UNL     1       5.302  32.695  58.952  1.00  0.00     0.251 A 
HETATM    9  O   UNL     1       5.966  33.133  58.033  1.00  0.00    -0.268 OA
HETATM   10  N   UNL     1       3.943  32.515  58.940  1.00  0.00    -0.351 N 
HETATM   11  C   UNL     1       3.436  32.135  60.213  1.00  0.00     0.180 A 
HETATM   12  C   UNL     1       7.237  32.322  60.633  1.00  0.00     0.134 C 
HETATM   13  N   UNL     1       7.498  31.739  61.968  1.00  0.00    -0.278 NA
HETATM   14  C   UNL     1       5.051  33.049  64.463  1.00  0.00     0.031 A 
HETATM   15  C   UNL     1       5.919  33.707  65.338  1.00  0.00     0.002 A 
HETATM   16  H   UNL     1       3.665  31.845  62.760  1.00  0.00     0.166 HD
HETATM   17  H   UNL     1       3.394  32.774  58.131  1.00  0.00     0.163 HD
HETATM   18  H   UNL     1       7.063  30.816  61.982  1.00  0.00     0.128 HD
ENDROOT
BRANCH  12  19
HETATM   19  C   UNL     1       8.081  31.509  59.647  1.00  0.00    -0.035 A 
HETATM   20  C   UNL     1       9.334  31.991  59.228  1.00  0.00     0.012 A 
HETATM   21  C   UNL     1      10.115  31.265  58.324  1.00  0.00     0.037 A 
HETATM   22  C   UNL     1       9.648  30.048  57.837  1.00  0.00     0.065 A 
HETATM   23  C   UNL     1       8.416  29.548  58.236  1.00  0.00     0.037 A 
HETATM   24  C   UNL     1       7.633  30.275  59.135  1.00  0.00     0.012 A 
BRANCH  22  25
HETATM   25  O   UNL     1      10.378  29.309  56.953  1.00  0.00    -0.361 OA
HETATM   26  H   UNL     1      10.243  29.677  56.064  1.00  0.00     0.217 HD
ENDBRANCH  22  25
ENDBRANCH  12  19
TORSDOF 2
ENDMDL
MODEL 6
REMARK VINA RESULT:      -8.5      2.695      6.227
REMARK  2 active torsions:
REMARK  status: ('A' for Active; 'I' for Inactive)
REMARK    1  A    between atoms: C_12  and  C_13 
REMARK    2  A    between atoms: C_16  and  O_17 
ROOT
HETATM    1  C   UNL     1       8.675  21.102  53.718  1.00  0.00     0.002 A 
HETATM    2  C   UNL     1       7.863  22.148  53.281  1.00  0.00     0.026 A 
HETATM    3  C   UNL     1       7.374  23.094  54.188  1.00  0.00     0.036 A 
HETATM    4  C   UNL     1       7.733  23.012  55.554  1.00  0.00     0.053 A 
HETATM    5  N   UNL     1       7.341  24.001  56.497  1.00  0.00    -0.356 N 
HETATM    6  C   UNL     1       7.452  25.351  56.217  1.00  0.00     0.041 A 
HETATM    7  C   UNL     1       7.368  25.969  55.026  1.00  0.00     0.056 A 
HETATM    8  C   UNL     1       7.773  27.368  55.248  1.00  0.00     0.251 A 
HETATM    9  O   UNL     1       7.967  28.216  54.399  1.00  0.00    -0.268 OA
HETATM   10  N   UNL     1       7.947  27.536  56.597  1.00  0.00    -0.351 N 
HETATM   11  C   UNL     1       7.793  26.319  57.318  1.00  0.00     0.180 A 
HETATM   12  C   UNL     1       7.025  25.457  53.667  1.00  0.00     0.134 C 
HETATM   13  N   UNL     1       6.482  24.080  53.711  1.00  0.00    -0.278 NA
HETATM   14  C   UNL     1       8.533  21.941  55.980  1.00  0.00     0.031 A 
HETATM   15  C   UNL     1       9.002  20.993  55.068  1.00  0.00     0.002 A 
HETATM   16  H   UNL     1       7.617  23.755  57.445  1.00  0.00     0.166 HD
HETATM   17  H   UNL     1       8.286  28.412  56.970  1.00  0.00     0.163 HD
HETATM   18  H   UNL     1       5.704  24.087  54.371  1.00  0.00     0.128 HD
ENDROOT
BRANCH  12  19
HETATM   19  C   UNL     1       5.962  26.307  52.966  1.00  0.00    -0.035 A 
HETATM   20  C   UNL     1       6.029  26.514  51.577  1.00  0.00     0.012 A 
HETATM   21  C   UNL     1       5.071  27.292  50.922  1.00  0.00     0.037 A 
HETATM   22  C   UNL     1       4.034  27.863  51.652  1.00  0.00     0.065 A 
HETATM   23  C   UNL     1       3.943  27.672  53.024  1.00  0.00     0.037 A 
HETATM   24  C   UNL     1       4.903  26.899  53.680  1.00  0.00     0.012 A 
BRANCH  22  25
HETATM   25  O   UNL     1       3.079  28.630  51.052  1.00  0.00    -0.361 OA
HETATM   26  H   UNL     1       2.268  28.101  50.977  1.00  0.00     0.217 HD
ENDBRANCH  22  25
ENDBRANCH  12  19
TORSDOF 2
ENDMDL
MODEL 7
REMARK VINA RESULT:      -8.2      1.829      2.612
REMARK  2 active torsions:
REMARK  status: ('A' for Active; 'I' for Inactive)
REMARK    1  A    between atoms: C_12  and  C_13 
REMARK    2  A    between atoms: C_16  and  O_17 
ROOT
HETATM    1  C   UNL     1       4.594  30.161  56.109  1.00  0.00     0.002 A 
HETATM    2  C   UNL     1       5.197  28.914  56.270  1.00  0.00     0.026 A 
HETATM    3  C   UNL     1       4.999  27.902  55.325  1.00  0.00     0.036 A 
HETATM    4  C   UNL     1       4.212  28.154  54.177  1.00  0.00     0.053 A 
HETATM    5  N   UNL     1       4.059  27.192  53.142  1.00  0.00    -0.356 N 
HETATM    6  C   UNL     1       5.142  26.493  52.640  1.00  0.00     0.041 A 
HETATM    7  C   UNL     1       6.271  26.130  53.273  1.00  0.00     0.056 A 
HETATM    8  C   UNL     1       7.182  25.606  52.241  1.00  0.00     0.251 A 
HETATM    9  O   UNL     1       8.352  25.307  52.383  1.00  0.00    -0.268 OA
HETATM   10  N   UNL     1       6.485  25.562  51.062  1.00  0.00    -0.351 N 
HETATM   11  C   UNL     1       5.182  26.119  51.182  1.00  0.00     0.180 A 
HETATM   12  C   UNL     1       6.685  26.246  54.701  1.00  0.00     0.134 C 
HETATM   13  N   UNL     1       5.557  26.630  55.580  1.00  0.00    -0.278 NA
HETATM   14  C   UNL     1       3.595  29.407  54.042  1.00  0.00     0.031 A 
HETATM   15  C   UNL     1       3.785  30.404  55.001  1.00  0.00     0.002 A 
HETATM   16  H   UNL     1       3.404  27.502  52.427  1.00  0.00     0.166 HD
HETATM   17  H   UNL     1       6.940  25.286  50.201  1.00  0.00     0.163 HD
HETATM   18  H   UNL     1       4.805  25.963  55.408  1.00  0.00     0.128 HD
ENDROOT
BRANCH  12  19
HETATM   19  C   UNL     1       7.231  24.931  55.267  1.00  0.00    -0.035 A 
HETATM   20  C   UNL     1       8.167  24.950  56.316  1.00  0.00     0.012 A 
HETATM   21  C   UNL     1       8.679  23.759  56.840  1.00  0.00     0.037 A 
HETATM   22  C   UNL     1       8.253  22.541  56.320  1.00  0.00     0.065 A 
HETATM   23  C   UNL     1       7.328  22.495  55.286  1.00  0.00     0.037 A 
HETATM   24  C   UNL     1       6.819  23.684  54.759  1.00  0.00     0.012 A 
BRANCH  22  25
HETATM   25  O   UNL     1       8.728  21.358  56.802  1.00  0.00    -0.361 OA
HETATM   26  H   UNL     1       8.376  21.230  57.698  1.00  0.00     0.217 HD
ENDBRANCH  22  25
ENDBRANCH  12  19
TORSDOF 2
ENDMDL
MODEL 8
REMARK VINA RESULT:      -8.1     11.497     14.676
REMARK  2 active torsions:
REMARK  status: ('A' for Active; 'I' for Inactive)
REMARK    1  A    between atoms: C_12  and  C_13 
REMARK    2  A    between atoms: C_16  and  O_17 
ROOT
HETATM    1  C   UNL     1       8.197  35.139  70.018  1.00  0.00     0.002 A 
HETATM    2  C   UNL     1       8.145  34.520  68.770  1.00  0.00     0.026 A 
HETATM    3  C   UNL     1       6.914  34.234  68.170  1.00  0.00     0.036 A 
HETATM    4  C   UNL     1       5.712  34.607  68.815  1.00  0.00     0.053 A 
HETATM    5  N   UNL     1       4.441  34.426  68.205  1.00  0.00    -0.356 N 
HETATM    6  C   UNL     1       4.217  34.773  66.885  1.00  0.00     0.041 A 
HETATM    7  C   UNL     1       5.087  34.772  65.859  1.00  0.00     0.056 A 
HETATM    8  C   UNL     1       4.407  35.431  64.731  1.00  0.00     0.251 A 
HETATM    9  O   UNL     1       4.901  35.754  63.668  1.00  0.00    -0.268 OA
HETATM   10  N   UNL     1       3.112  35.667  65.113  1.00  0.00    -0.351 N 
HETATM   11  C   UNL     1       2.874  35.312  66.469  1.00  0.00     0.180 A 
HETATM   12  C   UNL     1       6.501  34.308  65.762  1.00  0.00     0.134 C 
HETATM   13  N   UNL     1       6.914  33.525  66.948  1.00  0.00    -0.278 NA
HETATM   14  C   UNL     1       5.783  35.209  70.080  1.00  0.00     0.031 A 
HETATM   15  C   UNL     1       7.018  35.474  70.678  1.00  0.00     0.002 A 
HETATM   16  H   UNL     1       3.679  34.676  68.830  1.00  0.00     0.166 HD
HETATM   17  H   UNL     1       2.476  36.168  64.507  1.00  0.00     0.163 HD
HETATM   18  H   UNL     1       6.229  32.778  67.066  1.00  0.00     0.128 HD
ENDROOT
BRANCH  12  19
HETATM   19  C   UNL     1       6.743  33.400  64.553  1.00  0.00    -0.035 A 
HETATM   20  C   UNL     1       5.672  32.692  63.977  1.00  0.00     0.012 A 
HETATM   21  C   UNL     1       5.877  31.855  62.877  1.00  0.00     0.037 A 
HETATM   22  C   UNL     1       7.153  31.724  62.342  1.00  0.00     0.065 A 
HETATM   23  C   UNL     1       8.227  32.413  62.888  1.00  0.00     0.037 A 
HETATM   24  C   UNL     1       8.025  33.247  63.990  1.00  0.00     0.012 A 
BRANCH  22  25
HETATM   25  O   UNL     1       7.395  30.917  61.270  1.00  0.00    -0.361 OA
HETATM   26  H   UNL     1       6.571  30.456  61.044  1.00  0.00     0.217 HD
ENDBRANCH  22  25
ENDBRANCH  12  19
TORSDOF 2
ENDMDL
MODEL 9
REMARK VINA RESULT:      -8.0      2.932      4.627
REMARK  2 active torsions:
REMARK  status: ('A' for Active; 'I' for Inactive)
REMARK    1  A    between atoms: C_12  and  C_13 
REMARK    2  A    between atoms: C_16  and  O_17 
ROOT
HETATM    1  C   UNL     1      10.196  31.134  58.264  1.00  0.00     0.002 A 
HETATM    2  C   UNL     1       9.786  30.024  57.526  1.00  0.00     0.026 A 
HETATM    3  C   UNL     1       8.450  29.611  57.548  1.00  0.00     0.036 A 
HETATM    4  C   UNL     1       7.498  30.344  58.294  1.00  0.00     0.053 A 
HETATM    5  N   UNL     1       6.113  30.023  58.273  1.00  0.00    -0.356 N 
HETATM    6  C   UNL     1       5.453  29.753  57.087  1.00  0.00     0.041 A 
HETATM    7  C   UNL     1       5.943  29.208  55.960  1.00  0.00     0.056 A 
HETATM    8  C   UNL     1       4.892  29.342  54.936  1.00  0.00     0.251 A 
HETATM    9  O   UNL     1       4.995  29.102  53.749  1.00  0.00    -0.268 OA
HETATM   10  N   UNL     1       3.777  29.843  55.555  1.00  0.00    -0.351 N 
HETATM   11  C   UNL     1       4.014  30.165  56.920  1.00  0.00     0.180 A 
HETATM   12  C   UNL     1       7.278  28.623  55.644  1.00  0.00     0.134 C 
HETATM   13  N   UNL     1       8.103  28.428  56.857  1.00  0.00    -0.278 NA
HETATM   14  C   UNL     1       7.931  31.445  59.048  1.00  0.00     0.031 A 
HETATM   15  C   UNL     1       9.272  31.838  59.032  1.00  0.00     0.002 A 
HETATM   16  H   UNL     1       5.578  30.598  58.918  1.00  0.00     0.166 HD
HETATM   17  H   UNL     1       2.948  30.071  55.023  1.00  0.00     0.163 HD
HETATM   18  H   UNL     1       7.545  27.883  57.514  1.00  0.00     0.128 HD
ENDROOT
BRANCH  12  19
HETATM   19  C   UNL     1       7.178  27.247  54.978  1.00  0.00    -0.035 A 
HETATM   20  C   UNL     1       7.695  27.050  53.686  1.00  0.00     0.012 A 
HETATM   21  C   UNL     1       7.606  25.803  53.061  1.00  0.00     0.037 A 
HETATM   22  C   UNL     1       7.005  24.742  53.729  1.00  0.00     0.065 A 
HETATM   23  C   UNL     1       6.488  24.908  55.007  1.00  0.00     0.037 A 
HETATM   24  C   UNL     1       6.572  26.156  55.630  1.00  0.00     0.012 A 
BRANCH  22  25
HETATM   25  O   UNL     1       6.897  23.510  53.156  1.00  0.00    -0.361 OA
HETATM   26  H   UNL     1       5.955  23.320  53.017  1.00  0.00     0.217 HD
ENDBRANCH  22  25
ENDBRANCH  12  19
TORSDOF 2
ENDMDL
MODEL 10
REMARK VINA RESULT:      -8.0      3.634      6.590
REMARK  2 active torsions:
REMARK  status: ('A' for Active; 'I' for Inactive)
REMARK    1  A    between atoms: C_12  and  C_13 
REMARK    2  A    between atoms: C_16  and  O_17 
ROOT
HETATM    1  C   UNL     1       5.612  28.019  51.388  1.00  0.00     0.002 A 
HETATM    2  C   UNL     1       6.279  28.622  52.454  1.00  0.00     0.026 A 
HETATM    3  C   UNL     1       5.992  28.252  53.771  1.00  0.00     0.036 A 
HETATM    4  C   UNL     1       5.045  27.234  54.027  1.00  0.00     0.053 A 
HETATM    5  N   UNL     1       4.787  26.755  55.340  1.00  0.00    -0.356 N 
HETATM    6  C   UNL     1       5.817  26.462  56.217  1.00  0.00     0.041 A 
HETATM    7  C   UNL     1       7.036  27.025  56.296  1.00  0.00     0.056 A 
HETATM    8  C   UNL     1       7.815  26.208  57.243  1.00  0.00     0.251 A 
HETATM    9  O   UNL     1       9.003  26.300  57.480  1.00  0.00    -0.268 OA
HETATM   10  N   UNL     1       6.964  25.278  57.780  1.00  0.00    -0.351 N 
HETATM   11  C   UNL     1       5.669  25.325  57.193  1.00  0.00     0.180 A 
HETATM   12  C   UNL     1       7.638  28.185  55.577  1.00  0.00     0.134 C 
HETATM   13  N   UNL     1       6.628  28.956  54.818  1.00  0.00    -0.278 NA
HETATM   14  C   UNL     1       4.367  26.653  52.944  1.00  0.00     0.031 A 
HETATM   15  C   UNL     1       4.650  27.043  51.633  1.00  0.00     0.002 A 
HETATM   16  H   UNL     1       4.029  26.078  55.358  1.00  0.00     0.166 HD
HETATM   17  H   UNL     1       7.305  24.570  58.417  1.00  0.00     0.163 HD
HETATM   18  H   UNL     1       5.885  29.201  55.473  1.00  0.00     0.128 HD
ENDROOT
BRANCH  12  19
HETATM   19  C   UNL     1       8.306  29.185  56.525  1.00  0.00    -0.035 A 
HETATM   20  C   UNL     1       7.552  29.813  57.533  1.00  0.00     0.012 A 
HETATM   21  C   UNL     1       8.145  30.732  58.402  1.00  0.00     0.037 A 
HETATM   22  C   UNL     1       9.499  31.025  58.274  1.00  0.00     0.065 A 
HETATM   23  C   UNL     1      10.267  30.417  57.290  1.00  0.00     0.037 A 
HETATM   24  C   UNL     1       9.674  29.502  56.417  1.00  0.00     0.012 A 
BRANCH  22  25
HETATM   25  O   UNL     1      10.116  31.916  59.101  1.00  0.00    -0.361 OA
HETATM   26  H   UNL     1      10.538  31.421  59.822  1.00  0.00     0.217 HD
ENDBRANCH  22  25
ENDBRANCH  12  19
TORSDOF 2
ENDMDL
