MODEL 1
REMARK VINA RESULT:      -8.8      0.000      0.000
REMARK  3 active torsions:
REMARK  status: ('A' for Active; 'I' for Inactive)
REMARK    1  A    between atoms: C_4  and  N_5 
REMARK       I    between atoms: N_5  and  C_6 
REMARK    2  A    between atoms: C_6  and  C_7 
REMARK    3  A    between atoms: C_7  and  C_8 
ROOT
HETATM    1  C   UNL     1       7.481  25.015  55.510  1.00  0.00     0.286 C 
HETATM    2  N   UNL     1       8.791  24.306  55.888  1.00  0.00    -0.056 N 
HETATM    3  H   UNL     1       9.561  24.877  55.513  1.00  0.00     0.278 HD
HETATM    4  H   UNL     1       8.934  24.380  56.919  1.00  0.00     0.278 HD
HETATM    5  C   UNL     1       8.988  22.894  55.432  1.00  0.00     0.209 C 
HETATM    6  C   UNL     1       8.506  22.744  53.971  1.00  0.00     0.115 C 
HETATM    7  N   UNL     1       7.151  23.248  53.790  1.00  0.00    -0.353 N 
HETATM    8  C   UNL     1       6.661  24.373  54.389  1.00  0.00     0.249 C 
HETATM    9  O   UNL     1       5.587  24.841  54.027  1.00  0.00    -0.271 OA
HETATM   10  C   UNL     1       8.302  21.929  56.399  1.00  0.00     0.035 C 
HETATM   11  C   UNL     1       8.423  20.488  55.907  1.00  0.00     0.002 C 
HETATM   12  C   UNL     1       7.898  20.333  54.482  1.00  0.00     0.002 C 
HETATM   13  C   UNL     1       8.602  21.285  53.516  1.00  0.00     0.027 C 
HETATM   14  H   UNL     1       6.605  22.938  52.987  1.00  0.00     0.163 HD
ENDROOT
BRANCH   1  15
HETATM   15  C   UNL     1       6.599  25.247  56.743  1.00  0.00     0.146 C 
BRANCH  15  16
HETATM   16  C   UNL     1       7.331  26.254  57.580  1.00  0.00     0.224 C 
HETATM   17  N   UNL     1       7.306  27.534  57.082  1.00  0.00    -0.327 N 
HETATM   18  H   UNL     1       6.624  27.761  56.363  1.00  0.00     0.169 HD
HETATM   19  O   UNL     1       8.038  25.811  58.487  1.00  0.00    -0.273 OA
BRANCH  17  20
HETATM   20  C   UNL     1       8.185  28.585  57.421  1.00  0.00     0.034 A 
HETATM   21  C   UNL     1       7.997  29.440  58.511  1.00  0.00     0.029 A 
HETATM   22  C   UNL     1       8.951  30.411  58.822  1.00  0.00     0.002 A 
HETATM   23  C   UNL     1      10.100  30.539  58.048  1.00  0.00     0.000 A 
HETATM   24  C   UNL     1      10.290  29.704  56.952  1.00  0.00     0.002 A 
HETATM   25  C   UNL     1       9.335  28.735  56.635  1.00  0.00     0.029 A 
ENDBRANCH  17  20
ENDBRANCH  15  16
ENDBRANCH   1  15
TORSDOF 3
ENDMDL
MODEL 2
REMARK VINA RESULT:      -8.1      3.674      7.069
REMARK  3 active torsions:
REMARK  status: ('A' for Active; 'I' for Inactive)
REMARK    1  A    between atoms: C_4  and  N_5 
REMARK       I    between atoms: N_5  and  C_6 
REMARK    2  A    between atoms: C_6  and  C_7 
REMARK    3  A    between atoms: C_7  and  C_8 
ROOT
HETATM    1  C   UNL     1       5.739  25.850  53.088  1.00  0.00     0.286 C 
HETATM    2  N   UNL     1       4.550  26.818  52.979  1.00  0.00    -0.056 N 
HETATM    3  H   UNL     1       3.694  26.251  53.037  1.00  0.00     0.278 HD
HETATM    4  H   UNL     1       4.501  27.396  53.847  1.00  0.00     0.278 HD
HETATM    5  C   UNL     1       4.456  27.688  51.764  1.00  0.00     0.209 C 
HETATM    6  C   UNL     1       4.808  26.867  50.504  1.00  0.00     0.115 C 
HETATM    7  N   UNL     1       6.081  26.172  50.644  1.00  0.00    -0.353 N 
HETATM    8  C   UNL     1       6.509  25.573  51.795  1.00  0.00     0.249 C 
HETATM    9  O   UNL     1       7.491  24.838  51.773  1.00  0.00    -0.271 OA
HETATM   10  C   UNL     1       5.326  28.932  51.941  1.00  0.00     0.035 C 
HETATM   11  C   UNL     1       5.306  29.793  50.679  1.00  0.00     0.002 C 
HETATM   12  C   UNL     1       5.705  28.992  49.443  1.00  0.00     0.002 C 
HETATM   13  C   UNL     1       4.818  27.760  49.261  1.00  0.00     0.027 C 
HETATM   14  H   UNL     1       6.576  25.860  49.810  1.00  0.00     0.163 HD
ENDROOT
BRANCH   1  15
HETATM   15  C   UNL     1       6.707  26.281  54.196  1.00  0.00     0.146 C 
BRANCH  15  16
HETATM   16  C   UNL     1       6.859  25.083  55.088  1.00  0.00     0.224 C 
HETATM   17  N   UNL     1       7.900  24.253  54.753  1.00  0.00    -0.327 N 
HETATM   18  H   UNL     1       8.618  24.605  54.125  1.00  0.00     0.169 HD
HETATM   19  O   UNL     1       5.937  24.858  55.873  1.00  0.00    -0.273 OA
BRANCH  17  20
HETATM   20  C   UNL     1       8.061  22.906  55.145  1.00  0.00     0.034 A 
HETATM   21  C   UNL     1       8.342  22.502  56.453  1.00  0.00     0.029 A 
HETATM   22  C   UNL     1       8.416  21.145  56.774  1.00  0.00     0.002 A 
HETATM   23  C   UNL     1       8.212  20.180  55.792  1.00  0.00     0.000 A 
HETATM   24  C   UNL     1       7.947  20.571  54.484  1.00  0.00     0.002 A 
HETATM   25  C   UNL     1       7.878  21.928  54.159  1.00  0.00     0.029 A 
ENDBRANCH  17  20
ENDBRANCH  15  16
ENDBRANCH   1  15
TORSDOF 3
ENDMDL
MODEL 3
REMARK VINA RESULT:      -8.0      2.406      7.215
REMARK  3 active torsions:
REMARK  status: ('A' for Active; 'I' for Inactive)
REMARK    1  A    between atoms: C_4  and  N_5 
REMARK       I    between atoms: N_5  and  C_6 
REMARK    2  A    between atoms: C_6  and  C_7 
REMARK    3  A    between atoms: C_7  and  C_8 
ROOT
HETATM    1  C   UNL     1       5.115  27.240  53.971  1.00  0.00     0.286 C 
HETATM    2  N   UNL     1       5.010  26.693  55.403  1.00  0.00    -0.056 N 
HETATM    3  H   UNL     1       4.022  26.456  55.563  1.00  0.00     0.278 HD
HETATM    4  H   UNL     1       5.479  25.762  55.448  1.00  0.00     0.278 HD
HETATM    5  C   UNL     1       5.472  27.566  56.529  1.00  0.00     0.209 C 
HETATM    6  C   UNL     1       4.993  29.016  56.296  1.00  0.00     0.115 C 
HETATM    7  N   UNL     1       5.357  29.505  54.973  1.00  0.00    -0.353 N 
HETATM    8  C   UNL     1       5.314  28.751  53.834  1.00  0.00     0.249 C 
HETATM    9  O   UNL     1       5.437  29.289  52.739  1.00  0.00    -0.271 OA
HETATM   10  C   UNL     1       6.986  27.446  56.699  1.00  0.00     0.035 C 
HETATM   11  C   UNL     1       7.487  28.391  57.791  1.00  0.00     0.002 C 
HETATM   12  C   UNL     1       7.056  29.831  57.531  1.00  0.00     0.002 C 
HETATM   13  C   UNL     1       5.540  29.948  57.382  1.00  0.00     0.027 C 
HETATM   14  H   UNL     1       5.388  30.508  54.800  1.00  0.00     0.163 HD
ENDROOT
BRANCH   1  15
HETATM   15  C   UNL     1       6.185  26.492  53.167  1.00  0.00     0.146 C 
BRANCH  15  16
HETATM   16  C   UNL     1       6.053  25.050  53.561  1.00  0.00     0.224 C 
HETATM   17  N   UNL     1       7.218  24.471  54.002  1.00  0.00    -0.327 N 
HETATM   18  H   UNL     1       7.990  25.077  54.265  1.00  0.00     0.169 HD
HETATM   19  O   UNL     1       4.999  24.488  53.258  1.00  0.00    -0.273 OA
BRANCH  17  20
HETATM   20  C   UNL     1       7.494  23.089  54.077  1.00  0.00     0.034 A 
HETATM   21  C   UNL     1       7.803  22.294  52.971  1.00  0.00     0.029 A 
HETATM   22  C   UNL     1       8.134  20.947  53.137  1.00  0.00     0.002 A 
HETATM   23  C   UNL     1       8.159  20.382  54.409  1.00  0.00     0.000 A 
HETATM   24  C   UNL     1       7.838  21.161  55.516  1.00  0.00     0.002 A 
HETATM   25  C   UNL     1       7.500  22.507  55.352  1.00  0.00     0.029 A 
ENDBRANCH  17  20
ENDBRANCH  15  16
ENDBRANCH   1  15
TORSDOF 3
ENDMDL
MODEL 4
REMARK VINA RESULT:      -8.0      2.217      7.222
REMARK  3 active torsions:
REMARK  status: ('A' for Active; 'I' for Inactive)
REMARK    1  A    between atoms: C_4  and  N_5 
REMARK       I    between atoms: N_5  and  C_6 
REMARK    2  A    between atoms: C_6  and  C_7 
REMARK    3  A    between atoms: C_7  and  C_8 
ROOT
HETATM    1  C   UNL     1       6.364  28.347  56.418  1.00  0.00     0.286 C 
HETATM    2  N   UNL     1       7.749  27.761  56.732  1.00  0.00    -0.056 N 
HETATM    3  H   UNL     1       7.596  26.900  57.274  1.00  0.00     0.278 HD
HETATM    4  H   UNL     1       8.176  27.403  55.849  1.00  0.00     0.278 HD
HETATM    5  C   UNL     1       8.727  28.617  57.476  1.00  0.00     0.209 C 
HETATM    6  C   UNL     1       8.005  29.360  58.622  1.00  0.00     0.115 C 
HETATM    7  N   UNL     1       6.824  30.072  58.151  1.00  0.00    -0.353 N 
HETATM    8  C   UNL     1       5.957  29.590  57.213  1.00  0.00     0.249 C 
HETATM    9  O   UNL     1       4.884  30.154  57.024  1.00  0.00    -0.271 OA
HETATM   10  C   UNL     1       9.450  29.552  56.507  1.00  0.00     0.035 C 
HETATM   11  C   UNL     1      10.394  30.489  57.258  1.00  0.00     0.002 C 
HETATM   12  C   UNL     1       9.667  31.260  58.356  1.00  0.00     0.002 C 
HETATM   13  C   UNL     1       8.963  30.320  59.334  1.00  0.00     0.027 C 
HETATM   14  H   UNL     1       6.443  30.835  58.709  1.00  0.00     0.163 HD
ENDROOT
BRANCH   1  15
HETATM   15  C   UNL     1       6.196  28.603  54.916  1.00  0.00     0.146 C 
BRANCH  15  16
HETATM   16  C   UNL     1       6.882  27.458  54.231  1.00  0.00     0.224 C 
HETATM   17  N   UNL     1       6.213  26.262  54.313  1.00  0.00    -0.327 N 
HETATM   18  H   UNL     1       5.235  26.272  54.589  1.00  0.00     0.169 HD
HETATM   19  O   UNL     1       8.041  27.650  53.860  1.00  0.00    -0.273 OA
BRANCH  17  20
HETATM   20  C   UNL     1       6.761  24.976  54.111  1.00  0.00     0.034 A 
HETATM   21  C   UNL     1       7.175  24.491  52.867  1.00  0.00     0.029 A 
HETATM   22  C   UNL     1       7.774  23.234  52.762  1.00  0.00     0.002 A 
HETATM   23  C   UNL     1       7.963  22.449  53.896  1.00  0.00     0.000 A 
HETATM   24  C   UNL     1       7.540  22.916  55.136  1.00  0.00     0.002 A 
HETATM   25  C   UNL     1       6.936  24.171  55.244  1.00  0.00     0.029 A 
ENDBRANCH  17  20
ENDBRANCH  15  16
ENDBRANCH   1  15
TORSDOF 3
ENDMDL
MODEL 5
REMARK VINA RESULT:      -8.0      4.933      7.703
REMARK  3 active torsions:
REMARK  status: ('A' for Active; 'I' for Inactive)
REMARK    1  A    between atoms: C_4  and  N_5 
REMARK       I    between atoms: N_5  and  C_6 
REMARK    2  A    between atoms: C_6  and  C_7 
REMARK    3  A    between atoms: C_7  and  C_8 
ROOT
HETATM    1  C   UNL     1       5.035  27.302  51.580  1.00  0.00     0.286 C 
HETATM    2  N   UNL     1       5.610  26.793  50.249  1.00  0.00    -0.056 N 
HETATM    3  H   UNL     1       6.448  27.355  50.048  1.00  0.00     0.278 HD
HETATM    4  H   UNL     1       6.003  25.837  50.391  1.00  0.00     0.278 HD
HETATM    5  C   UNL     1       4.725  26.821  49.041  1.00  0.00     0.209 C 
HETATM    6  C   UNL     1       3.935  28.148  49.001  1.00  0.00     0.115 C 
HETATM    7  N   UNL     1       3.242  28.408  50.256  1.00  0.00    -0.353 N 
HETATM    8  C   UNL     1       3.761  28.145  51.492  1.00  0.00     0.249 C 
HETATM    9  O   UNL     1       3.204  28.579  52.495  1.00  0.00    -0.271 OA
HETATM   10  C   UNL     1       3.831  25.581  49.017  1.00  0.00     0.035 C 
HETATM   11  C   UNL     1       2.864  25.631  47.835  1.00  0.00     0.002 C 
HETATM   12  C   UNL     1       2.048  26.920  47.827  1.00  0.00     0.002 C 
HETATM   13  C   UNL     1       2.948  28.156  47.831  1.00  0.00     0.027 C 
HETATM   14  H   UNL     1       2.456  29.057  50.270  1.00  0.00     0.163 HD
ENDROOT
BRANCH   1  15
HETATM   15  C   UNL     1       4.840  26.154  52.577  1.00  0.00     0.146 C 
BRANCH  15  16
HETATM   16  C   UNL     1       6.200  25.547  52.766  1.00  0.00     0.224 C 
HETATM   17  N   UNL     1       6.186  24.238  53.181  1.00  0.00    -0.327 N 
HETATM   18  H   UNL     1       5.321  23.711  53.093  1.00  0.00     0.169 HD
HETATM   19  O   UNL     1       7.159  26.320  52.738  1.00  0.00    -0.273 OA
BRANCH  17  20
HETATM   20  C   UNL     1       7.250  23.538  53.789  1.00  0.00     0.034 A 
HETATM   21  C   UNL     1       7.670  23.746  55.106  1.00  0.00     0.029 A 
HETATM   22  C   UNL     1       8.685  22.962  55.658  1.00  0.00     0.002 A 
HETATM   23  C   UNL     1       9.291  21.964  54.900  1.00  0.00     0.000 A 
HETATM   24  C   UNL     1       8.891  21.758  53.584  1.00  0.00     0.002 A 
HETATM   25  C   UNL     1       7.880  22.545  53.027  1.00  0.00     0.029 A 
ENDBRANCH  17  20
ENDBRANCH  15  16
ENDBRANCH   1  15
TORSDOF 3
ENDMDL
MODEL 6
REMARK VINA RESULT:      -7.9      2.341      3.833
REMARK  3 active torsions:
REMARK  status: ('A' for Active; 'I' for Inactive)
REMARK    1  A    between atoms: C_4  and  N_5 
REMARK       I    between atoms: N_5  and  C_6 
REMARK    2  A    between atoms: C_6  and  C_7 
REMARK    3  A    between atoms: C_7  and  C_8 
ROOT
HETATM    1  C   UNL     1       7.274  26.878  56.822  1.00  0.00     0.286 C 
HETATM    2  N   UNL     1       6.407  27.082  55.570  1.00  0.00    -0.056 N 
HETATM    3  H   UNL     1       5.427  27.109  55.882  1.00  0.00     0.278 HD
HETATM    4  H   UNL     1       6.557  28.048  55.205  1.00  0.00     0.278 HD
HETATM    5  C   UNL     1       6.519  26.080  54.462  1.00  0.00     0.209 C 
HETATM    6  C   UNL     1       6.574  24.653  55.051  1.00  0.00     0.115 C 
HETATM    7  N   UNL     1       7.600  24.526  56.077  1.00  0.00    -0.353 N 
HETATM    8  C   UNL     1       7.883  25.486  57.007  1.00  0.00     0.249 C 
HETATM    9  O   UNL     1       8.612  25.222  57.957  1.00  0.00    -0.271 OA
HETATM   10  C   UNL     1       7.714  26.415  53.570  1.00  0.00     0.035 C 
HETATM   11  C   UNL     1       7.892  25.359  52.481  1.00  0.00     0.002 C 
HETATM   12  C   UNL     1       7.999  23.955  53.069  1.00  0.00     0.002 C 
HETATM   13  C   UNL     1       6.791  23.618  53.943  1.00  0.00     0.027 C 
HETATM   14  H   UNL     1       7.954  23.602  56.320  1.00  0.00     0.163 HD
ENDROOT
BRANCH   1  15
HETATM   15  C   UNL     1       8.365  27.949  56.923  1.00  0.00     0.146 C 
BRANCH  15  16
HETATM   16  C   UNL     1       7.756  29.074  57.708  1.00  0.00     0.224 C 
HETATM   17  N   UNL     1       8.665  29.868  58.363  1.00  0.00    -0.327 N 
HETATM   18  H   UNL     1       9.643  29.812  58.091  1.00  0.00     0.169 HD
HETATM   19  O   UNL     1       6.534  29.047  57.856  1.00  0.00    -0.273 OA
BRANCH  17  20
HETATM   20  C   UNL     1       8.398  30.735  59.446  1.00  0.00     0.034 A 
HETATM   21  C   UNL     1       7.387  31.700  59.442  1.00  0.00     0.029 A 
HETATM   22  C   UNL     1       7.140  32.470  60.580  1.00  0.00     0.002 A 
HETATM   23  C   UNL     1       7.901  32.285  61.731  1.00  0.00     0.000 A 
HETATM   24  C   UNL     1       8.919  31.338  61.741  1.00  0.00     0.002 A 
HETATM   25  C   UNL     1       9.172  30.570  60.602  1.00  0.00     0.029 A 
ENDBRANCH  17  20
ENDBRANCH  15  16
ENDBRANCH   1  15
TORSDOF 3
ENDMDL
MODEL 7
REMARK VINA RESULT:      -7.9      1.373      7.335
REMARK  3 active torsions:
REMARK  status: ('A' for Active; 'I' for Inactive)
REMARK    1  A    between atoms: C_4  and  N_5 
REMARK       I    between atoms: N_5  and  C_6 
REMARK    2  A    between atoms: C_6  and  C_7 
REMARK    3  A    between atoms: C_7  and  C_8 
ROOT
HETATM    1  C   UNL     1       7.276  26.821  55.737  1.00  0.00     0.286 C 
HETATM    2  N   UNL     1       6.998  28.247  55.237  1.00  0.00    -0.056 N 
HETATM    3  H   UNL     1       7.494  28.354  54.342  1.00  0.00     0.278 HD
HETATM    4  H   UNL     1       5.996  28.320  54.954  1.00  0.00     0.278 HD
HETATM    5  C   UNL     1       7.376  29.393  56.123  1.00  0.00     0.209 C 
HETATM    6  C   UNL     1       8.760  29.130  56.757  1.00  0.00     0.115 C 
HETATM    7  N   UNL     1       8.825  27.827  57.404  1.00  0.00    -0.353 N 
HETATM    8  C   UNL     1       8.254  26.690  56.907  1.00  0.00     0.249 C 
HETATM    9  O   UNL     1       8.526  25.601  57.401  1.00  0.00    -0.271 OA
HETATM   10  C   UNL     1       6.275  29.645  57.154  1.00  0.00     0.035 C 
HETATM   11  C   UNL     1       6.678  30.759  58.119  1.00  0.00     0.002 C 
HETATM   12  C   UNL     1       8.022  30.471  58.782  1.00  0.00     0.002 C 
HETATM   13  C   UNL     1       9.123  30.241  57.747  1.00  0.00     0.027 C 
HETATM   14  H   UNL     1       9.539  27.653  58.110  1.00  0.00     0.163 HD
ENDROOT
BRANCH   1  15
HETATM   15  C   UNL     1       5.972  26.078  56.053  1.00  0.00     0.146 C 
BRANCH  15  16
HETATM   16  C   UNL     1       5.991  24.846  55.196  1.00  0.00     0.224 C 
HETATM   17  N   UNL     1       6.841  23.861  55.636  1.00  0.00    -0.327 N 
HETATM   18  H   UNL     1       7.190  23.912  56.589  1.00  0.00     0.169 HD
HETATM   19  O   UNL     1       5.424  24.921  54.105  1.00  0.00    -0.273 OA
BRANCH  17  20
HETATM   20  C   UNL     1       7.348  22.786  54.873  1.00  0.00     0.034 A 
HETATM   21  C   UNL     1       7.684  22.880  53.520  1.00  0.00     0.029 A 
HETATM   22  C   UNL     1       8.248  21.789  52.854  1.00  0.00     0.002 A 
HETATM   23  C   UNL     1       8.480  20.596  53.532  1.00  0.00     0.000 A 
HETATM   24  C   UNL     1       8.135  20.488  54.875  1.00  0.00     0.002 A 
HETATM   25  C   UNL     1       7.566  21.574  55.542  1.00  0.00     0.029 A 
ENDBRANCH  17  20
ENDBRANCH  15  16
ENDBRANCH   1  15
TORSDOF 3
ENDMDL
MODEL 8
REMARK VINA RESULT:      -7.8      2.963      6.808
REMARK  3 active torsions:
REMARK  status: ('A' for Active; 'I' for Inactive)
REMARK    1  A    between atoms: C_4  and  N_5 
REMARK       I    between atoms: N_5  and  C_6 
REMARK    2  A    between atoms: C_6  and  C_7 
REMARK    3  A    between atoms: C_7  and  C_8 
ROOT
HETATM    1  C   UNL     1       6.532  26.866  55.279  1.00  0.00     0.286 C 
HETATM    2  N   UNL     1       7.418  26.678  54.037  1.00  0.00    -0.056 N 
HETATM    3  H   UNL     1       8.270  27.234  54.188  1.00  0.00     0.278 HD
HETATM    4  H   UNL     1       7.782  25.701  54.022  1.00  0.00     0.278 HD
HETATM    5  C   UNL     1       6.849  27.045  52.702  1.00  0.00     0.209 C 
HETATM    6  C   UNL     1       6.069  28.375  52.812  1.00  0.00     0.115 C 
HETATM    7  N   UNL     1       5.091  28.345  53.891  1.00  0.00    -0.353 N 
HETATM    8  C   UNL     1       5.302  27.760  55.107  1.00  0.00     0.249 C 
HETATM    9  O   UNL     1       4.514  27.956  56.026  1.00  0.00    -0.271 OA
HETATM   10  C   UNL     1       6.007  25.892  52.155  1.00  0.00     0.035 C 
HETATM   11  C   UNL     1       5.353  26.277  50.829  1.00  0.00     0.002 C 
HETATM   12  C   UNL     1       4.541  27.564  50.954  1.00  0.00     0.002 C 
HETATM   13  C   UNL     1       5.393  28.718  51.482  1.00  0.00     0.027 C 
HETATM   14  H   UNL     1       4.315  29.005  53.882  1.00  0.00     0.163 HD
ENDROOT
BRANCH   1  15
HETATM   15  C   UNL     1       6.123  25.515  55.879  1.00  0.00     0.146 C 
BRANCH  15  16
HETATM   16  C   UNL     1       7.208  24.554  55.491  1.00  0.00     0.224 C 
HETATM   17  N   UNL     1       6.787  23.506  54.710  1.00  0.00    -0.327 N 
HETATM   18  H   UNL     1       5.881  23.575  54.254  1.00  0.00     0.169 HD
HETATM   19  O   UNL     1       8.289  24.679  56.067  1.00  0.00    -0.273 OA
BRANCH  17  20
HETATM   20  C   UNL     1       7.463  22.283  54.509  1.00  0.00     0.034 A 
HETATM   21  C   UNL     1       7.940  21.849  53.270  1.00  0.00     0.029 A 
HETATM   22  C   UNL     1       8.662  20.657  53.167  1.00  0.00     0.002 A 
HETATM   23  C   UNL     1       8.913  19.889  54.300  1.00  0.00     0.000 A 
HETATM   24  C   UNL     1       8.429  20.305  55.537  1.00  0.00     0.002 A 
HETATM   25  C   UNL     1       7.702  21.492  55.641  1.00  0.00     0.029 A 
ENDBRANCH  17  20
ENDBRANCH  15  16
ENDBRANCH   1  15
TORSDOF 3
ENDMDL
MODEL 9
REMARK VINA RESULT:      -7.7      2.356      7.542
REMARK  3 active torsions:
REMARK  status: ('A' for Active; 'I' for Inactive)
REMARK    1  A    between atoms: C_4  and  N_5 
REMARK       I    between atoms: N_5  and  C_6 
REMARK    2  A    between atoms: C_6  and  C_7 
REMARK    3  A    between atoms: C_7  and  C_8 
ROOT
HETATM    1  C   UNL     1       7.077  27.011  56.056  1.00  0.00     0.286 C 
HETATM    2  N   UNL     1       6.316  27.771  54.958  1.00  0.00    -0.056 N 
HETATM    3  H   UNL     1       7.005  28.031  54.240  1.00  0.00     0.278 HD
HETATM    4  H   UNL     1       5.695  27.104  54.450  1.00  0.00     0.278 HD
HETATM    5  C   UNL     1       5.556  29.000  55.348  1.00  0.00     0.209 C 
HETATM    6  C   UNL     1       6.396  29.846  56.331  1.00  0.00     0.115 C 
HETATM    7  N   UNL     1       6.874  29.056  57.458  1.00  0.00    -0.353 N 
HETATM    8  C   UNL     1       7.319  27.768  57.364  1.00  0.00     0.249 C 
HETATM    9  O   UNL     1       7.892  27.247  58.314  1.00  0.00    -0.271 OA
HETATM   10  C   UNL     1       4.182  28.617  55.898  1.00  0.00     0.035 C 
HETATM   11  C   UNL     1       3.423  29.853  56.375  1.00  0.00     0.002 C 
HETATM   12  C   UNL     1       4.235  30.658  57.386  1.00  0.00     0.002 C 
HETATM   13  C   UNL     1       5.599  31.057  56.823  1.00  0.00     0.027 C 
HETATM   14  H   UNL     1       7.160  29.527  58.315  1.00  0.00     0.163 HD
ENDROOT
BRANCH   1  15
HETATM   15  C   UNL     1       6.427  25.653  56.345  1.00  0.00     0.146 C 
BRANCH  15  16
HETATM   16  C   UNL     1       7.445  24.624  55.946  1.00  0.00     0.224 C 
HETATM   17  N   UNL     1       7.029  23.766  54.958  1.00  0.00    -0.327 N 
HETATM   18  H   UNL     1       6.211  24.018  54.409  1.00  0.00     0.169 HD
HETATM   19  O   UNL     1       8.438  24.519  56.667  1.00  0.00    -0.273 OA
BRANCH  17  20
HETATM   20  C   UNL     1       7.587  22.506  54.649  1.00  0.00     0.034 A 
HETATM   21  C   UNL     1       7.825  21.505  55.593  1.00  0.00     0.029 A 
HETATM   22  C   UNL     1       8.314  20.258  55.196  1.00  0.00     0.002 A 
HETATM   23  C   UNL     1       8.571  20.002  53.852  1.00  0.00     0.000 A 
HETATM   24  C   UNL     1       8.352  20.997  52.905  1.00  0.00     0.002 A 
HETATM   25  C   UNL     1       7.868  22.246  53.301  1.00  0.00     0.029 A 
ENDBRANCH  17  20
ENDBRANCH  15  16
ENDBRANCH   1  15
TORSDOF 3
ENDMDL
MODEL 10
REMARK VINA RESULT:      -7.6      4.828      7.423
REMARK  3 active torsions:
REMARK  status: ('A' for Active; 'I' for Inactive)
REMARK    1  A    between atoms: C_4  and  N_5 
REMARK       I    between atoms: N_5  and  C_6 
REMARK    2  A    between atoms: C_6  and  C_7 
REMARK    3  A    between atoms: C_7  and  C_8 
ROOT
HETATM    1  C   UNL     1       5.756  27.380  53.839  1.00  0.00     0.286 C 
HETATM    2  N   UNL     1       5.011  26.046  53.678  1.00  0.00    -0.056 N 
HETATM    3  H   UNL     1       4.183  26.087  54.287  1.00  0.00     0.278 HD
HETATM    4  H   UNL     1       4.591  26.002  52.724  1.00  0.00     0.278 HD
HETATM    5  C   UNL     1       5.754  24.781  53.981  1.00  0.00     0.209 C 
HETATM    6  C   UNL     1       6.596  24.963  55.263  1.00  0.00     0.115 C 
HETATM    7  N   UNL     1       7.438  26.150  55.199  1.00  0.00    -0.353 N 
HETATM    8  C   UNL     1       7.050  27.341  54.655  1.00  0.00     0.249 C 
HETATM    9  O   UNL     1       7.737  28.343  54.823  1.00  0.00    -0.271 OA
HETATM   10  C   UNL     1       6.580  24.354  52.767  1.00  0.00     0.035 C 
HETATM   11  C   UNL     1       7.408  23.109  53.084  1.00  0.00     0.002 C 
HETATM   12  C   UNL     1       8.277  23.310  54.322  1.00  0.00     0.002 C 
HETATM   13  C   UNL     1       7.443  23.717  55.536  1.00  0.00     0.027 C 
HETATM   14  H   UNL     1       8.249  26.223  55.811  1.00  0.00     0.163 HD
ENDROOT
BRANCH   1  15
HETATM   15  C   UNL     1       6.008  28.044  52.480  1.00  0.00     0.146 C 
BRANCH  15  16
HETATM   16  C   UNL     1       4.820  27.695  51.632  1.00  0.00     0.224 C 
HETATM   17  N   UNL     1       5.131  27.092  50.438  1.00  0.00    -0.327 N 
HETATM   18  H   UNL     1       6.064  26.708  50.318  1.00  0.00     0.169 HD
HETATM   19  O   UNL     1       3.734  28.159  51.983  1.00  0.00    -0.273 OA
BRANCH  17  20
HETATM   20  C   UNL     1       4.296  26.996  49.303  1.00  0.00     0.034 A 
HETATM   21  C   UNL     1       3.922  28.088  48.515  1.00  0.00     0.029 A 
HETATM   22  C   UNL     1       3.152  27.900  47.365  1.00  0.00     0.002 A 
HETATM   23  C   UNL     1       2.747  26.621  46.993  1.00  0.00     0.000 A 
HETATM   24  C   UNL     1       3.102  25.529  47.779  1.00  0.00     0.002 A 
HETATM   25  C   UNL     1       3.867  25.715  48.932  1.00  0.00     0.029 A 
ENDBRANCH  17  20
ENDBRANCH  15  16
ENDBRANCH   1  15
TORSDOF 3
ENDMDL
