MODEL 1
REMARK VINA RESULT:     -10.4      0.000      0.000
REMARK  8 active torsions:
REMARK  status: ('A' for Active; 'I' for Inactive)
REMARK    1  A    between atoms: C_4  and  C_5 
REMARK    2  A    between atoms: C_5  and  N_6 
REMARK       I    between atoms: N_6  and  C_7 
REMARK    3  A    between atoms: C_7  and  C_8 
REMARK    4  A    between atoms: C_9  and  N_10 
REMARK       I    between atoms: N_10  and  C_11 
REMARK    5  A    between atoms: C_11  and  C_12 
REMARK    6  A    between atoms: C_12  and  C_13 
REMARK    7  A    between atoms: C_13  and  C_14 
REMARK    8  A    between atoms: C_14  and  N_15 
ROOT
HETATM    1  C   UNL     1       6.988  31.857  60.112  1.00  0.00     0.073 A 
HETATM    2  C   UNL     1       8.232  31.238  60.052  1.00  0.00     0.093 A 
HETATM    3  S   UNL     1       9.140  31.424  61.499  1.00  0.00    -0.075 SA
HETATM    4  C   UNL     1       7.895  32.255  62.271  1.00  0.00    -0.008 A 
HETATM    5  C   UNL     1       6.822  32.482  61.433  1.00  0.00    -0.026 A 
HETATM    6  C   UNL     1       5.622  33.266  61.911  1.00  0.00     0.041 C 
HETATM    7  C   UNL     1       5.902  34.030  63.216  1.00  0.00     0.005 C 
HETATM    8  C   UNL     1       6.655  33.165  64.230  1.00  0.00     0.005 C 
HETATM    9  C   UNL     1       8.020  32.731  63.684  1.00  0.00     0.047 C 
ENDROOT
BRANCH   2  10
HETATM   10  N   UNL     1       9.033  30.547  59.168  1.00  0.00    -0.320 N 
HETATM   11  C   UNL     1      10.033  31.025  58.356  1.00  0.00     0.222 C 
HETATM   12  O   UNL     1      10.330  32.198  58.184  1.00  0.00    -0.273 OA
HETATM   13  H   UNL     1       8.669  29.628  58.940  1.00  0.00     0.169 HD
BRANCH  11  14
HETATM   14  C   UNL     1      10.684  29.893  57.573  1.00  0.00     0.105 C 
BRANCH  14  15
HETATM   15  C   UNL     1      10.129  29.698  56.166  1.00  0.00     0.029 C 
BRANCH  15  16
HETATM   16  C   UNL     1       8.600  29.674  56.138  1.00  0.00     0.136 C 
BRANCH  16  17
HETATM   17  N   UNL     1       8.100  28.325  55.951  1.00  0.00    -0.280 N 
HETATM   18  C   UNL     1       7.870  27.765  54.723  1.00  0.00     0.261 A 
HETATM   19  O   UNL     1       8.007  28.252  53.616  1.00  0.00    -0.267 OA
HETATM   20  C   UNL     1       7.435  26.391  54.969  1.00  0.00     0.048 A 
HETATM   21  C   UNL     1       7.461  26.184  56.336  1.00  0.00     0.048 A 
HETATM   22  C   UNL     1       7.059  25.397  54.087  1.00  0.00     0.018 A 
HETATM   23  C   UNL     1       7.912  27.425  56.963  1.00  0.00     0.261 A 
HETATM   24  C   UNL     1       7.112  24.972  56.899  1.00  0.00     0.018 A 
HETATM   25  O   UNL     1       8.084  27.557  58.159  1.00  0.00    -0.267 OA
HETATM   26  C   UNL     1       6.725  23.950  56.027  1.00  0.00     0.001 A 
HETATM   27  C   UNL     1       6.698  24.160  54.632  1.00  0.00     0.001 A 
ENDBRANCH  16  17
ENDBRANCH  15  16
ENDBRANCH  14  15
ENDBRANCH  11  14
ENDBRANCH   2  10
BRANCH   1  28
HETATM   28  C   UNL     1       5.958  32.041  59.078  1.00  0.00     0.255 C 
HETATM   29  N   UNL     1       4.964  31.108  59.009  1.00  0.00    -0.353 N 
HETATM   30  H   UNL     1       5.115  30.196  59.433  1.00  0.00     0.163 HD
HETATM   31  O   UNL     1       5.930  33.060  58.390  1.00  0.00    -0.268 OA
BRANCH  29  32
HETATM   32  C   UNL     1       3.805  31.266  58.166  1.00  0.00     0.161 C 
BRANCH  32  33
HETATM   33  C   UNL     1       3.908  30.516  56.864  1.00  0.00    -0.041 A 
HETATM   34  C   UNL     1       4.414  29.211  56.827  1.00  0.00     0.009 A 
HETATM   35  C   UNL     1       4.485  28.512  55.619  1.00  0.00     0.001 A 
HETATM   36  C   UNL     1       4.061  29.114  54.436  1.00  0.00     0.000 A 
HETATM   37  C   UNL     1       3.567  30.416  54.458  1.00  0.00     0.001 A 
HETATM   38  C   UNL     1       3.492  31.113  55.665  1.00  0.00     0.009 A 
ENDBRANCH  32  33
ENDBRANCH  29  32
ENDBRANCH   1  28
TORSDOF 8
ENDMDL
MODEL 2
REMARK VINA RESULT:     -10.3      2.538      8.743
REMARK  8 active torsions:
REMARK  status: ('A' for Active; 'I' for Inactive)
REMARK    1  A    between atoms: C_4  and  C_5 
REMARK    2  A    between atoms: C_5  and  N_6 
REMARK       I    between atoms: N_6  and  C_7 
REMARK    3  A    between atoms: C_7  and  C_8 
REMARK    4  A    between atoms: C_9  and  N_10 
REMARK       I    between atoms: N_10  and  C_11 
REMARK    5  A    between atoms: C_11  and  C_12 
REMARK    6  A    between atoms: C_12  and  C_13 
REMARK    7  A    between atoms: C_13  and  C_14 
REMARK    8  A    between atoms: C_14  and  N_15 
ROOT
HETATM    1  C   UNL     1       7.490  24.501  54.666  1.00  0.00     0.073 A 
HETATM    2  C   UNL     1       7.767  24.767  56.002  1.00  0.00     0.093 A 
HETATM    3  S   UNL     1       8.338  23.387  56.852  1.00  0.00    -0.075 SA
HETATM    4  C   UNL     1       8.312  22.424  55.471  1.00  0.00    -0.008 A 
HETATM    5  C   UNL     1       7.794  23.091  54.380  1.00  0.00    -0.026 A 
HETATM    6  C   UNL     1       7.625  22.387  53.054  1.00  0.00     0.041 C 
HETATM    7  C   UNL     1       7.745  20.859  53.181  1.00  0.00     0.005 C 
HETATM    8  C   UNL     1       8.920  20.453  54.074  1.00  0.00     0.005 C 
HETATM    9  C   UNL     1       8.746  20.992  55.499  1.00  0.00     0.047 C 
ENDROOT
BRANCH   2  10
HETATM   10  N   UNL     1       7.680  25.790  56.922  1.00  0.00    -0.320 N 
HETATM   11  C   UNL     1       7.773  27.145  56.716  1.00  0.00     0.222 C 
HETATM   12  O   UNL     1       8.068  27.702  55.668  1.00  0.00    -0.273 OA
HETATM   13  H   UNL     1       7.791  25.472  57.878  1.00  0.00     0.169 HD
BRANCH  11  14
HETATM   14  C   UNL     1       7.573  27.907  58.019  1.00  0.00     0.105 C 
BRANCH  14  15
HETATM   15  C   UNL     1       7.321  29.401  57.843  1.00  0.00     0.029 C 
BRANCH  15  16
HETATM   16  C   UNL     1       8.472  30.256  58.377  1.00  0.00     0.136 C 
BRANCH  16  17
HETATM   17  N   UNL     1       8.074  30.989  59.564  1.00  0.00    -0.280 N 
HETATM   18  C   UNL     1       8.644  30.807  60.796  1.00  0.00     0.261 A 
HETATM   19  O   UNL     1       9.523  30.036  61.131  1.00  0.00    -0.267 OA
HETATM   20  C   UNL     1       8.009  31.770  61.693  1.00  0.00     0.048 A 
HETATM   21  C   UNL     1       7.111  32.509  60.944  1.00  0.00     0.048 A 
HETATM   22  C   UNL     1       8.196  31.999  63.042  1.00  0.00     0.018 A 
HETATM   23  C   UNL     1       7.173  32.018  59.569  1.00  0.00     0.261 A 
HETATM   24  C   UNL     1       6.350  33.518  61.501  1.00  0.00     0.018 A 
HETATM   25  O   UNL     1       6.533  32.492  58.650  1.00  0.00    -0.267 OA
HETATM   26  C   UNL     1       6.520  33.767  62.867  1.00  0.00     0.001 A 
HETATM   27  C   UNL     1       7.436  33.014  63.631  1.00  0.00     0.001 A 
ENDBRANCH  16  17
ENDBRANCH  15  16
ENDBRANCH  14  15
ENDBRANCH  11  14
ENDBRANCH   2  10
BRANCH   1  28
HETATM   28  C   UNL     1       6.885  25.348  53.625  1.00  0.00     0.255 C 
HETATM   29  N   UNL     1       5.545  25.592  53.715  1.00  0.00    -0.353 N 
HETATM   30  H   UNL     1       4.968  24.972  54.276  1.00  0.00     0.163 HD
HETATM   31  O   UNL     1       7.585  25.910  52.785  1.00  0.00    -0.268 OA
BRANCH  29  32
HETATM   32  C   UNL     1       4.870  26.544  52.868  1.00  0.00     0.161 C 
BRANCH  32  33
HETATM   33  C   UNL     1       4.474  27.807  53.587  1.00  0.00    -0.041 A 
HETATM   34  C   UNL     1       3.915  28.884  52.888  1.00  0.00     0.009 A 
HETATM   35  C   UNL     1       3.529  30.044  53.564  1.00  0.00     0.001 A 
HETATM   36  C   UNL     1       3.706  30.143  54.943  1.00  0.00     0.000 A 
HETATM   37  C   UNL     1       4.272  29.083  55.647  1.00  0.00     0.001 A 
HETATM   38  C   UNL     1       4.655  27.922  54.973  1.00  0.00     0.009 A 
ENDBRANCH  32  33
ENDBRANCH  29  32
ENDBRANCH   1  28
TORSDOF 8
ENDMDL
MODEL 3
REMARK VINA RESULT:     -10.3      4.407      8.893
REMARK  8 active torsions:
REMARK  status: ('A' for Active; 'I' for Inactive)
REMARK    1  A    between atoms: C_4  and  C_5 
REMARK    2  A    between atoms: C_5  and  N_6 
REMARK       I    between atoms: N_6  and  C_7 
REMARK    3  A    between atoms: C_7  and  C_8 
REMARK    4  A    between atoms: C_9  and  N_10 
REMARK       I    between atoms: N_10  and  C_11 
REMARK    5  A    between atoms: C_11  and  C_12 
REMARK    6  A    between atoms: C_12  and  C_13 
REMARK    7  A    between atoms: C_13  and  C_14 
REMARK    8  A    between atoms: C_14  and  N_15 
ROOT
HETATM    1  C   UNL     1       6.455  25.165  55.223  1.00  0.00     0.073 A 
HETATM    2  C   UNL     1       5.665  25.480  54.123  1.00  0.00     0.093 A 
HETATM    3  S   UNL     1       5.979  24.472  52.766  1.00  0.00    -0.075 SA
HETATM    4  C   UNL     1       7.103  23.546  53.612  1.00  0.00    -0.008 A 
HETATM    5  C   UNL     1       7.325  24.029  54.884  1.00  0.00    -0.026 A 
HETATM    6  C   UNL     1       8.345  23.379  55.790  1.00  0.00     0.041 C 
HETATM    7  C   UNL     1       9.285  22.429  55.028  1.00  0.00     0.005 C 
HETATM    8  C   UNL     1       8.520  21.542  54.042  1.00  0.00     0.005 C 
HETATM    9  C   UNL     1       7.804  22.385  52.979  1.00  0.00     0.047 C 
ENDROOT
BRANCH   2  10
HETATM   10  N   UNL     1       4.719  26.399  53.723  1.00  0.00    -0.320 N 
HETATM   11  C   UNL     1       4.723  27.764  53.878  1.00  0.00     0.222 C 
HETATM   12  O   UNL     1       5.535  28.420  54.515  1.00  0.00    -0.273 OA
HETATM   13  H   UNL     1       3.826  25.975  53.498  1.00  0.00     0.169 HD
BRANCH  11  14
HETATM   14  C   UNL     1       3.489  28.387  53.240  1.00  0.00     0.105 C 
BRANCH  14  15
HETATM   15  C   UNL     1       3.708  29.788  52.678  1.00  0.00     0.029 C 
BRANCH  15  16
HETATM   16  C   UNL     1       4.547  29.780  51.399  1.00  0.00     0.136 C 
BRANCH  16  17
HETATM   17  N   UNL     1       3.984  28.883  50.407  1.00  0.00    -0.280 N 
HETATM   18  C   UNL     1       2.929  29.211  49.599  1.00  0.00     0.261 A 
HETATM   19  O   UNL     1       2.279  30.239  49.561  1.00  0.00    -0.267 OA
HETATM   20  C   UNL     1       2.714  28.069  48.713  1.00  0.00     0.048 A 
HETATM   21  C   UNL     1       3.678  27.123  49.011  1.00  0.00     0.048 A 
HETATM   22  C   UNL     1       1.772  27.865  47.723  1.00  0.00     0.018 A 
HETATM   23  C   UNL     1       4.508  27.661  50.087  1.00  0.00     0.261 A 
HETATM   24  C   UNL     1       3.756  25.920  48.337  1.00  0.00     0.018 A 
HETATM   25  O   UNL     1       5.475  27.087  50.548  1.00  0.00    -0.267 OA
HETATM   26  C   UNL     1       2.811  25.689  47.331  1.00  0.00     0.001 A 
HETATM   27  C   UNL     1       1.828  26.654  47.027  1.00  0.00     0.001 A 
ENDBRANCH  16  17
ENDBRANCH  15  16
ENDBRANCH  14  15
ENDBRANCH  11  14
ENDBRANCH   2  10
BRANCH   1  28
HETATM   28  C   UNL     1       6.593  25.834  56.527  1.00  0.00     0.255 C 
HETATM   29  N   UNL     1       7.285  27.010  56.559  1.00  0.00    -0.353 N 
HETATM   30  H   UNL     1       7.921  27.228  55.797  1.00  0.00     0.163 HD
HETATM   31  O   UNL     1       6.001  25.409  57.518  1.00  0.00    -0.268 OA
BRANCH  29  32
HETATM   32  C   UNL     1       7.338  27.848  57.731  1.00  0.00     0.161 C 
BRANCH  32  33
HETATM   33  C   UNL     1       8.471  28.840  57.705  1.00  0.00    -0.041 A 
HETATM   34  C   UNL     1       9.531  28.693  56.801  1.00  0.00     0.009 A 
HETATM   35  C   UNL     1      10.568  29.629  56.766  1.00  0.00     0.001 A 
HETATM   36  C   UNL     1      10.560  30.715  57.640  1.00  0.00     0.000 A 
HETATM   37  C   UNL     1       9.518  30.865  58.551  1.00  0.00     0.001 A 
HETATM   38  C   UNL     1       8.481  29.932  58.584  1.00  0.00     0.009 A 
ENDBRANCH  32  33
ENDBRANCH  29  32
ENDBRANCH   1  28
TORSDOF 8
ENDMDL
MODEL 4
REMARK VINA RESULT:     -10.3      2.530      5.862
REMARK  8 active torsions:
REMARK  status: ('A' for Active; 'I' for Inactive)
REMARK    1  A    between atoms: C_4  and  C_5 
REMARK    2  A    between atoms: C_5  and  N_6 
REMARK       I    between atoms: N_6  and  C_7 
REMARK    3  A    between atoms: C_7  and  C_8 
REMARK    4  A    between atoms: C_9  and  N_10 
REMARK       I    between atoms: N_10  and  C_11 
REMARK    5  A    between atoms: C_11  and  C_12 
REMARK    6  A    between atoms: C_12  and  C_13 
REMARK    7  A    between atoms: C_13  and  C_14 
REMARK    8  A    between atoms: C_14  and  N_15 
ROOT
HETATM    1  C   UNL     1       6.281  31.449  58.083  1.00  0.00     0.073 A 
HETATM    2  C   UNL     1       6.243  30.340  57.245  1.00  0.00     0.093 A 
HETATM    3  S   UNL     1       4.887  30.349  56.188  1.00  0.00    -0.075 SA
HETATM    4  C   UNL     1       4.357  31.846  56.749  1.00  0.00    -0.008 A 
HETATM    5  C   UNL     1       5.130  32.317  57.789  1.00  0.00    -0.026 A 
HETATM    6  C   UNL     1       4.789  33.617  58.478  1.00  0.00     0.041 C 
HETATM    7  C   UNL     1       3.370  34.105  58.140  1.00  0.00     0.005 C 
HETATM    8  C   UNL     1       3.065  33.973  56.645  1.00  0.00     0.005 C 
HETATM    9  C   UNL     1       3.137  32.510  56.191  1.00  0.00     0.047 C 
ENDROOT
BRANCH   2  10
HETATM   10  N   UNL     1       6.923  29.165  57.007  1.00  0.00    -0.320 N 
HETATM   11  C   UNL     1       7.853  28.532  57.795  1.00  0.00     0.222 C 
HETATM   12  O   UNL     1       8.344  28.964  58.828  1.00  0.00    -0.273 OA
HETATM   13  H   UNL     1       6.885  28.877  56.035  1.00  0.00     0.169 HD
BRANCH  11  14
HETATM   14  C   UNL     1       8.313  27.230  57.153  1.00  0.00     0.105 C 
BRANCH  14  15
HETATM   15  C   UNL     1       7.452  26.765  55.983  1.00  0.00     0.029 C 
BRANCH  15  16
HETATM   16  C   UNL     1       6.612  25.533  56.328  1.00  0.00     0.136 C 
BRANCH  16  17
HETATM   17  N   UNL     1       7.132  24.345  55.676  1.00  0.00    -0.280 N 
HETATM   18  C   UNL     1       7.879  23.393  56.318  1.00  0.00     0.261 A 
HETATM   19  O   UNL     1       8.252  23.358  57.475  1.00  0.00    -0.267 OA
HETATM   20  C   UNL     1       8.147  22.345  55.335  1.00  0.00     0.048 A 
HETATM   21  C   UNL     1       7.515  22.705  54.159  1.00  0.00     0.048 A 
HETATM   22  C   UNL     1       8.867  21.172  55.448  1.00  0.00     0.018 A 
HETATM   23  C   UNL     1       6.843  23.982  54.390  1.00  0.00     0.261 A 
HETATM   24  C   UNL     1       7.567  21.913  53.028  1.00  0.00     0.018 A 
HETATM   25  O   UNL     1       6.159  24.549  53.560  1.00  0.00    -0.267 OA
HETATM   26  C   UNL     1       8.293  20.721  53.116  1.00  0.00     0.001 A 
HETATM   27  C   UNL     1       8.938  20.353  54.316  1.00  0.00     0.001 A 
ENDBRANCH  16  17
ENDBRANCH  15  16
ENDBRANCH  14  15
ENDBRANCH  11  14
ENDBRANCH   2  10
BRANCH   1  28
HETATM   28  C   UNL     1       7.184  31.778  59.197  1.00  0.00     0.255 C 
HETATM   29  N   UNL     1       6.843  31.323  60.438  1.00  0.00    -0.353 N 
HETATM   30  H   UNL     1       5.878  31.057  60.616  1.00  0.00     0.163 HD
HETATM   31  O   UNL     1       8.263  32.333  58.991  1.00  0.00    -0.268 OA
BRANCH  29  32
HETATM   32  C   UNL     1       7.727  31.424  61.573  1.00  0.00     0.161 C 
BRANCH  32  33
HETATM   33  C   UNL     1       7.125  32.172  62.733  1.00  0.00    -0.041 A 
HETATM   34  C   UNL     1       5.736  32.270  62.881  1.00  0.00     0.009 A 
HETATM   35  C   UNL     1       5.185  32.946  63.971  1.00  0.00     0.001 A 
HETATM   36  C   UNL     1       6.015  33.541  64.919  1.00  0.00     0.000 A 
HETATM   37  C   UNL     1       7.399  33.462  64.777  1.00  0.00     0.001 A 
HETATM   38  C   UNL     1       7.950  32.783  63.689  1.00  0.00     0.009 A 
ENDBRANCH  32  33
ENDBRANCH  29  32
ENDBRANCH   1  28
TORSDOF 8
ENDMDL
MODEL 5
REMARK VINA RESULT:     -10.0      2.948      9.316
REMARK  8 active torsions:
REMARK  status: ('A' for Active; 'I' for Inactive)
REMARK    1  A    between atoms: C_4  and  C_5 
REMARK    2  A    between atoms: C_5  and  N_6 
REMARK       I    between atoms: N_6  and  C_7 
REMARK    3  A    between atoms: C_7  and  C_8 
REMARK    4  A    between atoms: C_9  and  N_10 
REMARK       I    between atoms: N_10  and  C_11 
REMARK    5  A    between atoms: C_11  and  C_12 
REMARK    6  A    between atoms: C_12  and  C_13 
REMARK    7  A    between atoms: C_13  and  C_14 
REMARK    8  A    between atoms: C_14  and  N_15 
ROOT
HETATM    1  C   UNL     1       6.474  26.586  53.123  1.00  0.00     0.073 A 
HETATM    2  C   UNL     1       6.386  27.406  54.242  1.00  0.00     0.093 A 
HETATM    3  S   UNL     1       5.351  28.757  54.000  1.00  0.00    -0.075 SA
HETATM    4  C   UNL     1       4.929  28.258  52.448  1.00  0.00    -0.008 A 
HETATM    5  C   UNL     1       5.620  27.130  52.056  1.00  0.00    -0.026 A 
HETATM    6  C   UNL     1       5.435  26.552  50.673  1.00  0.00     0.041 C 
HETATM    7  C   UNL     1       4.722  27.527  49.721  1.00  0.00     0.005 C 
HETATM    8  C   UNL     1       3.523  28.203  50.392  1.00  0.00     0.005 C 
HETATM    9  C   UNL     1       3.961  29.030  51.606  1.00  0.00     0.047 C 
ENDROOT
BRANCH   2  10
HETATM   10  N   UNL     1       6.916  27.535  55.509  1.00  0.00    -0.320 N 
HETATM   11  C   UNL     1       7.953  28.329  55.933  1.00  0.00     0.222 C 
HETATM   12  O   UNL     1       8.689  29.002  55.225  1.00  0.00    -0.273 OA
HETATM   13  H   UNL     1       6.643  26.781  56.129  1.00  0.00     0.169 HD
BRANCH  11  14
HETATM   14  C   UNL     1       8.170  28.184  57.433  1.00  0.00     0.105 C 
BRANCH  14  15
HETATM   15  C   UNL     1       7.682  29.370  58.259  1.00  0.00     0.029 C 
BRANCH  15  16
HETATM   16  C   UNL     1       8.834  30.220  58.798  1.00  0.00     0.136 C 
BRANCH  16  17
HETATM   17  N   UNL     1       8.401  31.044  59.912  1.00  0.00    -0.280 N 
HETATM   18  C   UNL     1       7.462  32.034  59.803  1.00  0.00     0.261 A 
HETATM   19  O   UNL     1       6.855  32.415  58.819  1.00  0.00    -0.267 OA
HETATM   20  C   UNL     1       7.270  32.573  61.147  1.00  0.00     0.048 A 
HETATM   21  C   UNL     1       8.081  31.853  62.005  1.00  0.00     0.048 A 
HETATM   22  C   UNL     1       6.456  33.594  61.597  1.00  0.00     0.018 A 
HETATM   23  C   UNL     1       8.790  30.853  61.209  1.00  0.00     0.261 A 
HETATM   24  C   UNL     1       8.125  32.111  63.361  1.00  0.00     0.018 A 
HETATM   25  O   UNL     1       9.551  30.029  61.677  1.00  0.00    -0.267 OA
HETATM   26  C   UNL     1       7.311  33.142  63.841  1.00  0.00     0.001 A 
HETATM   27  C   UNL     1       6.483  33.878  62.967  1.00  0.00     0.001 A 
ENDBRANCH  16  17
ENDBRANCH  15  16
ENDBRANCH  14  15
ENDBRANCH  11  14
ENDBRANCH   2  10
BRANCH   1  28
HETATM   28  C   UNL     1       7.319  25.410  52.860  1.00  0.00     0.255 C 
HETATM   29  N   UNL     1       6.851  24.196  53.272  1.00  0.00    -0.353 N 
HETATM   30  H   UNL     1       6.128  24.164  53.985  1.00  0.00     0.163 HD
HETATM   31  O   UNL     1       8.344  25.508  52.187  1.00  0.00    -0.268 OA
BRANCH  29  32
HETATM   32  C   UNL     1       7.494  22.955  52.919  1.00  0.00     0.161 C 
BRANCH  32  33
HETATM   33  C   UNL     1       7.897  22.131  54.113  1.00  0.00    -0.041 A 
HETATM   34  C   UNL     1       7.926  22.693  55.395  1.00  0.00     0.009 A 
HETATM   35  C   UNL     1       8.280  21.918  56.502  1.00  0.00     0.001 A 
HETATM   36  C   UNL     1       8.618  20.576  56.337  1.00  0.00     0.000 A 
HETATM   37  C   UNL     1       8.605  20.008  55.066  1.00  0.00     0.001 A 
HETATM   38  C   UNL     1       8.248  20.782  53.960  1.00  0.00     0.009 A 
ENDBRANCH  32  33
ENDBRANCH  29  32
ENDBRANCH   1  28
TORSDOF 8
ENDMDL
MODEL 6
REMARK VINA RESULT:      -9.9      2.957      9.349
REMARK  8 active torsions:
REMARK  status: ('A' for Active; 'I' for Inactive)
REMARK    1  A    between atoms: C_4  and  C_5 
REMARK    2  A    between atoms: C_5  and  N_6 
REMARK       I    between atoms: N_6  and  C_7 
REMARK    3  A    between atoms: C_7  and  C_8 
REMARK    4  A    between atoms: C_9  and  N_10 
REMARK       I    between atoms: N_10  and  C_11 
REMARK    5  A    between atoms: C_11  and  C_12 
REMARK    6  A    between atoms: C_12  and  C_13 
REMARK    7  A    between atoms: C_13  and  C_14 
REMARK    8  A    between atoms: C_14  and  N_15 
ROOT
HETATM    1  C   UNL     1       5.646  26.924  53.993  1.00  0.00     0.073 A 
HETATM    2  C   UNL     1       5.633  28.247  54.419  1.00  0.00     0.093 A 
HETATM    3  S   UNL     1       5.210  29.347  53.168  1.00  0.00    -0.075 SA
HETATM    4  C   UNL     1       4.956  28.109  52.054  1.00  0.00    -0.008 A 
HETATM    5  C   UNL     1       5.269  26.869  52.572  1.00  0.00    -0.026 A 
HETATM    6  C   UNL     1       5.170  25.628  51.717  1.00  0.00     0.041 C 
HETATM    7  C   UNL     1       5.051  25.955  50.219  1.00  0.00     0.005 C 
HETATM    8  C   UNL     1       4.059  27.094  49.963  1.00  0.00     0.005 C 
HETATM    9  C   UNL     1       4.510  28.387  50.653  1.00  0.00     0.047 C 
ENDROOT
BRANCH   2  10
HETATM   10  N   UNL     1       5.911  29.006  55.536  1.00  0.00    -0.320 N 
HETATM   11  C   UNL     1       7.052  29.032  56.299  1.00  0.00     0.222 C 
HETATM   12  O   UNL     1       8.016  28.287  56.189  1.00  0.00    -0.273 OA
HETATM   13  H   UNL     1       5.080  29.410  55.955  1.00  0.00     0.169 HD
BRANCH  11  14
HETATM   14  C   UNL     1       6.935  30.058  57.417  1.00  0.00     0.105 C 
BRANCH  14  15
HETATM   15  C   UNL     1       7.786  29.752  58.646  1.00  0.00     0.029 C 
BRANCH  15  16
HETATM   16  C   UNL     1       8.677  30.929  59.048  1.00  0.00     0.136 C 
BRANCH  16  17
HETATM   17  N   UNL     1       8.155  31.604  60.223  1.00  0.00    -0.280 N 
HETATM   18  C   UNL     1       8.713  31.499  61.468  1.00  0.00     0.261 A 
HETATM   19  O   UNL     1       9.677  30.849  61.828  1.00  0.00    -0.267 OA
HETATM   20  C   UNL     1       7.934  32.370  62.346  1.00  0.00     0.048 A 
HETATM   21  C   UNL     1       6.967  32.985  61.572  1.00  0.00     0.048 A 
HETATM   22  C   UNL     1       8.055  32.621  63.699  1.00  0.00     0.018 A 
HETATM   23  C   UNL     1       7.128  32.506  60.201  1.00  0.00     0.261 A 
HETATM   24  C   UNL     1       6.066  33.885  62.106  1.00  0.00     0.018 A 
HETATM   25  O   UNL     1       6.455  32.892  59.264  1.00  0.00    -0.267 OA
HETATM   26  C   UNL     1       6.167  34.155  63.474  1.00  0.00     0.001 A 
HETATM   27  C   UNL     1       7.153  33.528  64.265  1.00  0.00     0.001 A 
ENDBRANCH  16  17
ENDBRANCH  15  16
ENDBRANCH  14  15
ENDBRANCH  11  14
ENDBRANCH   2  10
BRANCH   1  28
HETATM   28  C   UNL     1       6.056  25.695  54.692  1.00  0.00     0.255 C 
HETATM   29  N   UNL     1       7.392  25.417  54.741  1.00  0.00    -0.353 N 
HETATM   30  H   UNL     1       8.012  25.862  54.070  1.00  0.00     0.163 HD
HETATM   31  O   UNL     1       5.236  25.018  55.310  1.00  0.00    -0.268 OA
BRANCH  29  32
HETATM   32  C   UNL     1       7.934  24.348  55.543  1.00  0.00     0.161 C 
BRANCH  32  33
HETATM   33  C   UNL     1       7.953  23.021  54.832  1.00  0.00    -0.041 A 
HETATM   34  C   UNL     1       7.921  21.821  55.553  1.00  0.00     0.009 A 
HETATM   35  C   UNL     1       7.917  20.593  54.888  1.00  0.00     0.001 A 
HETATM   36  C   UNL     1       7.955  20.551  53.495  1.00  0.00     0.000 A 
HETATM   37  C   UNL     1       8.000  21.737  52.767  1.00  0.00     0.001 A 
HETATM   38  C   UNL     1       8.000  22.965  53.432  1.00  0.00     0.009 A 
ENDBRANCH  32  33
ENDBRANCH  29  32
ENDBRANCH   1  28
TORSDOF 8
ENDMDL
MODEL 7
REMARK VINA RESULT:      -9.7      3.254      8.879
REMARK  8 active torsions:
REMARK  status: ('A' for Active; 'I' for Inactive)
REMARK    1  A    between atoms: C_4  and  C_5 
REMARK    2  A    between atoms: C_5  and  N_6 
REMARK       I    between atoms: N_6  and  C_7 
REMARK    3  A    between atoms: C_7  and  C_8 
REMARK    4  A    between atoms: C_9  and  N_10 
REMARK       I    between atoms: N_10  and  C_11 
REMARK    5  A    between atoms: C_11  and  C_12 
REMARK    6  A    between atoms: C_12  and  C_13 
REMARK    7  A    between atoms: C_13  and  C_14 
REMARK    8  A    between atoms: C_14  and  N_15 
ROOT
HETATM    1  C   UNL     1       6.571  25.132  53.971  1.00  0.00     0.073 A 
HETATM    2  C   UNL     1       6.878  25.861  55.115  1.00  0.00     0.093 A 
HETATM    3  S   UNL     1       7.997  25.054  56.140  1.00  0.00    -0.075 SA
HETATM    4  C   UNL     1       8.169  23.763  55.072  1.00  0.00    -0.008 A 
HETATM    5  C   UNL     1       7.330  23.872  53.982  1.00  0.00    -0.026 A 
HETATM    6  C   UNL     1       7.283  22.787  52.932  1.00  0.00     0.041 C 
HETATM    7  C   UNL     1       7.958  21.487  53.402  1.00  0.00     0.005 C 
HETATM    8  C   UNL     1       9.291  21.760  54.104  1.00  0.00     0.005 C 
HETATM    9  C   UNL     1       9.090  22.619  55.359  1.00  0.00     0.047 C 
ENDROOT
BRANCH   2  10
HETATM   10  N   UNL     1       6.528  27.031  55.754  1.00  0.00    -0.320 N 
HETATM   11  C   UNL     1       7.074  28.284  55.618  1.00  0.00     0.222 C 
HETATM   12  O   UNL     1       8.068  28.577  54.969  1.00  0.00    -0.273 OA
HETATM   13  H   UNL     1       5.958  26.876  56.578  1.00  0.00     0.169 HD
BRANCH  11  14
HETATM   14  C   UNL     1       6.342  29.293  56.492  1.00  0.00     0.105 C 
BRANCH  14  15
HETATM   15  C   UNL     1       6.901  29.426  57.905  1.00  0.00     0.029 C 
BRANCH  15  16
HETATM   16  C   UNL     1       7.890  30.586  58.037  1.00  0.00     0.136 C 
BRANCH  16  17
HETATM   17  N   UNL     1       7.743  31.258  59.315  1.00  0.00    -0.280 N 
HETATM   18  C   UNL     1       6.834  32.254  59.548  1.00  0.00     0.261 A 
HETATM   19  O   UNL     1       6.034  32.761  58.784  1.00  0.00    -0.267 OA
HETATM   20  C   UNL     1       6.966  32.614  60.959  1.00  0.00     0.048 A 
HETATM   21  C   UNL     1       7.927  31.787  61.512  1.00  0.00     0.048 A 
HETATM   22  C   UNL     1       6.305  33.568  61.707  1.00  0.00     0.018 A 
HETATM   23  C   UNL     1       8.408  30.899  60.455  1.00  0.00     0.261 A 
HETATM   24  C   UNL     1       8.282  31.866  62.844  1.00  0.00     0.018 A 
HETATM   25  O   UNL     1       9.229  30.020  60.629  1.00  0.00    -0.267 OA
HETATM   26  C   UNL     1       7.628  32.826  63.623  1.00  0.00     0.001 A 
HETATM   27  C   UNL     1       6.648  33.670  63.060  1.00  0.00     0.001 A 
ENDBRANCH  16  17
ENDBRANCH  15  16
ENDBRANCH  14  15
ENDBRANCH  11  14
ENDBRANCH   2  10
BRANCH   1  28
HETATM   28  C   UNL     1       5.593  25.391  52.903  1.00  0.00     0.255 C 
HETATM   29  N   UNL     1       6.006  26.144  51.842  1.00  0.00    -0.353 N 
HETATM   30  H   UNL     1       6.823  26.738  51.949  1.00  0.00     0.163 HD
HETATM   31  O   UNL     1       4.490  24.845  52.912  1.00  0.00    -0.268 OA
BRANCH  29  32
HETATM   32  C   UNL     1       5.206  26.319  50.655  1.00  0.00     0.161 C 
BRANCH  32  33
HETATM   33  C   UNL     1       5.227  27.728  50.124  1.00  0.00    -0.041 A 
HETATM   34  C   UNL     1       5.487  28.811  50.973  1.00  0.00     0.009 A 
HETATM   35  C   UNL     1       5.527  30.113  50.470  1.00  0.00     0.001 A 
HETATM   36  C   UNL     1       5.298  30.348  49.116  1.00  0.00     0.000 A 
HETATM   37  C   UNL     1       5.027  29.281  48.263  1.00  0.00     0.001 A 
HETATM   38  C   UNL     1       4.990  27.979  48.765  1.00  0.00     0.009 A 
ENDBRANCH  32  33
ENDBRANCH  29  32
ENDBRANCH   1  28
TORSDOF 8
ENDMDL
MODEL 8
REMARK VINA RESULT:      -9.4      1.901      4.168
REMARK  8 active torsions:
REMARK  status: ('A' for Active; 'I' for Inactive)
REMARK    1  A    between atoms: C_4  and  C_5 
REMARK    2  A    between atoms: C_5  and  N_6 
REMARK       I    between atoms: N_6  and  C_7 
REMARK    3  A    between atoms: C_7  and  C_8 
REMARK    4  A    between atoms: C_9  and  N_10 
REMARK       I    between atoms: N_10  and  C_11 
REMARK    5  A    between atoms: C_11  and  C_12 
REMARK    6  A    between atoms: C_12  and  C_13 
REMARK    7  A    between atoms: C_13  and  C_14 
REMARK    8  A    between atoms: C_14  and  N_15 
ROOT
HETATM    1  C   UNL     1       6.547  32.302  61.692  1.00  0.00     0.073 A 
HETATM    2  C   UNL     1       5.297  32.199  61.094  1.00  0.00     0.093 A 
HETATM    3  S   UNL     1       4.031  32.803  62.087  1.00  0.00    -0.075 SA
HETATM    4  C   UNL     1       5.099  33.287  63.295  1.00  0.00    -0.008 A 
HETATM    5  C   UNL     1       6.401  32.926  63.016  1.00  0.00    -0.026 A 
HETATM    6  C   UNL     1       7.510  33.212  64.001  1.00  0.00     0.041 C 
HETATM    7  C   UNL     1       6.976  33.584  65.394  1.00  0.00     0.005 C 
HETATM    8  C   UNL     1       5.808  34.570  65.310  1.00  0.00     0.005 C 
HETATM    9  C   UNL     1       4.626  33.965  64.543  1.00  0.00     0.047 C 
ENDROOT
BRANCH   2  10
HETATM   10  N   UNL     1       4.702  31.706  59.952  1.00  0.00    -0.320 N 
HETATM   11  C   UNL     1       5.079  31.874  58.642  1.00  0.00     0.222 C 
HETATM   12  O   UNL     1       5.970  32.604  58.230  1.00  0.00    -0.273 OA
HETATM   13  H   UNL     1       3.755  31.379  60.110  1.00  0.00     0.169 HD
BRANCH  11  14
HETATM   14  C   UNL     1       4.151  31.109  57.707  1.00  0.00     0.105 C 
BRANCH  14  15
HETATM   15  C   UNL     1       4.868  30.270  56.654  1.00  0.00     0.029 C 
BRANCH  15  16
HETATM   16  C   UNL     1       4.016  29.100  56.160  1.00  0.00     0.136 C 
BRANCH  16  17
HETATM   17  N   UNL     1       4.828  28.114  55.472  1.00  0.00    -0.280 N 
HETATM   18  C   UNL     1       5.262  28.255  54.181  1.00  0.00     0.261 A 
HETATM   19  O   UNL     1       5.054  29.159  53.394  1.00  0.00    -0.267 OA
HETATM   20  C   UNL     1       6.091  27.087  53.892  1.00  0.00     0.048 A 
HETATM   21  C   UNL     1       6.144  26.318  55.041  1.00  0.00     0.048 A 
HETATM   22  C   UNL     1       6.755  26.721  52.738  1.00  0.00     0.018 A 
HETATM   23  C   UNL     1       5.348  26.995  56.063  1.00  0.00     0.261 A 
HETATM   24  C   UNL     1       6.862  25.140  55.101  1.00  0.00     0.018 A 
HETATM   25  O   UNL     1       5.229  26.595  57.205  1.00  0.00    -0.267 OA
HETATM   26  C   UNL     1       7.542  24.747  53.944  1.00  0.00     0.001 A 
HETATM   27  C   UNL     1       7.490  25.531  52.772  1.00  0.00     0.001 A 
ENDBRANCH  16  17
ENDBRANCH  15  16
ENDBRANCH  14  15
ENDBRANCH  11  14
ENDBRANCH   2  10
BRANCH   1  28
HETATM   28  C   UNL     1       7.864  31.812  61.252  1.00  0.00     0.255 C 
HETATM   29  N   UNL     1       8.266  32.141  59.990  1.00  0.00    -0.353 N 
HETATM   30  H   UNL     1       7.568  32.428  59.310  1.00  0.00     0.163 HD
HETATM   31  O   UNL     1       8.616  31.237  62.037  1.00  0.00    -0.268 OA
BRANCH  29  32
HETATM   32  C   UNL     1       9.599  31.877  59.506  1.00  0.00     0.161 C 
BRANCH  32  33
HETATM   33  C   UNL     1       9.651  30.788  58.467  1.00  0.00    -0.041 A 
HETATM   34  C   UNL     1       8.561  29.931  58.272  1.00  0.00     0.009 A 
HETATM   35  C   UNL     1       8.608  28.937  57.291  1.00  0.00     0.001 A 
HETATM   36  C   UNL     1       9.746  28.784  56.503  1.00  0.00     0.000 A 
HETATM   37  C   UNL     1      10.841  29.623  56.695  1.00  0.00     0.001 A 
HETATM   38  C   UNL     1      10.794  30.618  57.672  1.00  0.00     0.009 A 
ENDBRANCH  32  33
ENDBRANCH  29  32
ENDBRANCH   1  28
TORSDOF 8
ENDMDL
MODEL 9
REMARK VINA RESULT:      -9.4      1.964      4.429
REMARK  8 active torsions:
REMARK  status: ('A' for Active; 'I' for Inactive)
REMARK    1  A    between atoms: C_4  and  C_5 
REMARK    2  A    between atoms: C_5  and  N_6 
REMARK       I    between atoms: N_6  and  C_7 
REMARK    3  A    between atoms: C_7  and  C_8 
REMARK    4  A    between atoms: C_9  and  N_10 
REMARK       I    between atoms: N_10  and  C_11 
REMARK    5  A    between atoms: C_11  and  C_12 
REMARK    6  A    between atoms: C_12  and  C_13 
REMARK    7  A    between atoms: C_13  and  C_14 
REMARK    8  A    between atoms: C_14  and  N_15 
ROOT
HETATM    1  C   UNL     1       7.531  30.953  58.970  1.00  0.00     0.073 A 
HETATM    2  C   UNL     1       6.395  31.538  58.423  1.00  0.00     0.093 A 
HETATM    3  S   UNL     1       5.557  32.541  59.539  1.00  0.00    -0.075 SA
HETATM    4  C   UNL     1       6.707  32.297  60.745  1.00  0.00    -0.008 A 
HETATM    5  C   UNL     1       7.680  31.397  60.364  1.00  0.00    -0.026 A 
HETATM    6  C   UNL     1       8.774  30.990  61.323  1.00  0.00     0.041 C 
HETATM    7  C   UNL     1       8.461  31.392  62.775  1.00  0.00     0.005 C 
HETATM    8  C   UNL     1       7.911  32.817  62.864  1.00  0.00     0.005 C 
HETATM    9  C   UNL     1       6.597  32.954  62.086  1.00  0.00     0.047 C 
ENDROOT
BRANCH   2  10
HETATM   10  N   UNL     1       5.655  31.538  57.259  1.00  0.00    -0.320 N 
HETATM   11  C   UNL     1       4.754  30.604  56.810  1.00  0.00     0.222 C 
HETATM   12  O   UNL     1       4.516  29.519  57.322  1.00  0.00    -0.273 OA
HETATM   13  H   UNL     1       6.006  32.193  56.569  1.00  0.00     0.169 HD
BRANCH  11  14
HETATM   14  C   UNL     1       4.138  31.036  55.486  1.00  0.00     0.105 C 
BRANCH  14  15
HETATM   15  C   UNL     1       3.822  29.889  54.533  1.00  0.00     0.029 C 
BRANCH  15  16
HETATM   16  C   UNL     1       4.816  29.801  53.373  1.00  0.00     0.136 C 
BRANCH  16  17
HETATM   17  N   UNL     1       5.321  28.450  53.216  1.00  0.00    -0.280 N 
HETATM   18  C   UNL     1       6.628  28.099  53.427  1.00  0.00     0.261 A 
HETATM   19  O   UNL     1       7.571  28.798  53.744  1.00  0.00    -0.267 OA
HETATM   20  C   UNL     1       6.706  26.653  53.225  1.00  0.00     0.048 A 
HETATM   21  C   UNL     1       5.431  26.202  52.939  1.00  0.00     0.048 A 
HETATM   22  C   UNL     1       7.786  25.795  53.294  1.00  0.00     0.018 A 
HETATM   23  C   UNL     1       4.538  27.359  52.957  1.00  0.00     0.261 A 
HETATM   24  C   UNL     1       5.162  24.868  52.704  1.00  0.00     0.018 A 
HETATM   25  O   UNL     1       3.336  27.291  52.785  1.00  0.00    -0.267 OA
HETATM   26  C   UNL     1       6.240  23.979  52.766  1.00  0.00     0.001 A 
HETATM   27  C   UNL     1       7.541  24.438  53.058  1.00  0.00     0.001 A 
ENDBRANCH  16  17
ENDBRANCH  15  16
ENDBRANCH  14  15
ENDBRANCH  11  14
ENDBRANCH   2  10
BRANCH   1  28
HETATM   28  C   UNL     1       8.458  29.954  58.414  1.00  0.00     0.255 C 
HETATM   29  N   UNL     1       7.944  28.731  58.094  1.00  0.00    -0.353 N 
HETATM   30  H   UNL     1       7.063  28.443  58.511  1.00  0.00     0.163 HD
HETATM   31  O   UNL     1       9.617  30.256  58.135  1.00  0.00    -0.268 OA
BRANCH  29  32
HETATM   32  C   UNL     1       8.701  27.732  57.381  1.00  0.00     0.161 C 
BRANCH  32  33
HETATM   33  C   UNL     1       7.903  26.496  57.058  1.00  0.00    -0.041 A 
HETATM   34  C   UNL     1       8.524  25.244  56.973  1.00  0.00     0.009 A 
HETATM   35  C   UNL     1       7.775  24.098  56.696  1.00  0.00     0.001 A 
HETATM   36  C   UNL     1       6.399  24.193  56.491  1.00  0.00     0.000 A 
HETATM   37  C   UNL     1       5.772  25.435  56.561  1.00  0.00     0.001 A 
HETATM   38  C   UNL     1       6.520  26.579  56.841  1.00  0.00     0.009 A 
ENDBRANCH  32  33
ENDBRANCH  29  32
ENDBRANCH   1  28
TORSDOF 8
ENDMDL
MODEL 10
REMARK VINA RESULT:      -9.3      2.462      4.892
REMARK  8 active torsions:
REMARK  status: ('A' for Active; 'I' for Inactive)
REMARK    1  A    between atoms: C_4  and  C_5 
REMARK    2  A    between atoms: C_5  and  N_6 
REMARK       I    between atoms: N_6  and  C_7 
REMARK    3  A    between atoms: C_7  and  C_8 
REMARK    4  A    between atoms: C_9  and  N_10 
REMARK       I    between atoms: N_10  and  C_11 
REMARK    5  A    between atoms: C_11  and  C_12 
REMARK    6  A    between atoms: C_12  and  C_13 
REMARK    7  A    between atoms: C_13  and  C_14 
REMARK    8  A    between atoms: C_14  and  N_15 
ROOT
HETATM    1  C   UNL     1       6.491  31.563  58.915  1.00  0.00     0.073 A 
HETATM    2  C   UNL     1       7.095  30.599  58.116  1.00  0.00     0.093 A 
HETATM    3  S   UNL     1       8.474  29.889  58.857  1.00  0.00    -0.075 SA
HETATM    4  C   UNL     1       8.267  30.771  60.276  1.00  0.00    -0.008 A 
HETATM    5  C   UNL     1       7.225  31.669  60.185  1.00  0.00    -0.026 A 
HETATM    6  C   UNL     1       6.907  32.604  61.329  1.00  0.00     0.041 C 
HETATM    7  C   UNL     1       8.044  32.671  62.364  1.00  0.00     0.005 C 
HETATM    8  C   UNL     1       8.595  31.281  62.693  1.00  0.00     0.005 C 
HETATM    9  C   UNL     1       9.185  30.609  61.448  1.00  0.00     0.047 C 
ENDROOT
BRANCH   2  10
HETATM   10  N   UNL     1       6.989  30.041  56.860  1.00  0.00    -0.320 N 
HETATM   11  C   UNL     1       6.358  28.881  56.482  1.00  0.00     0.222 C 
HETATM   12  O   UNL     1       5.856  28.052  57.226  1.00  0.00    -0.273 OA
HETATM   13  H   UNL     1       7.654  30.428  56.199  1.00  0.00     0.169 HD
BRANCH  11  14
HETATM   14  C   UNL     1       6.458  28.675  54.976  1.00  0.00     0.105 C 
BRANCH  14  15
HETATM   15  C   UNL     1       7.237  27.431  54.560  1.00  0.00     0.029 C 
BRANCH  15  16
HETATM   16  C   UNL     1       6.382  26.446  53.762  1.00  0.00     0.136 C 
BRANCH  16  17
HETATM   17  N   UNL     1       6.874  25.088  53.908  1.00  0.00    -0.280 N 
HETATM   18  C   UNL     1       6.756  24.358  55.060  1.00  0.00     0.261 A 
HETATM   19  O   UNL     1       6.271  24.680  56.129  1.00  0.00    -0.267 OA
HETATM   20  C   UNL     1       7.315  23.038  54.774  1.00  0.00     0.048 A 
HETATM   21  C   UNL     1       7.708  23.030  53.448  1.00  0.00     0.048 A 
HETATM   22  C   UNL     1       7.463  21.931  55.586  1.00  0.00     0.018 A 
HETATM   23  C   UNL     1       7.401  24.345  52.888  1.00  0.00     0.261 A 
HETATM   24  C   UNL     1       8.272  21.916  52.859  1.00  0.00     0.018 A 
HETATM   25  O   UNL     1       7.587  24.646  51.725  1.00  0.00    -0.267 OA
HETATM   26  C   UNL     1       8.434  20.782  53.661  1.00  0.00     0.001 A 
HETATM   27  C   UNL     1       8.033  20.789  55.014  1.00  0.00     0.001 A 
ENDBRANCH  16  17
ENDBRANCH  15  16
ENDBRANCH  14  15
ENDBRANCH  11  14
ENDBRANCH   2  10
BRANCH   1  28
HETATM   28  C   UNL     1       5.376  32.481  58.631  1.00  0.00     0.255 C 
HETATM   29  N   UNL     1       4.253  32.360  59.397  1.00  0.00    -0.353 N 
HETATM   30  H   UNL     1       4.092  31.493  59.901  1.00  0.00     0.163 HD
HETATM   31  O   UNL     1       5.505  33.398  57.821  1.00  0.00    -0.268 OA
BRANCH  29  32
HETATM   32  C   UNL     1       3.167  33.308  59.340  1.00  0.00     0.161 C 
BRANCH  32  33
HETATM   33  C   UNL     1       3.174  34.292  60.481  1.00  0.00    -0.041 A 
HETATM   34  C   UNL     1       3.343  35.662  60.246  1.00  0.00     0.009 A 
HETATM   35  C   UNL     1       3.325  36.571  61.306  1.00  0.00     0.001 A 
HETATM   36  C   UNL     1       3.149  36.119  62.613  1.00  0.00     0.000 A 
HETATM   37  C   UNL     1       2.992  34.758  62.861  1.00  0.00     0.001 A 
HETATM   38  C   UNL     1       3.006  33.850  61.801  1.00  0.00     0.009 A 
ENDBRANCH  32  33
ENDBRANCH  29  32
ENDBRANCH   1  28
TORSDOF 8
ENDMDL
