MODEL 1
REMARK VINA RESULT:     -10.1      0.000      0.000
REMARK  6 active torsions:
REMARK  status: ('A' for Active; 'I' for Inactive)
REMARK    1  A    between atoms: C_4  and  C_5 
REMARK    2  A    between atoms: C_5  and  N_6 
REMARK    3  A    between atoms: N_10  and  N_11 
REMARK       I    between atoms: N_11  and  C_12 
REMARK    4  A    between atoms: C_12  and  C_13 
REMARK       I    between atoms: C_13  and  N_14 
REMARK    5  A    between atoms: N_14  and  C_15 
REMARK    6  A    between atoms: C_18  and  O_19 
ROOT
HETATM    1  N   UNL     1       6.281  29.109  57.150  1.00  0.00    -0.307 N 
HETATM    2  C   UNL     1       5.922  28.098  56.276  1.00  0.00     0.280 A 
HETATM    3  O   UNL     1       6.263  26.933  56.232  1.00  0.00    -0.265 OA
HETATM    4  C   UNL     1       4.936  28.731  55.297  1.00  0.00     0.157 A 
HETATM    5  N   UNL     1       4.326  28.188  54.292  1.00  0.00    -0.165 NA
HETATM    6  C   UNL     1       4.796  30.121  55.708  1.00  0.00     0.027 A 
HETATM    7  C   UNL     1       5.625  30.307  56.816  1.00  0.00     0.050 A 
HETATM    8  C   UNL     1       4.020  31.128  55.168  1.00  0.00     0.016 A 
HETATM    9  C   UNL     1       4.089  32.379  55.781  1.00  0.00     0.001 A 
HETATM   10  C   UNL     1       4.920  32.585  56.899  1.00  0.00     0.002 A 
HETATM   11  C   UNL     1       5.697  31.544  57.426  1.00  0.00     0.031 A 
ENDROOT
BRANCH   5  12
HETATM   12  N   UNL     1       4.591  26.872  54.045  1.00  0.00    -0.238 N 
HETATM   13  C   UNL     1       5.470  26.514  53.042  1.00  0.00     0.329 C 
HETATM   14  O   UNL     1       6.064  27.249  52.259  1.00  0.00    -0.261 OA
HETATM   15  H   UNL     1       4.177  26.135  54.627  1.00  0.00     0.192 HD
BRANCH  13  16
HETATM   16  C   UNL     1       5.712  24.997  52.963  1.00  0.00     0.315 C 
HETATM   17  N   UNL     1       6.815  24.620  53.699  1.00  0.00    -0.319 N 
HETATM   18  H   UNL     1       7.294  25.395  54.154  1.00  0.00     0.169 HD
HETATM   19  O   UNL     1       4.946  24.303  52.310  1.00  0.00    -0.262 OA
BRANCH  17  20
HETATM   20  C   UNL     1       7.321  23.327  53.906  1.00  0.00     0.035 A 
HETATM   21  C   UNL     1       7.782  22.501  52.878  1.00  0.00     0.032 A 
HETATM   22  C   UNL     1       8.260  21.216  53.163  1.00  0.00     0.039 A 
HETATM   23  C   UNL     1       8.275  20.763  54.476  1.00  0.00     0.065 A 
HETATM   24  C   UNL     1       7.824  21.572  55.509  1.00  0.00     0.039 A 
HETATM   25  C   UNL     1       7.347  22.854  55.224  1.00  0.00     0.032 A 
BRANCH  23  26
HETATM   26  O   UNL     1       8.728  19.518  54.795  1.00  0.00    -0.361 OA
HETATM   27  H   UNL     1       7.963  18.948  54.979  1.00  0.00     0.217 HD
ENDBRANCH  23  26
ENDBRANCH  17  20
ENDBRANCH  13  16
ENDBRANCH   5  12
BRANCH   1  28
HETATM   28  C   UNL     1       7.222  28.935  58.231  1.00  0.00     0.171 C 
BRANCH  28  29
HETATM   29  C   UNL     1       8.590  29.488  57.909  1.00  0.00    -0.040 A 
HETATM   30  C   UNL     1       9.446  28.826  57.016  1.00  0.00     0.009 A 
HETATM   31  C   UNL     1      10.706  29.350  56.722  1.00  0.00     0.001 A 
HETATM   32  C   UNL     1      11.128  30.537  57.317  1.00  0.00     0.000 A 
HETATM   33  C   UNL     1      10.289  31.202  58.208  1.00  0.00     0.001 A 
HETATM   34  C   UNL     1       9.030  30.681  58.504  1.00  0.00     0.009 A 
ENDBRANCH  28  29
ENDBRANCH   1  28
TORSDOF 6
ENDMDL
MODEL 2
REMARK VINA RESULT:      -9.9      2.123      3.054
REMARK  6 active torsions:
REMARK  status: ('A' for Active; 'I' for Inactive)
REMARK    1  A    between atoms: C_4  and  C_5 
REMARK    2  A    between atoms: C_5  and  N_6 
REMARK    3  A    between atoms: N_10  and  N_11 
REMARK       I    between atoms: N_11  and  C_12 
REMARK    4  A    between atoms: C_12  and  C_13 
REMARK       I    between atoms: C_13  and  N_14 
REMARK    5  A    between atoms: N_14  and  C_15 
REMARK    6  A    between atoms: C_18  and  O_19 
ROOT
HETATM    1  N   UNL     1       7.222  30.705  58.279  1.00  0.00    -0.307 N 
HETATM    2  C   UNL     1       7.127  29.376  57.905  1.00  0.00     0.280 A 
HETATM    3  O   UNL     1       7.941  28.477  57.964  1.00  0.00    -0.265 OA
HETATM    4  C   UNL     1       5.707  29.200  57.368  1.00  0.00     0.157 A 
HETATM    5  N   UNL     1       5.144  28.135  56.894  1.00  0.00    -0.165 NA
HETATM    6  C   UNL     1       5.068  30.503  57.486  1.00  0.00     0.027 A 
HETATM    7  C   UNL     1       6.012  31.376  58.028  1.00  0.00     0.050 A 
HETATM    8  C   UNL     1       3.784  30.890  57.153  1.00  0.00     0.016 A 
HETATM    9  C   UNL     1       3.445  32.224  57.381  1.00  0.00     0.001 A 
HETATM   10  C   UNL     1       4.386  33.119  57.926  1.00  0.00     0.002 A 
HETATM   11  C   UNL     1       5.682  32.698  58.255  1.00  0.00     0.031 A 
ENDROOT
BRANCH   5  12
HETATM   12  N   UNL     1       5.904  27.002  56.845  1.00  0.00    -0.238 N 
HETATM   13  C   UNL     1       6.302  26.482  55.630  1.00  0.00     0.329 C 
HETATM   14  O   UNL     1       6.029  26.891  54.506  1.00  0.00    -0.261 OA
HETATM   15  H   UNL     1       6.225  26.548  57.708  1.00  0.00     0.192 HD
BRANCH  13  16
HETATM   16  C   UNL     1       7.220  25.255  55.769  1.00  0.00     0.315 C 
HETATM   17  N   UNL     1       6.822  24.227  54.940  1.00  0.00    -0.319 N 
HETATM   18  H   UNL     1       5.989  24.436  54.393  1.00  0.00     0.169 HD
HETATM   19  O   UNL     1       8.168  25.302  56.540  1.00  0.00    -0.262 OA
BRANCH  17  20
HETATM   20  C   UNL     1       7.430  22.976  54.755  1.00  0.00     0.035 A 
HETATM   21  C   UNL     1       7.922  22.527  53.527  1.00  0.00     0.032 A 
HETATM   22  C   UNL     1       8.505  21.258  53.419  1.00  0.00     0.039 A 
HETATM   23  C   UNL     1       8.594  20.444  54.541  1.00  0.00     0.065 A 
HETATM   24  C   UNL     1       8.113  20.877  55.770  1.00  0.00     0.039 A 
HETATM   25  C   UNL     1       7.532  22.142  55.876  1.00  0.00     0.032 A 
BRANCH  23  26
HETATM   26  O   UNL     1       9.149  19.202  54.478  1.00  0.00    -0.361 OA
HETATM   27  H   UNL     1      10.100  19.278  54.665  1.00  0.00     0.217 HD
ENDBRANCH  23  26
ENDBRANCH  17  20
ENDBRANCH  13  16
ENDBRANCH   5  12
BRANCH   1  28
HETATM   28  C   UNL     1       8.420  31.298  58.824  1.00  0.00     0.171 C 
BRANCH  28  29
HETATM   29  C   UNL     1       8.342  31.505  60.317  1.00  0.00    -0.040 A 
HETATM   30  C   UNL     1       7.821  32.690  60.857  1.00  0.00     0.009 A 
HETATM   31  C   UNL     1       7.749  32.867  62.240  1.00  0.00     0.001 A 
HETATM   32  C   UNL     1       8.199  31.866  63.099  1.00  0.00     0.000 A 
HETATM   33  C   UNL     1       8.722  30.686  62.576  1.00  0.00     0.001 A 
HETATM   34  C   UNL     1       8.795  30.507  61.194  1.00  0.00     0.009 A 
ENDBRANCH  28  29
ENDBRANCH   1  28
TORSDOF 6
ENDMDL
MODEL 3
REMARK VINA RESULT:      -9.7      2.402      4.531
REMARK  6 active torsions:
REMARK  status: ('A' for Active; 'I' for Inactive)
REMARK    1  A    between atoms: C_4  and  C_5 
REMARK    2  A    between atoms: C_5  and  N_6 
REMARK    3  A    between atoms: N_10  and  N_11 
REMARK       I    between atoms: N_11  and  C_12 
REMARK    4  A    between atoms: C_12  and  C_13 
REMARK       I    between atoms: C_13  and  N_14 
REMARK    5  A    between atoms: N_14  and  C_15 
REMARK    6  A    between atoms: C_18  and  O_19 
ROOT
HETATM    1  N   UNL     1       5.984  30.776  58.149  1.00  0.00    -0.307 N 
HETATM    2  C   UNL     1       6.494  29.648  57.532  1.00  0.00     0.280 A 
HETATM    3  O   UNL     1       6.018  28.933  56.673  1.00  0.00    -0.265 OA
HETATM    4  C   UNL     1       7.873  29.429  58.150  1.00  0.00     0.157 A 
HETATM    5  N   UNL     1       8.736  28.495  57.901  1.00  0.00    -0.165 NA
HETATM    6  C   UNL     1       8.059  30.503  59.115  1.00  0.00     0.027 A 
HETATM    7  C   UNL     1       6.901  31.282  59.089  1.00  0.00     0.050 A 
HETATM    8  C   UNL     1       9.134  30.776  59.938  1.00  0.00     0.016 A 
HETATM    9  C   UNL     1       9.028  31.890  60.770  1.00  0.00     0.001 A 
HETATM   10  C   UNL     1       7.867  32.687  60.758  1.00  0.00     0.002 A 
HETATM   11  C   UNL     1       6.790  32.386  59.912  1.00  0.00     0.031 A 
ENDROOT
BRANCH   5  12
HETATM   12  N   UNL     1       8.385  27.559  56.973  1.00  0.00    -0.238 N 
HETATM   13  C   UNL     1       8.015  26.289  57.369  1.00  0.00     0.329 C 
HETATM   14  O   UNL     1       7.986  25.829  58.506  1.00  0.00    -0.261 OA
HETATM   15  H   UNL     1       8.348  27.797  55.975  1.00  0.00     0.192 HD
BRANCH  13  16
HETATM   16  C   UNL     1       7.572  25.396  56.197  1.00  0.00     0.315 C 
HETATM   17  N   UNL     1       8.405  24.307  56.045  1.00  0.00    -0.319 N 
HETATM   18  H   UNL     1       9.176  24.280  56.711  1.00  0.00     0.169 HD
HETATM   19  O   UNL     1       6.577  25.701  55.556  1.00  0.00    -0.262 OA
BRANCH  17  20
HETATM   20  C   UNL     1       8.299  23.254  55.124  1.00  0.00     0.035 A 
HETATM   21  C   UNL     1       8.095  23.438  53.755  1.00  0.00     0.032 A 
HETATM   22  C   UNL     1       7.986  22.335  52.899  1.00  0.00     0.039 A 
HETATM   23  C   UNL     1       8.083  21.050  53.419  1.00  0.00     0.065 A 
HETATM   24  C   UNL     1       8.290  20.849  54.776  1.00  0.00     0.039 A 
HETATM   25  C   UNL     1       8.398  21.951  55.629  1.00  0.00     0.032 A 
BRANCH  23  26
HETATM   26  O   UNL     1       7.978  19.950  52.622  1.00  0.00    -0.361 OA
HETATM   27  H   UNL     1       7.413  20.171  51.863  1.00  0.00     0.217 HD
ENDBRANCH  23  26
ENDBRANCH  17  20
ENDBRANCH  13  16
ENDBRANCH   5  12
BRANCH   1  28
HETATM   28  C   UNL     1       4.678  31.322  57.866  1.00  0.00     0.171 C 
BRANCH  28  29
HETATM   29  C   UNL     1       4.732  32.525  56.955  1.00  0.00    -0.040 A 
HETATM   30  C   UNL     1       4.944  32.379  55.576  1.00  0.00     0.009 A 
HETATM   31  C   UNL     1       4.986  33.498  54.743  1.00  0.00     0.001 A 
HETATM   32  C   UNL     1       4.819  34.775  55.276  1.00  0.00     0.000 A 
HETATM   33  C   UNL     1       4.611  34.934  56.643  1.00  0.00     0.001 A 
HETATM   34  C   UNL     1       4.570  33.817  57.478  1.00  0.00     0.009 A 
ENDBRANCH  28  29
ENDBRANCH   1  28
TORSDOF 6
ENDMDL
MODEL 4
REMARK VINA RESULT:      -9.6      3.856      6.939
REMARK  6 active torsions:
REMARK  status: ('A' for Active; 'I' for Inactive)
REMARK    1  A    between atoms: C_4  and  C_5 
REMARK    2  A    between atoms: C_5  and  N_6 
REMARK    3  A    between atoms: N_10  and  N_11 
REMARK       I    between atoms: N_11  and  C_12 
REMARK    4  A    between atoms: C_12  and  C_13 
REMARK       I    between atoms: C_13  and  N_14 
REMARK    5  A    between atoms: N_14  and  C_15 
REMARK    6  A    between atoms: C_18  and  O_19 
ROOT
HETATM    1  N   UNL     1       7.146  26.970  55.506  1.00  0.00    -0.307 N 
HETATM    2  C   UNL     1       6.847  27.012  54.156  1.00  0.00     0.280 A 
HETATM    3  O   UNL     1       6.377  27.904  53.478  1.00  0.00    -0.265 OA
HETATM    4  C   UNL     1       7.244  25.645  53.603  1.00  0.00     0.157 A 
HETATM    5  N   UNL     1       7.150  25.200  52.391  1.00  0.00    -0.165 NA
HETATM    6  C   UNL     1       7.770  24.891  54.732  1.00  0.00     0.027 A 
HETATM    7  C   UNL     1       7.686  25.718  55.853  1.00  0.00     0.050 A 
HETATM    8  C   UNL     1       8.274  23.606  54.778  1.00  0.00     0.016 A 
HETATM    9  C   UNL     1       8.713  23.141  56.018  1.00  0.00     0.001 A 
HETATM   10  C   UNL     1       8.634  23.961  57.160  1.00  0.00     0.002 A 
HETATM   11  C   UNL     1       8.118  25.262  57.084  1.00  0.00     0.031 A 
ENDROOT
BRANCH   5  12
HETATM   12  N   UNL     1       6.616  26.045  51.461  1.00  0.00    -0.238 N 
HETATM   13  C   UNL     1       5.323  25.859  51.012  1.00  0.00     0.329 C 
HETATM   14  O   UNL     1       4.538  24.967  51.315  1.00  0.00    -0.261 OA
HETATM   15  H   UNL     1       7.149  26.852  51.117  1.00  0.00     0.192 HD
BRANCH  13  16
HETATM   16  C   UNL     1       4.861  26.952  50.032  1.00  0.00     0.315 C 
HETATM   17  N   UNL     1       3.707  26.586  49.371  1.00  0.00    -0.319 N 
HETATM   18  H   UNL     1       3.363  25.660  49.621  1.00  0.00     0.169 HD
HETATM   19  O   UNL     1       5.506  27.987  49.944  1.00  0.00    -0.262 OA
BRANCH  17  20
HETATM   20  C   UNL     1       2.965  27.331  48.443  1.00  0.00     0.035 A 
HETATM   21  C   UNL     1       3.423  28.510  47.850  1.00  0.00     0.032 A 
HETATM   22  C   UNL     1       2.617  29.206  46.940  1.00  0.00     0.039 A 
HETATM   23  C   UNL     1       1.354  28.718  46.628  1.00  0.00     0.065 A 
HETATM   24  C   UNL     1       0.885  27.546  47.205  1.00  0.00     0.039 A 
HETATM   25  C   UNL     1       1.690  26.853  48.112  1.00  0.00     0.032 A 
BRANCH  23  26
HETATM   26  O   UNL     1       0.537  29.367  45.752  1.00  0.00    -0.361 OA
HETATM   27  H   UNL     1       1.086  29.771  45.059  1.00  0.00     0.217 HD
ENDBRANCH  23  26
ENDBRANCH  17  20
ENDBRANCH  13  16
ENDBRANCH   5  12
BRANCH   1  28
HETATM   28  C   UNL     1       6.904  28.065  56.415  1.00  0.00     0.171 C 
BRANCH  28  29
HETATM   29  C   UNL     1       8.154  28.848  56.734  1.00  0.00    -0.040 A 
HETATM   30  C   UNL     1       9.127  29.089  55.751  1.00  0.00     0.009 A 
HETATM   31  C   UNL     1      10.277  29.820  56.056  1.00  0.00     0.001 A 
HETATM   32  C   UNL     1      10.471  30.315  57.344  1.00  0.00     0.000 A 
HETATM   33  C   UNL     1       9.515  30.080  58.329  1.00  0.00     0.001 A 
HETATM   34  C   UNL     1       8.365  29.350  58.027  1.00  0.00     0.009 A 
ENDBRANCH  28  29
ENDBRANCH   1  28
TORSDOF 6
ENDMDL
MODEL 5
REMARK VINA RESULT:      -9.5      4.054      9.321
REMARK  6 active torsions:
REMARK  status: ('A' for Active; 'I' for Inactive)
REMARK    1  A    between atoms: C_4  and  C_5 
REMARK    2  A    between atoms: C_5  and  N_6 
REMARK    3  A    between atoms: N_10  and  N_11 
REMARK       I    between atoms: N_11  and  C_12 
REMARK    4  A    between atoms: C_12  and  C_13 
REMARK       I    between atoms: C_13  and  N_14 
REMARK    5  A    between atoms: N_14  and  C_15 
REMARK    6  A    between atoms: C_18  and  O_19 
ROOT
HETATM    1  N   UNL     1       5.106  28.134  56.310  1.00  0.00    -0.307 N 
HETATM    2  C   UNL     1       5.820  28.846  57.256  1.00  0.00     0.280 A 
HETATM    3  O   UNL     1       5.562  29.890  57.822  1.00  0.00    -0.265 OA
HETATM    4  C   UNL     1       7.091  28.038  57.507  1.00  0.00     0.157 A 
HETATM    5  N   UNL     1       8.076  28.299  58.307  1.00  0.00    -0.165 NA
HETATM    6  C   UNL     1       7.000  26.866  56.647  1.00  0.00     0.027 A 
HETATM    7  C   UNL     1       5.800  26.967  55.942  1.00  0.00     0.050 A 
HETATM    8  C   UNL     1       7.879  25.812  56.495  1.00  0.00     0.016 A 
HETATM    9  C   UNL     1       7.523  24.816  55.585  1.00  0.00     0.001 A 
HETATM   10  C   UNL     1       6.316  24.903  54.864  1.00  0.00     0.002 A 
HETATM   11  C   UNL     1       5.442  25.984  55.039  1.00  0.00     0.031 A 
ENDROOT
BRANCH   5  12
HETATM   12  N   UNL     1       7.999  29.455  59.027  1.00  0.00    -0.238 N 
HETATM   13  C   UNL     1       9.007  30.395  58.948  1.00  0.00     0.329 C 
HETATM   14  O   UNL     1      10.053  30.331  58.311  1.00  0.00    -0.261 OA
HETATM   15  H   UNL     1       7.173  29.661  59.602  1.00  0.00     0.192 HD
BRANCH  13  16
HETATM   16  C   UNL     1       8.711  31.668  59.760  1.00  0.00     0.315 C 
HETATM   17  N   UNL     1       7.908  31.400  60.849  1.00  0.00    -0.319 N 
HETATM   18  H   UNL     1       7.630  30.423  60.928  1.00  0.00     0.169 HD
HETATM   19  O   UNL     1       9.195  32.732  59.401  1.00  0.00    -0.262 OA
BRANCH  17  20
HETATM   20  C   UNL     1       7.465  32.288  61.841  1.00  0.00     0.035 A 
HETATM   21  C   UNL     1       6.462  33.239  61.640  1.00  0.00     0.032 A 
HETATM   22  C   UNL     1       6.083  34.101  62.677  1.00  0.00     0.039 A 
HETATM   23  C   UNL     1       6.712  34.006  63.912  1.00  0.00     0.065 A 
HETATM   24  C   UNL     1       7.708  33.065  64.130  1.00  0.00     0.039 A 
HETATM   25  C   UNL     1       8.084  32.206  63.095  1.00  0.00     0.032 A 
BRANCH  23  26
HETATM   26  O   UNL     1       6.376  34.828  64.946  1.00  0.00    -0.361 OA
HETATM   27  H   UNL     1       6.502  34.344  65.779  1.00  0.00     0.217 HD
ENDBRANCH  23  26
ENDBRANCH  17  20
ENDBRANCH  13  16
ENDBRANCH   5  12
BRANCH   1  28
HETATM   28  C   UNL     1       3.837  28.566  55.773  1.00  0.00     0.171 C 
BRANCH  28  29
HETATM   29  C   UNL     1       3.988  29.509  54.604  1.00  0.00    -0.040 A 
HETATM   30  C   UNL     1       4.303  29.029  53.323  1.00  0.00     0.009 A 
HETATM   31  C   UNL     1       4.434  29.911  52.249  1.00  0.00     0.001 A 
HETATM   32  C   UNL     1       4.254  31.279  52.439  1.00  0.00     0.000 A 
HETATM   33  C   UNL     1       3.944  31.769  53.705  1.00  0.00     0.001 A 
HETATM   34  C   UNL     1       3.813  30.890  54.781  1.00  0.00     0.009 A 
ENDBRANCH  28  29
ENDBRANCH   1  28
TORSDOF 6
ENDMDL
MODEL 6
REMARK VINA RESULT:      -9.4      3.059      8.601
REMARK  6 active torsions:
REMARK  status: ('A' for Active; 'I' for Inactive)
REMARK    1  A    between atoms: C_4  and  C_5 
REMARK    2  A    between atoms: C_5  and  N_6 
REMARK    3  A    between atoms: N_10  and  N_11 
REMARK       I    between atoms: N_11  and  C_12 
REMARK    4  A    between atoms: C_12  and  C_13 
REMARK       I    between atoms: C_13  and  N_14 
REMARK    5  A    between atoms: N_14  and  C_15 
REMARK    6  A    between atoms: C_18  and  O_19 
ROOT
HETATM    1  N   UNL     1       6.286  25.531  54.765  1.00  0.00    -0.307 N 
HETATM    2  C   UNL     1       6.759  26.576  55.538  1.00  0.00     0.280 A 
HETATM    3  O   UNL     1       7.166  26.591  56.682  1.00  0.00    -0.265 OA
HETATM    4  C   UNL     1       6.693  27.813  54.644  1.00  0.00     0.157 A 
HETATM    5  N   UNL     1       7.023  29.034  54.922  1.00  0.00    -0.165 NA
HETATM    6  C   UNL     1       6.166  27.358  53.366  1.00  0.00     0.027 A 
HETATM    7  C   UNL     1       5.928  25.988  53.483  1.00  0.00     0.050 A 
HETATM    8  C   UNL     1       5.917  28.071  52.209  1.00  0.00     0.016 A 
HETATM    9  C   UNL     1       5.405  27.360  51.124  1.00  0.00     0.001 A 
HETATM   10  C   UNL     1       5.158  25.977  51.225  1.00  0.00     0.002 A 
HETATM   11  C   UNL     1       5.420  25.279  52.412  1.00  0.00     0.031 A 
ENDROOT
BRANCH   5  12
HETATM   12  N   UNL     1       7.486  29.279  56.181  1.00  0.00    -0.238 N 
HETATM   13  C   UNL     1       6.774  30.094  57.040  1.00  0.00     0.329 C 
HETATM   14  O   UNL     1       5.733  30.703  56.816  1.00  0.00    -0.261 OA
HETATM   15  H   UNL     1       8.343  28.830  56.523  1.00  0.00     0.192 HD
BRANCH  13  16
HETATM   16  C   UNL     1       7.401  30.189  58.441  1.00  0.00     0.315 C 
HETATM   17  N   UNL     1       6.970  31.314  59.114  1.00  0.00    -0.319 N 
HETATM   18  H   UNL     1       6.332  31.898  58.577  1.00  0.00     0.169 HD
HETATM   19  O   UNL     1       8.163  29.310  58.816  1.00  0.00    -0.262 OA
BRANCH  17  20
HETATM   20  C   UNL     1       7.283  31.716  60.422  1.00  0.00     0.035 A 
HETATM   21  C   UNL     1       8.526  31.504  61.023  1.00  0.00     0.032 A 
HETATM   22  C   UNL     1       8.758  31.923  62.338  1.00  0.00     0.039 A 
HETATM   23  C   UNL     1       7.744  32.556  63.048  1.00  0.00     0.065 A 
HETATM   24  C   UNL     1       6.504  32.778  62.464  1.00  0.00     0.039 A 
HETATM   25  C   UNL     1       6.274  32.359  61.151  1.00  0.00     0.032 A 
BRANCH  23  26
HETATM   26  O   UNL     1       7.927  32.975  64.331  1.00  0.00    -0.361 OA
HETATM   27  H   UNL     1       8.395  33.827  64.313  1.00  0.00     0.217 HD
ENDBRANCH  23  26
ENDBRANCH  17  20
ENDBRANCH  13  16
ENDBRANCH   5  12
BRANCH   1  28
HETATM   28  C   UNL     1       6.163  24.174  55.241  1.00  0.00     0.171 C 
BRANCH  28  29
HETATM   29  C   UNL     1       7.303  23.291  54.794  1.00  0.00    -0.040 A 
HETATM   30  C   UNL     1       7.273  22.647  53.548  1.00  0.00     0.009 A 
HETATM   31  C   UNL     1       8.336  21.838  53.143  1.00  0.00     0.001 A 
HETATM   32  C   UNL     1       9.438  21.660  53.976  1.00  0.00     0.000 A 
HETATM   33  C   UNL     1       9.479  22.291  55.217  1.00  0.00     0.001 A 
HETATM   34  C   UNL     1       8.418  23.100  55.625  1.00  0.00     0.009 A 
ENDBRANCH  28  29
ENDBRANCH   1  28
TORSDOF 6
ENDMDL
MODEL 7
REMARK VINA RESULT:      -9.4      4.060      7.443
REMARK  6 active torsions:
REMARK  status: ('A' for Active; 'I' for Inactive)
REMARK    1  A    between atoms: C_4  and  C_5 
REMARK    2  A    between atoms: C_5  and  N_6 
REMARK    3  A    between atoms: N_10  and  N_11 
REMARK       I    between atoms: N_11  and  C_12 
REMARK    4  A    between atoms: C_12  and  C_13 
REMARK       I    between atoms: C_13  and  N_14 
REMARK    5  A    between atoms: N_14  and  C_15 
REMARK    6  A    between atoms: C_18  and  O_19 
ROOT
HETATM    1  N   UNL     1       6.364  25.749  54.766  1.00  0.00    -0.307 N 
HETATM    2  C   UNL     1       6.012  26.316  53.554  1.00  0.00     0.280 A 
HETATM    3  O   UNL     1       5.444  25.837  52.593  1.00  0.00    -0.265 OA
HETATM    4  C   UNL     1       6.483  27.767  53.625  1.00  0.00     0.157 A 
HETATM    5  N   UNL     1       6.384  28.698  52.730  1.00  0.00    -0.165 NA
HETATM    6  C   UNL     1       7.093  27.929  54.937  1.00  0.00     0.027 A 
HETATM    7  C   UNL     1       7.008  26.695  55.584  1.00  0.00     0.050 A 
HETATM    8  C   UNL     1       7.668  29.046  55.512  1.00  0.00     0.016 A 
HETATM    9  C   UNL     1       8.178  28.902  56.802  1.00  0.00     0.001 A 
HETATM   10  C   UNL     1       8.102  27.664  57.470  1.00  0.00     0.002 A 
HETATM   11  C   UNL     1       7.513  26.547  56.862  1.00  0.00     0.031 A 
ENDROOT
BRANCH   5  12
HETATM   12  N   UNL     1       5.793  28.360  51.548  1.00  0.00    -0.238 N 
HETATM   13  C   UNL     1       5.626  29.307  50.556  1.00  0.00     0.329 C 
HETATM   14  O   UNL     1       5.915  30.499  50.592  1.00  0.00    -0.261 OA
HETATM   15  H   UNL     1       5.506  27.393  51.362  1.00  0.00     0.192 HD
BRANCH  13  16
HETATM   16  C   UNL     1       5.021  28.730  49.265  1.00  0.00     0.315 C 
HETATM   17  N   UNL     1       3.662  28.526  49.389  1.00  0.00    -0.319 N 
HETATM   18  H   UNL     1       3.289  28.770  50.304  1.00  0.00     0.169 HD
HETATM   19  O   UNL     1       5.747  28.530  48.302  1.00  0.00    -0.262 OA
BRANCH  17  20
HETATM   20  C   UNL     1       2.762  28.060  48.418  1.00  0.00     0.035 A 
HETATM   21  C   UNL     1       2.763  26.754  47.922  1.00  0.00     0.032 A 
HETATM   22  C   UNL     1       1.841  26.366  46.943  1.00  0.00     0.039 A 
HETATM   23  C   UNL     1       0.919  27.289  46.463  1.00  0.00     0.065 A 
HETATM   24  C   UNL     1       0.902  28.590  46.947  1.00  0.00     0.039 A 
HETATM   25  C   UNL     1       1.823  28.975  47.925  1.00  0.00     0.032 A 
BRANCH  23  26
HETATM   26  O   UNL     1       0.008  26.955  45.507  1.00  0.00    -0.361 OA
HETATM   27  H   UNL     1      -0.341  27.772  45.113  1.00  0.00     0.217 HD
ENDBRANCH  23  26
ENDBRANCH  17  20
ENDBRANCH  13  16
ENDBRANCH   5  12
BRANCH   1  28
HETATM   28  C   UNL     1       6.116  24.369  55.106  1.00  0.00     0.171 C 
BRANCH  28  29
HETATM   29  C   UNL     1       7.203  23.442  54.620  1.00  0.00    -0.040 A 
HETATM   30  C   UNL     1       7.196  22.945  53.307  1.00  0.00     0.009 A 
HETATM   31  C   UNL     1       8.210  22.093  52.866  1.00  0.00     0.001 A 
HETATM   32  C   UNL     1       9.240  21.725  53.729  1.00  0.00     0.000 A 
HETATM   33  C   UNL     1       9.257  22.208  55.035  1.00  0.00     0.001 A 
HETATM   34  C   UNL     1       8.245  23.059  55.479  1.00  0.00     0.009 A 
ENDBRANCH  28  29
ENDBRANCH   1  28
TORSDOF 6
ENDMDL
MODEL 8
REMARK VINA RESULT:      -9.3      3.114      9.005
REMARK  6 active torsions:
REMARK  status: ('A' for Active; 'I' for Inactive)
REMARK    1  A    between atoms: C_4  and  C_5 
REMARK    2  A    between atoms: C_5  and  N_6 
REMARK    3  A    between atoms: N_10  and  N_11 
REMARK       I    between atoms: N_11  and  C_12 
REMARK    4  A    between atoms: C_12  and  C_13 
REMARK       I    between atoms: C_13  and  N_14 
REMARK    5  A    between atoms: N_14  and  C_15 
REMARK    6  A    between atoms: C_18  and  O_19 
ROOT
HETATM    1  N   UNL     1       5.904  25.375  54.720  1.00  0.00    -0.307 N 
HETATM    2  C   UNL     1       6.223  26.270  55.726  1.00  0.00     0.280 A 
HETATM    3  O   UNL     1       5.638  27.259  56.120  1.00  0.00    -0.265 OA
HETATM    4  C   UNL     1       7.538  25.770  56.320  1.00  0.00     0.157 A 
HETATM    5  N   UNL     1       8.239  26.277  57.284  1.00  0.00    -0.165 NA
HETATM    6  C   UNL     1       7.885  24.566  55.578  1.00  0.00     0.027 A 
HETATM    7  C   UNL     1       6.884  24.370  54.624  1.00  0.00     0.050 A 
HETATM    8  C   UNL     1       8.969  23.722  55.719  1.00  0.00     0.016 A 
HETATM    9  C   UNL     1       9.039  22.630  54.854  1.00  0.00     0.001 A 
HETATM   10  C   UNL     1       8.039  22.418  53.885  1.00  0.00     0.002 A 
HETATM   11  C   UNL     1       6.949  23.291  53.764  1.00  0.00     0.031 A 
ENDROOT
BRANCH   5  12
HETATM   12  N   UNL     1       7.767  27.421  57.857  1.00  0.00    -0.238 N 
HETATM   13  C   UNL     1       8.390  28.630  57.617  1.00  0.00     0.329 C 
HETATM   14  O   UNL     1       9.397  28.842  56.949  1.00  0.00    -0.261 OA
HETATM   15  H   UNL     1       6.920  27.408  58.437  1.00  0.00     0.192 HD
BRANCH  13  16
HETATM   16  C   UNL     1       7.673  29.821  58.276  1.00  0.00     0.315 C 
HETATM   17  N   UNL     1       8.131  30.043  59.558  1.00  0.00    -0.319 N 
HETATM   18  H   UNL     1       8.844  29.383  59.863  1.00  0.00     0.169 HD
HETATM   19  O   UNL     1       6.828  30.435  57.641  1.00  0.00    -0.262 OA
BRANCH  17  20
HETATM   20  C   UNL     1       7.754  31.058  60.451  1.00  0.00     0.035 A 
HETATM   21  C   UNL     1       6.758  32.000  60.180  1.00  0.00     0.032 A 
HETATM   22  C   UNL     1       6.447  32.992  61.118  1.00  0.00     0.039 A 
HETATM   23  C   UNL     1       7.135  33.037  62.325  1.00  0.00     0.065 A 
HETATM   24  C   UNL     1       8.124  32.107  62.611  1.00  0.00     0.039 A 
HETATM   25  C   UNL     1       8.433  31.117  61.675  1.00  0.00     0.032 A 
BRANCH  23  26
HETATM   26  O   UNL     1       6.866  33.989  63.262  1.00  0.00    -0.361 OA
HETATM   27  H   UNL     1       7.707  34.366  63.570  1.00  0.00     0.217 HD
ENDBRANCH  23  26
ENDBRANCH  17  20
ENDBRANCH  13  16
ENDBRANCH   5  12
BRANCH   1  28
HETATM   28  C   UNL     1       4.734  25.494  53.884  1.00  0.00     0.171 C 
BRANCH  28  29
HETATM   29  C   UNL     1       4.985  26.311  52.639  1.00  0.00    -0.040 A 
HETATM   30  C   UNL     1       5.131  25.694  51.387  1.00  0.00     0.009 A 
HETATM   31  C   UNL     1       5.357  26.460  50.242  1.00  0.00     0.001 A 
HETATM   32  C   UNL     1       5.443  27.848  50.333  1.00  0.00     0.000 A 
HETATM   33  C   UNL     1       5.303  28.472  51.570  1.00  0.00     0.001 A 
HETATM   34  C   UNL     1       5.078  27.709  52.716  1.00  0.00     0.009 A 
ENDBRANCH  28  29
ENDBRANCH   1  28
TORSDOF 6
ENDMDL
MODEL 9
REMARK VINA RESULT:      -9.3      3.575      6.631
REMARK  6 active torsions:
REMARK  status: ('A' for Active; 'I' for Inactive)
REMARK    1  A    between atoms: C_4  and  C_5 
REMARK    2  A    between atoms: C_5  and  N_6 
REMARK    3  A    between atoms: N_10  and  N_11 
REMARK       I    between atoms: N_11  and  C_12 
REMARK    4  A    between atoms: C_12  and  C_13 
REMARK       I    between atoms: C_13  and  N_14 
REMARK    5  A    between atoms: N_14  and  C_15 
REMARK    6  A    between atoms: C_18  and  O_19 
ROOT
HETATM    1  N   UNL     1       5.824  26.256  55.350  1.00  0.00    -0.307 N 
HETATM    2  C   UNL     1       5.271  26.864  54.237  1.00  0.00     0.280 A 
HETATM    3  O   UNL     1       4.620  26.399  53.323  1.00  0.00    -0.265 OA
HETATM    4  C   UNL     1       5.630  28.344  54.355  1.00  0.00     0.157 A 
HETATM    5  N   UNL     1       5.341  29.317  53.551  1.00  0.00    -0.165 NA
HETATM    6  C   UNL     1       6.394  28.477  55.587  1.00  0.00     0.027 A 
HETATM    7  C   UNL     1       6.493  27.202  56.147  1.00  0.00     0.050 A 
HETATM    8  C   UNL     1       6.949  29.601  56.166  1.00  0.00     0.016 A 
HETATM    9  C   UNL     1       7.635  29.423  57.367  1.00  0.00     0.001 A 
HETATM   10  C   UNL     1       7.747  28.143  57.946  1.00  0.00     0.002 A 
HETATM   11  C   UNL     1       7.173  27.019  57.336  1.00  0.00     0.031 A 
ENDROOT
BRANCH   5  12
HETATM   12  N   UNL     1       4.627  29.004  52.431  1.00  0.00    -0.238 N 
HETATM   13  C   UNL     1       3.563  29.791  52.039  1.00  0.00     0.329 C 
HETATM   14  O   UNL     1       3.104  30.779  52.604  1.00  0.00    -0.261 OA
HETATM   15  H   UNL     1       4.898  28.208  51.842  1.00  0.00     0.192 HD
BRANCH  13  16
HETATM   16  C   UNL     1       2.931  29.337  50.712  1.00  0.00     0.315 C 
HETATM   17  N   UNL     1       3.494  28.162  50.258  1.00  0.00    -0.319 N 
HETATM   18  H   UNL     1       4.237  27.801  50.856  1.00  0.00     0.169 HD
HETATM   19  O   UNL     1       2.035  30.004  50.217  1.00  0.00    -0.262 OA
BRANCH  17  20
HETATM   20  C   UNL     1       3.154  27.420  49.117  1.00  0.00     0.035 A 
HETATM   21  C   UNL     1       1.944  27.560  48.432  1.00  0.00     0.032 A 
HETATM   22  C   UNL     1       1.671  26.773  47.307  1.00  0.00     0.039 A 
HETATM   23  C   UNL     1       2.611  25.847  46.871  1.00  0.00     0.065 A 
HETATM   24  C   UNL     1       3.819  25.697  47.538  1.00  0.00     0.039 A 
HETATM   25  C   UNL     1       4.090  26.483  48.660  1.00  0.00     0.032 A 
BRANCH  23  26
HETATM   26  O   UNL     1       2.383  25.058  45.784  1.00  0.00    -0.361 OA
HETATM   27  H   UNL     1       1.644  24.460  45.986  1.00  0.00     0.217 HD
ENDBRANCH  23  26
ENDBRANCH  17  20
ENDBRANCH  13  16
ENDBRANCH   5  12
BRANCH   1  28
HETATM   28  C   UNL     1       5.733  24.841  55.616  1.00  0.00     0.171 C 
BRANCH  28  29
HETATM   29  C   UNL     1       6.843  24.051  54.966  1.00  0.00    -0.040 A 
HETATM   30  C   UNL     1       6.808  23.745  53.597  1.00  0.00     0.009 A 
HETATM   31  C   UNL     1       7.843  23.019  53.006  1.00  0.00     0.001 A 
HETATM   32  C   UNL     1       8.923  22.588  53.773  1.00  0.00     0.000 A 
HETATM   33  C   UNL     1       8.969  22.881  55.134  1.00  0.00     0.001 A 
HETATM   34  C   UNL     1       7.935  23.606  55.727  1.00  0.00     0.009 A 
ENDBRANCH  28  29
ENDBRANCH   1  28
TORSDOF 6
ENDMDL
MODEL 10
REMARK VINA RESULT:      -9.3      3.357      6.488
REMARK  6 active torsions:
REMARK  status: ('A' for Active; 'I' for Inactive)
REMARK    1  A    between atoms: C_4  and  C_5 
REMARK    2  A    between atoms: C_5  and  N_6 
REMARK    3  A    between atoms: N_10  and  N_11 
REMARK       I    between atoms: N_11  and  C_12 
REMARK    4  A    between atoms: C_12  and  C_13 
REMARK       I    between atoms: C_13  and  N_14 
REMARK    5  A    between atoms: N_14  and  C_15 
REMARK    6  A    between atoms: C_18  and  O_19 
ROOT
HETATM    1  N   UNL     1       4.934  28.632  50.727  1.00  0.00    -0.307 N 
HETATM    2  C   UNL     1       5.022  27.776  51.810  1.00  0.00     0.280 A 
HETATM    3  O   UNL     1       5.473  26.651  51.894  1.00  0.00    -0.265 OA
HETATM    4  C   UNL     1       4.419  28.538  52.988  1.00  0.00     0.157 A 
HETATM    5  N   UNL     1       4.272  28.152  54.216  1.00  0.00    -0.165 NA
HETATM    6  C   UNL     1       4.018  29.836  52.466  1.00  0.00     0.027 A 
HETATM    7  C   UNL     1       4.336  29.848  51.107  1.00  0.00     0.050 A 
HETATM    8  C   UNL     1       3.431  30.906  53.113  1.00  0.00     0.016 A 
HETATM    9  C   UNL     1       3.156  32.038  52.345  1.00  0.00     0.001 A 
HETATM   10  C   UNL     1       3.469  32.066  50.972  1.00  0.00     0.002 A 
HETATM   11  C   UNL     1       4.065  30.966  50.341  1.00  0.00     0.031 A 
ENDROOT
BRANCH   5  12
HETATM   12  N   UNL     1       4.694  26.892  54.524  1.00  0.00    -0.238 N 
HETATM   13  C   UNL     1       5.872  26.701  55.218  1.00  0.00     0.329 C 
HETATM   14  O   UNL     1       6.673  27.550  55.597  1.00  0.00    -0.261 OA
HETATM   15  H   UNL     1       4.122  26.074  54.284  1.00  0.00     0.192 HD
BRANCH  13  16
HETATM   16  C   UNL     1       6.146  25.224  55.550  1.00  0.00     0.315 C 
HETATM   17  N   UNL     1       6.965  24.636  54.609  1.00  0.00    -0.319 N 
HETATM   18  H   UNL     1       7.238  25.259  53.850  1.00  0.00     0.169 HD
HETATM   19  O   UNL     1       5.658  24.738  56.560  1.00  0.00    -0.262 OA
BRANCH  17  20
HETATM   20  C   UNL     1       7.470  23.327  54.593  1.00  0.00     0.035 A 
HETATM   21  C   UNL     1       7.935  22.661  55.729  1.00  0.00     0.032 A 
HETATM   22  C   UNL     1       8.437  21.357  55.631  1.00  0.00     0.039 A 
HETATM   23  C   UNL     1       8.470  20.725  54.394  1.00  0.00     0.065 A 
HETATM   24  C   UNL     1       8.008  21.371  53.256  1.00  0.00     0.039 A 
HETATM   25  C   UNL     1       7.508  22.671  53.355  1.00  0.00     0.032 A 
BRANCH  23  26
HETATM   26  O   UNL     1       8.954  19.459  54.254  1.00  0.00    -0.361 OA
HETATM   27  H   UNL     1       8.853  18.994  55.102  1.00  0.00     0.217 HD
ENDBRANCH  23  26
ENDBRANCH  17  20
ENDBRANCH  13  16
ENDBRANCH   5  12
BRANCH   1  28
HETATM   28  C   UNL     1       5.378  28.289  49.398  1.00  0.00     0.171 C 
BRANCH  28  29
HETATM   29  C   UNL     1       4.318  27.577  48.592  1.00  0.00    -0.040 A 
HETATM   30  C   UNL     1       4.243  26.176  48.576  1.00  0.00     0.009 A 
HETATM   31  C   UNL     1       3.255  25.528  47.832  1.00  0.00     0.001 A 
HETATM   32  C   UNL     1       2.333  26.270  47.095  1.00  0.00     0.000 A 
HETATM   33  C   UNL     1       2.399  27.661  47.100  1.00  0.00     0.001 A 
HETATM   34  C   UNL     1       3.386  28.311  47.842  1.00  0.00     0.009 A 
ENDBRANCH  28  29
ENDBRANCH   1  28
TORSDOF 6
ENDMDL
