MODEL 1
REMARK VINA RESULT:      -8.3      0.000      0.000
REMARK  2 active torsions:
REMARK  status: ('A' for Active; 'I' for Inactive)
REMARK    1  A    between atoms: C_9  and  C_10 
REMARK       I    between atoms: C_10  and  N_11 
REMARK    2  A    between atoms: N_11  and  C_12 
ROOT
HETATM    1  C   UNL     1       7.167  26.991  55.834  1.00  0.00     0.276 C 
HETATM    2  N   UNL     1       7.020  27.451  57.125  1.00  0.00    -0.317 N 
HETATM    3  O   UNL     1       7.001  27.655  54.816  1.00  0.00    -0.266 OA
HETATM    4  H   UNL     1       7.207  26.757  57.853  1.00  0.00     0.169 HD
ENDROOT
BRANCH   1   5
HETATM    5  C   UNL     1       7.556  25.572  55.784  1.00  0.00     0.147 A 
HETATM    6  N   UNL     1       8.015  24.918  56.872  1.00  0.00    -0.169 NA
HETATM    7  N   UNL     1       8.244  23.668  56.424  1.00  0.00    -0.275 N 
HETATM    8  C   UNL     1       7.959  23.493  55.100  1.00  0.00     0.086 A 
HETATM    9  H   UNL     1       8.598  22.971  57.071  1.00  0.00     0.189 HD
HETATM   10  C   UNL     1       8.133  22.241  54.445  1.00  0.00     0.103 A 
HETATM   11  C   UNL     1       7.511  24.713  54.653  1.00  0.00     0.073 A 
HETATM   12  O   UNL     1       8.573  21.124  55.109  1.00  0.00    -0.320 OA
HETATM   13  C   UNL     1       7.915  21.909  53.118  1.00  0.00     0.041 A 
HETATM   14  C   UNL     1       8.628  20.106  54.215  1.00  0.00     0.142 A 
HETATM   15  C   UNL     1       8.234  20.537  52.972  1.00  0.00     0.027 A 
ENDBRANCH   1   5
BRANCH   2  16
HETATM   16  C   UNL     1       6.657  28.703  57.564  1.00  0.00     0.102 A 
HETATM   17  C   UNL     1       7.741  29.523  58.230  1.00  0.00     0.218 A 
HETATM   18  O   UNL     1       8.872  29.053  58.347  1.00  0.00    -0.284 OA
HETATM   19  C   UNL     1       7.379  30.894  58.726  1.00  0.00     0.078 A 
HETATM   20 BR   UNL     1       8.670  31.945  59.552  1.00  0.00    -0.045 Br
HETATM   21  C   UNL     1       6.112  31.297  58.541  1.00  0.00     0.111 A 
HETATM   22  N   UNL     1       5.157  30.528  57.932  1.00  0.00    -0.372 N 
HETATM   23  C   UNL     1       5.444  29.270  57.465  1.00  0.00     0.121 A 
HETATM   24  H   UNL     1       4.212  30.889  57.825  1.00  0.00     0.164 HD
ENDBRANCH   2  16
TORSDOF 2
ENDMDL
MODEL 2
REMARK VINA RESULT:      -8.1      3.173      8.079
REMARK  2 active torsions:
REMARK  status: ('A' for Active; 'I' for Inactive)
REMARK    1  A    between atoms: C_9  and  C_10 
REMARK       I    between atoms: C_10  and  N_11 
REMARK    2  A    between atoms: N_11  and  C_12 
ROOT
HETATM    1  C   UNL     1       6.371  26.051  56.164  1.00  0.00     0.276 C 
HETATM    2  N   UNL     1       7.592  25.590  55.721  1.00  0.00    -0.317 N 
HETATM    3  O   UNL     1       5.294  25.483  56.011  1.00  0.00    -0.266 OA
HETATM    4  H   UNL     1       8.387  26.193  55.946  1.00  0.00     0.169 HD
ENDROOT
BRANCH   1   5
HETATM    5  C   UNL     1       6.478  27.340  56.866  1.00  0.00     0.147 A 
HETATM    6  N   UNL     1       5.389  28.059  57.209  1.00  0.00    -0.169 NA
HETATM    7  N   UNL     1       5.899  29.142  57.829  1.00  0.00    -0.275 N 
HETATM    8  C   UNL     1       7.263  29.152  57.895  1.00  0.00     0.086 A 
HETATM    9  H   UNL     1       5.264  29.847  58.190  1.00  0.00     0.189 HD
HETATM   10  C   UNL     1       7.985  30.210  58.515  1.00  0.00     0.103 A 
HETATM   11  C   UNL     1       7.671  27.994  57.275  1.00  0.00     0.073 A 
HETATM   12  O   UNL     1       7.357  31.274  59.110  1.00  0.00    -0.320 OA
HETATM   13  C   UNL     1       9.354  30.379  58.641  1.00  0.00     0.041 A 
HETATM   14  C   UNL     1       8.314  32.096  59.604  1.00  0.00     0.142 A 
HETATM   15  C   UNL     1       9.563  31.592  59.341  1.00  0.00     0.027 A 
ENDBRANCH   1   5
BRANCH   2  16
HETATM   16  C   UNL     1       7.884  24.442  55.022  1.00  0.00     0.102 A 
HETATM   17  C   UNL     1       8.244  23.225  55.847  1.00  0.00     0.218 A 
HETATM   18  O   UNL     1       8.257  23.306  57.075  1.00  0.00    -0.284 OA
HETATM   19  C   UNL     1       8.572  21.954  55.116  1.00  0.00     0.078 A 
HETATM   20 BR   UNL     1       9.021  20.429  56.078  1.00  0.00    -0.045 Br
HETATM   21  C   UNL     1       8.524  21.989  53.775  1.00  0.00     0.111 A 
HETATM   22  N   UNL     1       8.193  23.110  53.061  1.00  0.00    -0.372 N 
HETATM   23  C   UNL     1       7.886  24.291  53.688  1.00  0.00     0.121 A 
HETATM   24  H   UNL     1       8.177  23.073  52.045  1.00  0.00     0.164 HD
ENDBRANCH   2  16
TORSDOF 2
ENDMDL
MODEL 3
REMARK VINA RESULT:      -7.9      5.706     10.716
REMARK  2 active torsions:
REMARK  status: ('A' for Active; 'I' for Inactive)
REMARK    1  A    between atoms: C_9  and  C_10 
REMARK       I    between atoms: C_10  and  N_11 
REMARK    2  A    between atoms: N_11  and  C_12 
ROOT
HETATM    1  C   UNL     1       8.523  31.139  61.098  1.00  0.00     0.276 C 
HETATM    2  N   UNL     1       8.195  31.286  59.767  1.00  0.00    -0.317 N 
HETATM    3  O   UNL     1       9.522  30.572  61.530  1.00  0.00    -0.266 OA
HETATM    4  H   UNL     1       7.325  31.796  59.592  1.00  0.00     0.169 HD
ENDROOT
BRANCH   1   5
HETATM    5  C   UNL     1       7.527  31.750  61.993  1.00  0.00     0.147 A 
HETATM    6  N   UNL     1       6.220  31.820  61.665  1.00  0.00    -0.169 NA
HETATM    7  N   UNL     1       5.652  32.425  62.728  1.00  0.00    -0.275 N 
HETATM    8  C   UNL     1       6.535  32.750  63.717  1.00  0.00     0.086 A 
HETATM    9  H   UNL     1       4.651  32.592  62.722  1.00  0.00     0.189 HD
HETATM   10  C   UNL     1       6.125  33.391  64.920  1.00  0.00     0.103 A 
HETATM   11  C   UNL     1       7.764  32.326  63.270  1.00  0.00     0.073 A 
HETATM   12  O   UNL     1       4.813  33.700  65.173  1.00  0.00    -0.320 OA
HETATM   13  C   UNL     1       6.892  33.804  65.997  1.00  0.00     0.041 A 
HETATM   14  C   UNL     1       4.755  34.294  66.390  1.00  0.00     0.142 A 
HETATM   15  C   UNL     1       6.009  34.384  66.941  1.00  0.00     0.027 A 
ENDBRANCH   1   5
BRANCH   2  16
HETATM   16  C   UNL     1       8.868  30.840  58.654  1.00  0.00     0.102 A 
HETATM   17  C   UNL     1       8.103  29.914  57.732  1.00  0.00     0.218 A 
HETATM   18  O   UNL     1       6.943  29.608  58.005  1.00  0.00    -0.284 OA
HETATM   19  C   UNL     1       8.809  29.404  56.508  1.00  0.00     0.078 A 
HETATM   20 BR   UNL     1       7.919  28.263  55.341  1.00  0.00    -0.045 Br
HETATM   21  C   UNL     1      10.075  29.808  56.318  1.00  0.00     0.111 A 
HETATM   22  N   UNL     1      10.735  30.648  57.174  1.00  0.00    -0.372 N 
HETATM   23  C   UNL     1      10.129  31.137  58.303  1.00  0.00     0.121 A 
HETATM   24  H   UNL     1      11.696  30.915  56.976  1.00  0.00     0.164 HD
ENDBRANCH   2  16
TORSDOF 2
ENDMDL
MODEL 4
REMARK VINA RESULT:      -7.8      5.204      6.219
REMARK  2 active torsions:
REMARK  status: ('A' for Active; 'I' for Inactive)
REMARK    1  A    between atoms: C_9  and  C_10 
REMARK       I    between atoms: C_10  and  N_11 
REMARK    2  A    between atoms: N_11  and  C_12 
ROOT
HETATM    1  C   UNL     1       5.398  26.552  53.234  1.00  0.00     0.276 C 
HETATM    2  N   UNL     1       5.718  26.719  51.904  1.00  0.00    -0.317 N 
HETATM    3  O   UNL     1       4.666  27.285  53.891  1.00  0.00    -0.266 OA
HETATM    4  H   UNL     1       6.339  26.003  51.517  1.00  0.00     0.169 HD
ENDROOT
BRANCH   1   5
HETATM    5  C   UNL     1       6.040  25.365  53.822  1.00  0.00     0.147 A 
HETATM    6  N   UNL     1       6.165  25.207  55.157  1.00  0.00    -0.169 NA
HETATM    7  N   UNL     1       6.782  24.016  55.285  1.00  0.00    -0.275 N 
HETATM    8  C   UNL     1       7.064  23.407  54.096  1.00  0.00     0.086 A 
HETATM    9  H   UNL     1       6.989  23.667  56.215  1.00  0.00     0.189 HD
HETATM   10  C   UNL     1       7.712  22.141  54.026  1.00  0.00     0.103 A 
HETATM   11  C   UNL     1       6.596  24.260  53.124  1.00  0.00     0.073 A 
HETATM   12  O   UNL     1       8.069  21.440  55.149  1.00  0.00    -0.320 OA
HETATM   13  C   UNL     1       8.085  21.410  52.911  1.00  0.00     0.041 A 
HETATM   14  C   UNL     1       8.656  20.286  54.747  1.00  0.00     0.142 A 
HETATM   15  C   UNL     1       8.692  20.218  53.376  1.00  0.00     0.027 A 
ENDBRANCH   1   5
BRANCH   2  16
HETATM   16  C   UNL     1       5.324  27.709  51.035  1.00  0.00     0.102 A 
HETATM   17  C   UNL     1       4.553  27.261  49.811  1.00  0.00     0.218 A 
HETATM   18  O   UNL     1       4.313  26.065  49.648  1.00  0.00    -0.284 OA
HETATM   19  C   UNL     1       4.109  28.316  48.837  1.00  0.00     0.078 A 
HETATM   20 BR   UNL     1       3.159  27.824  47.317  1.00  0.00    -0.045 Br
HETATM   21  C   UNL     1       4.430  29.587  49.124  1.00  0.00     0.111 A 
HETATM   22  N   UNL     1       5.129  29.956  50.242  1.00  0.00    -0.372 N 
HETATM   23  C   UNL     1       5.553  29.026  51.157  1.00  0.00     0.121 A 
HETATM   24  H   UNL     1       5.344  30.937  50.401  1.00  0.00     0.164 HD
ENDBRANCH   2  16
TORSDOF 2
ENDMDL
MODEL 5
REMARK VINA RESULT:      -7.8      5.537      7.636
REMARK  2 active torsions:
REMARK  status: ('A' for Active; 'I' for Inactive)
REMARK    1  A    between atoms: C_9  and  C_10 
REMARK       I    between atoms: C_10  and  N_11 
REMARK    2  A    between atoms: N_11  and  C_12 
ROOT
HETATM    1  C   UNL     1       6.817  26.271  53.133  1.00  0.00     0.276 C 
HETATM    2  N   UNL     1       6.443  25.032  53.606  1.00  0.00    -0.317 N 
HETATM    3  O   UNL     1       7.724  26.964  53.582  1.00  0.00    -0.266 OA
HETATM    4  H   UNL     1       5.668  24.595  53.102  1.00  0.00     0.169 HD
ENDROOT
BRANCH   1   5
HETATM    5  C   UNL     1       5.997  26.707  51.990  1.00  0.00     0.147 A 
HETATM    6  N   UNL     1       5.751  28.011  51.744  1.00  0.00    -0.169 NA
HETATM    7  N   UNL     1       4.992  27.992  50.631  1.00  0.00    -0.275 N 
HETATM    8  C   UNL     1       4.735  26.738  50.157  1.00  0.00     0.086 A 
HETATM    9  H   UNL     1       4.673  28.872  50.237  1.00  0.00     0.189 HD
HETATM   10  C   UNL     1       3.953  26.513  48.989  1.00  0.00     0.103 A 
HETATM   11  C   UNL     1       5.374  25.878  51.020  1.00  0.00     0.073 A 
HETATM   12  O   UNL     1       3.429  27.543  48.251  1.00  0.00    -0.320 OA
HETATM   13  C   UNL     1       3.585  25.315  48.399  1.00  0.00     0.041 A 
HETATM   14  C   UNL     1       2.746  27.002  47.212  1.00  0.00     0.142 A 
HETATM   15  C   UNL     1       2.810  25.631  47.257  1.00  0.00     0.027 A 
ENDBRANCH   1   5
BRANCH   2  16
HETATM   16  C   UNL     1       6.962  24.313  54.657  1.00  0.00     0.102 A 
HETATM   17  C   UNL     1       7.485  22.930  54.332  1.00  0.00     0.218 A 
HETATM   18  O   UNL     1       7.430  22.516  53.174  1.00  0.00    -0.284 OA
HETATM   19  C   UNL     1       8.055  22.113  55.457  1.00  0.00     0.078 A 
HETATM   20 BR   UNL     1       8.711  20.408  55.115  1.00  0.00    -0.045 Br
HETATM   21  C   UNL     1       8.060  22.671  56.677  1.00  0.00     0.111 A 
HETATM   22  N   UNL     1       7.579  23.927  56.935  1.00  0.00    -0.372 N 
HETATM   23  C   UNL     1       7.050  24.706  55.937  1.00  0.00     0.121 A 
HETATM   24  H   UNL     1       7.608  24.293  57.883  1.00  0.00     0.164 HD
ENDBRANCH   2  16
TORSDOF 2
ENDMDL
MODEL 6
REMARK VINA RESULT:      -7.8      2.127      2.405
REMARK  2 active torsions:
REMARK  status: ('A' for Active; 'I' for Inactive)
REMARK    1  A    between atoms: C_9  and  C_10 
REMARK       I    between atoms: C_10  and  N_11 
REMARK    2  A    between atoms: N_11  and  C_12 
ROOT
HETATM    1  C   UNL     1       5.916  26.501  56.320  1.00  0.00     0.276 C 
HETATM    2  N   UNL     1       6.852  27.513  56.334  1.00  0.00    -0.317 N 
HETATM    3  O   UNL     1       4.884  26.472  56.983  1.00  0.00    -0.266 OA
HETATM    4  H   UNL     1       7.649  27.371  55.708  1.00  0.00     0.169 HD
ENDROOT
BRANCH   1   5
HETATM    5  C   UNL     1       6.281  25.411  55.400  1.00  0.00     0.147 A 
HETATM    6  N   UNL     1       6.028  25.478  54.076  1.00  0.00    -0.169 NA
HETATM    7  N   UNL     1       6.512  24.317  53.595  1.00  0.00    -0.275 N 
HETATM    8  C   UNL     1       7.058  23.506  54.549  1.00  0.00     0.086 A 
HETATM    9  H   UNL     1       6.441  24.128  52.600  1.00  0.00     0.189 HD
HETATM   10  C   UNL     1       7.624  22.238  54.235  1.00  0.00     0.103 A 
HETATM   11  C   UNL     1       6.922  24.188  55.735  1.00  0.00     0.073 A 
HETATM   12  O   UNL     1       7.681  21.762  52.950  1.00  0.00    -0.320 OA
HETATM   13  C   UNL     1       8.188  21.298  55.080  1.00  0.00     0.041 A 
HETATM   14  C   UNL     1       8.274  20.544  52.987  1.00  0.00     0.142 A 
HETATM   15  C   UNL     1       8.606  20.210  54.277  1.00  0.00     0.027 A 
ENDBRANCH   1   5
BRANCH   2  16
HETATM   16  C   UNL     1       6.862  28.674  57.070  1.00  0.00     0.102 A 
HETATM   17  C   UNL     1       5.968  29.791  56.574  1.00  0.00     0.218 A 
HETATM   18  O   UNL     1       5.286  29.621  55.564  1.00  0.00    -0.284 OA
HETATM   19  C   UNL     1       5.957  31.077  57.351  1.00  0.00     0.078 A 
HETATM   20 BR   UNL     1       4.878  32.483  56.789  1.00  0.00    -0.045 Br
HETATM   21  C   UNL     1       6.745  31.144  58.436  1.00  0.00     0.111 A 
HETATM   22  N   UNL     1       7.540  30.112  58.855  1.00  0.00    -0.372 N 
HETATM   23  C   UNL     1       7.581  28.921  58.176  1.00  0.00     0.121 A 
HETATM   24  H   UNL     1       8.118  30.226  59.684  1.00  0.00     0.164 HD
ENDBRANCH   2  16
TORSDOF 2
ENDMDL
MODEL 7
REMARK VINA RESULT:      -7.6      3.269      8.215
REMARK  2 active torsions:
REMARK  status: ('A' for Active; 'I' for Inactive)
REMARK    1  A    between atoms: C_9  and  C_10 
REMARK       I    between atoms: C_10  and  N_11 
REMARK    2  A    between atoms: N_11  and  C_12 
ROOT
HETATM    1  C   UNL     1       7.564  28.274  55.823  1.00  0.00     0.276 C 
HETATM    2  N   UNL     1       6.793  27.133  55.872  1.00  0.00    -0.317 N 
HETATM    3  O   UNL     1       8.336  28.578  54.919  1.00  0.00    -0.266 OA
HETATM    4  H   UNL     1       6.201  27.049  56.702  1.00  0.00     0.169 HD
ENDROOT
BRANCH   1   5
HETATM    5  C   UNL     1       7.372  29.134  57.003  1.00  0.00     0.147 A 
HETATM    6  N   UNL     1       6.179  29.697  57.289  1.00  0.00    -0.169 NA
HETATM    7  N   UNL     1       6.411  30.383  58.426  1.00  0.00    -0.275 N 
HETATM    8  C   UNL     1       7.696  30.289  58.878  1.00  0.00     0.086 A 
HETATM    9  H   UNL     1       5.649  30.901  58.852  1.00  0.00     0.189 HD
HETATM   10  C   UNL     1       8.133  30.942  60.065  1.00  0.00     0.103 A 
HETATM   11  C   UNL     1       8.349  29.485  57.973  1.00  0.00     0.073 A 
HETATM   12  O   UNL     1       7.284  31.683  60.846  1.00  0.00    -0.320 OA
HETATM   13  C   UNL     1       9.394  30.966  60.637  1.00  0.00     0.041 A 
HETATM   14  C   UNL     1       7.999  32.163  61.893  1.00  0.00     0.142 A 
HETATM   15  C   UNL     1       9.306  31.751  61.812  1.00  0.00     0.027 A 
ENDBRANCH   1   5
BRANCH   2  16
HETATM   16  C   UNL     1       6.716  26.099  54.969  1.00  0.00     0.102 A 
HETATM   17  C   UNL     1       7.566  24.882  55.266  1.00  0.00     0.218 A 
HETATM   18  O   UNL     1       8.269  24.863  56.276  1.00  0.00    -0.284 OA
HETATM   19  C   UNL     1       7.510  23.734  54.297  1.00  0.00     0.078 A 
HETATM   20 BR   UNL     1       8.532  22.214  54.612  1.00  0.00    -0.045 Br
HETATM   21  C   UNL     1       6.706  23.872  53.231  1.00  0.00     0.111 A 
HETATM   22  N   UNL     1       5.950  24.989  52.995  1.00  0.00    -0.372 N 
HETATM   23  C   UNL     1       5.971  26.059  53.853  1.00  0.00     0.121 A 
HETATM   24  H   UNL     1       5.363  25.033  52.166  1.00  0.00     0.164 HD
ENDBRANCH   2  16
TORSDOF 2
ENDMDL
MODEL 8
REMARK VINA RESULT:      -7.6      3.190      5.186
REMARK  2 active torsions:
REMARK  status: ('A' for Active; 'I' for Inactive)
REMARK    1  A    between atoms: C_9  and  C_10 
REMARK       I    between atoms: C_10  and  N_11 
REMARK    2  A    between atoms: N_11  and  C_12 
ROOT
HETATM    1  C   UNL     1       8.081  31.226  59.033  1.00  0.00     0.276 C 
HETATM    2  N   UNL     1       6.975  31.239  59.855  1.00  0.00    -0.317 N 
HETATM    3  O   UNL     1       8.886  32.143  58.902  1.00  0.00    -0.266 OA
HETATM    4  H   UNL     1       6.419  30.380  59.842  1.00  0.00     0.169 HD
ENDROOT
BRANCH   1   5
HETATM    5  C   UNL     1       8.219  29.959  58.296  1.00  0.00     0.147 A 
HETATM    6  N   UNL     1       9.384  29.588  57.724  1.00  0.00    -0.169 NA
HETATM    7  N   UNL     1       9.105  28.392  57.170  1.00  0.00    -0.275 N 
HETATM    8  C   UNL     1       7.816  27.982  57.355  1.00  0.00     0.086 A 
HETATM    9  H   UNL     1       9.838  27.897  56.672  1.00  0.00     0.189 HD
HETATM   10  C   UNL     1       7.332  26.744  56.846  1.00  0.00     0.103 A 
HETATM   11  C   UNL     1       7.211  28.980  58.082  1.00  0.00     0.073 A 
HETATM   12  O   UNL     1       8.137  25.871  56.161  1.00  0.00    -0.320 OA
HETATM   13  C   UNL     1       6.060  26.201  56.927  1.00  0.00     0.041 A 
HETATM   14  C   UNL     1       7.385  24.796  55.819  1.00  0.00     0.142 A 
HETATM   15  C   UNL     1       6.097  24.950  56.266  1.00  0.00     0.027 A 
ENDBRANCH   1   5
BRANCH   2  16
HETATM   16  C   UNL     1       6.517  32.241  60.677  1.00  0.00     0.102 A 
HETATM   17  C   UNL     1       7.106  32.288  62.071  1.00  0.00     0.218 A 
HETATM   18  O   UNL     1       7.948  31.454  62.403  1.00  0.00    -0.284 OA
HETATM   19  C   UNL     1       6.626  33.368  62.999  1.00  0.00     0.078 A 
HETATM   20 BR   UNL     1       7.314  33.473  64.723  1.00  0.00    -0.045 Br
HETATM   21  C   UNL     1       5.704  34.220  62.523  1.00  0.00     0.111 A 
HETATM   22  N   UNL     1       5.195  34.148  61.254  1.00  0.00    -0.372 N 
HETATM   23  C   UNL     1       5.604  33.178  60.375  1.00  0.00     0.121 A 
HETATM   24  H   UNL     1       4.495  34.822  60.954  1.00  0.00     0.164 HD
ENDBRANCH   2  16
TORSDOF 2
ENDMDL
MODEL 9
REMARK VINA RESULT:      -7.4      4.453      5.296
REMARK  2 active torsions:
REMARK  status: ('A' for Active; 'I' for Inactive)
REMARK    1  A    between atoms: C_9  and  C_10 
REMARK       I    between atoms: C_10  and  N_11 
REMARK    2  A    between atoms: N_11  and  C_12 
ROOT
HETATM    1  C   UNL     1       5.837  26.819  54.694  1.00  0.00     0.276 C 
HETATM    2  N   UNL     1       6.265  28.119  54.859  1.00  0.00    -0.317 N 
HETATM    3  O   UNL     1       5.792  25.964  55.572  1.00  0.00    -0.266 OA
HETATM    4  H   UNL     1       6.226  28.695  54.014  1.00  0.00     0.169 HD
ENDROOT
BRANCH   1   5
HETATM    5  C   UNL     1       5.420  26.536  53.310  1.00  0.00     0.147 A 
HETATM    6  N   UNL     1       4.819  25.377  52.968  1.00  0.00    -0.169 NA
HETATM    7  N   UNL     1       4.592  25.509  51.646  1.00  0.00    -0.275 N 
HETATM    8  C   UNL     1       5.025  26.694  51.125  1.00  0.00     0.086 A 
HETATM    9  H   UNL     1       4.136  24.752  51.147  1.00  0.00     0.189 HD
HETATM   10  C   UNL     1       4.872  27.019  49.748  1.00  0.00     0.103 A 
HETATM   11  C   UNL     1       5.571  27.385  52.181  1.00  0.00     0.073 A 
HETATM   12  O   UNL     1       4.255  26.174  48.862  1.00  0.00    -0.320 OA
HETATM   13  C   UNL     1       5.274  28.156  49.067  1.00  0.00     0.041 A 
HETATM   14  C   UNL     1       4.268  26.770  47.644  1.00  0.00     0.142 A 
HETATM   15  C   UNL     1       4.885  27.994  47.715  1.00  0.00     0.027 A 
ENDBRANCH   1   5
BRANCH   2  16
HETATM   16  C   UNL     1       6.737  28.739  55.992  1.00  0.00     0.102 A 
HETATM   17  C   UNL     1       8.203  29.117  55.990  1.00  0.00     0.218 A 
HETATM   18  O   UNL     1       8.894  28.866  55.003  1.00  0.00    -0.284 OA
HETATM   19  C   UNL     1       8.754  29.793  57.214  1.00  0.00     0.078 A 
HETATM   20 BR   UNL     1      10.547  30.279  57.267  1.00  0.00    -0.045 Br
HETATM   21  C   UNL     1       7.902  30.014  58.227  1.00  0.00     0.111 A 
HETATM   22  N   UNL     1       6.580  29.659  58.193  1.00  0.00    -0.372 N 
HETATM   23  C   UNL     1       6.036  29.040  57.096  1.00  0.00     0.121 A 
HETATM   24  H   UNL     1       5.987  29.851  58.995  1.00  0.00     0.164 HD
ENDBRANCH   2  16
TORSDOF 2
ENDMDL
MODEL 10
REMARK VINA RESULT:      -7.4      1.738      2.019
REMARK  2 active torsions:
REMARK  status: ('A' for Active; 'I' for Inactive)
REMARK    1  A    between atoms: C_9  and  C_10 
REMARK       I    between atoms: C_10  and  N_11 
REMARK    2  A    between atoms: N_11  and  C_12 
ROOT
HETATM    1  C   UNL     1       5.944  28.014  56.313  1.00  0.00     0.276 C 
HETATM    2  N   UNL     1       6.880  28.949  56.699  1.00  0.00    -0.317 N 
HETATM    3  O   UNL     1       4.755  28.024  56.618  1.00  0.00    -0.266 OA
HETATM    4  H   UNL     1       7.824  28.785  56.342  1.00  0.00     0.169 HD
ENDROOT
BRANCH   1   5
HETATM    5  C   UNL     1       6.520  26.958  55.465  1.00  0.00     0.147 A 
HETATM    6  N   UNL     1       7.036  27.223  54.246  1.00  0.00    -0.169 NA
HETATM    7  N   UNL     1       7.462  26.022  53.807  1.00  0.00    -0.275 N 
HETATM    8  C   UNL     1       7.238  25.000  54.686  1.00  0.00     0.086 A 
HETATM    9  H   UNL     1       7.900  25.958  52.894  1.00  0.00     0.189 HD
HETATM   10  C   UNL     1       7.621  23.658  54.403  1.00  0.00     0.103 A 
HETATM   11  C   UNL     1       6.625  25.575  55.774  1.00  0.00     0.073 A 
HETATM   12  O   UNL     1       8.262  23.311  53.242  1.00  0.00    -0.320 OA
HETATM   13  C   UNL     1       7.445  22.518  55.169  1.00  0.00     0.041 A 
HETATM   14  C   UNL     1       8.489  21.975  53.279  1.00  0.00     0.142 A 
HETATM   15  C   UNL     1       8.004  21.437  54.445  1.00  0.00     0.027 A 
ENDBRANCH   1   5
BRANCH   2  16
HETATM   16  C   UNL     1       6.719  30.059  57.495  1.00  0.00     0.102 A 
HETATM   17  C   UNL     1       7.658  30.180  58.677  1.00  0.00     0.218 A 
HETATM   18  O   UNL     1       8.504  29.308  58.872  1.00  0.00    -0.284 OA
HETATM   19  C   UNL     1       7.509  31.378  59.571  1.00  0.00     0.078 A 
HETATM   20 BR   UNL     1       8.634  31.578  61.037  1.00  0.00    -0.045 Br
HETATM   21  C   UNL     1       6.548  32.261  59.256  1.00  0.00     0.111 A 
HETATM   22  N   UNL     1       5.718  32.120  58.177  1.00  0.00    -0.372 N 
HETATM   23  C   UNL     1       5.819  31.041  57.335  1.00  0.00     0.121 A 
HETATM   24  H   UNL     1       5.006  32.823  57.994  1.00  0.00     0.164 HD
ENDBRANCH   2  16
TORSDOF 2
ENDMDL
