MODEL 1
REMARK VINA RESULT:     -10.5      0.000      0.000
REMARK  9 active torsions:
REMARK  status: ('A' for Active; 'I' for Inactive)
REMARK    1  A    between atoms: C_4  and  C_5 
REMARK    2  A    between atoms: C_13  and  C_14 
REMARK    3  A    between atoms: C_14  and  N_15 
REMARK    4  A    between atoms: C_19  and  C_20 
REMARK       I    between atoms: C_20  and  N_21 
REMARK    5  A    between atoms: N_21  and  C_22 
REMARK    6  A    between atoms: C_22  and  C_23 
REMARK    7  A    between atoms: C_23  and  C_24 
REMARK    8  A    between atoms: C_24  and  N_25 
REMARK    9  A    between atoms: N_29  and  C_30 
ROOT
HETATM    1  N   UNL     1       5.909  29.936  57.872  1.00  0.00    -0.066 N 
HETATM    2  H   UNL     1       5.492  29.831  58.810  1.00  0.00     0.280 HD
HETATM    3  C   UNL     1       5.373  31.223  57.301  1.00  0.00     0.236 C 
HETATM    4  C   UNL     1       3.885  31.089  56.984  1.00  0.00     0.042 C 
HETATM    5  C   UNL     1       3.603  29.925  56.032  1.00  0.00     0.081 C 
HETATM    6  C   UNL     1       4.160  28.631  56.626  1.00  0.00     0.042 C 
HETATM    7  C   UNL     1       5.622  28.715  57.042  1.00  0.00     0.236 C 
ENDROOT
BRANCH   5   8
HETATM    8  C   UNL     1       4.195  30.252  54.662  1.00  0.00     0.221 C 
HETATM    9  N   UNL     1       4.514  29.156  53.895  1.00  0.00    -0.361 N 
HETATM   10  H   UNL     1       4.380  28.226  54.285  1.00  0.00     0.162 HD
HETATM   11  O   UNL     1       4.263  31.403  54.239  1.00  0.00    -0.273 OA
BRANCH   9  12
HETATM   12  C   UNL     1       4.754  29.256  52.466  1.00  0.00     0.124 C 
BRANCH  12  13
HETATM   13  C   UNL     1       4.308  28.028  51.664  1.00  0.00     0.047 C 
BRANCH  13  14
HETATM   14  C   UNL     1       4.504  26.765  52.501  1.00  0.00     0.236 C 
BRANCH  14  15
HETATM   15  N   UNL     1       5.963  26.492  52.797  1.00  0.00    -0.068 N 
HETATM   16  H   UNL     1       6.501  27.360  52.668  1.00  0.00     0.280 HD
HETATM   17  C   UNL     1       6.138  26.086  54.277  1.00  0.00     0.254 C 
HETATM   18  C   UNL     1       7.610  25.757  54.603  1.00  0.00     0.150 C 
HETATM   19  N   UNL     1       8.157  24.757  53.670  1.00  0.00    -0.378 N 
HETATM   20  C   UNL     1       8.056  25.155  52.252  1.00  0.00     0.150 C 
HETATM   21  C   UNL     1       6.582  25.426  51.875  1.00  0.00     0.254 C 
BRANCH  19  22
HETATM   22  C   UNL     1       8.082  23.391  53.955  1.00  0.00     0.031 A 
HETATM   23  C   UNL     1       8.203  22.863  55.248  1.00  0.00     0.053 A 
HETATM   24  C   UNL     1       8.109  21.485  55.488  1.00  0.00     0.036 A 
HETATM   25 CL   UNL     1       8.217  20.902  57.105  1.00  0.00    -0.084 Cl
HETATM   26  C   UNL     1       7.918  20.591  54.444  1.00  0.00     0.024 A 
HETATM   27  C   UNL     1       7.831  21.081  53.147  1.00  0.00     0.004 A 
HETATM   28  C   UNL     1       7.917  22.459  52.912  1.00  0.00     0.029 A 
ENDBRANCH  19  22
ENDBRANCH  14  15
ENDBRANCH  13  14
ENDBRANCH  12  13
ENDBRANCH   9  12
ENDBRANCH   5   8
BRANCH   1  29
HETATM   29  C   UNL     1       7.411  30.013  58.139  1.00  0.00     0.296 C 
BRANCH  29  30
HETATM   30  C   UNL     1       7.824  30.970  59.195  1.00  0.00     0.092 A 
HETATM   31  C   UNL     1       9.016  31.650  59.317  1.00  0.00     0.078 A 
HETATM   32  C   UNL     1      10.266  31.721  58.539  1.00  0.00     0.079 C 
HETATM   33  O   UNL     1       8.941  32.420  60.438  1.00  0.00    -0.294 OA
HETATM   34  C   UNL     1       7.701  32.162  60.961  1.00  0.00     0.180 A 
HETATM   35  N   UNL     1       6.991  31.298  60.249  1.00  0.00    -0.224 NA
BRANCH  34  36
HETATM   36  C   UNL     1       7.352  32.886  62.180  1.00  0.00     0.019 A 
HETATM   37  C   UNL     1       6.378  33.894  62.137  1.00  0.00     0.039 A 
HETATM   38  C   UNL     1       6.044  34.602  63.293  1.00  0.00     0.035 A 
HETATM   39 CL   UNL     1       4.855  35.842  63.210  1.00  0.00    -0.084 Cl
HETATM   40  C   UNL     1       6.666  34.317  64.505  1.00  0.00     0.024 A 
HETATM   41  C   UNL     1       7.633  33.316  64.564  1.00  0.00     0.003 A 
HETATM   42  C   UNL     1       7.973  32.606  63.409  1.00  0.00     0.016 A 
ENDBRANCH  34  36
ENDBRANCH  29  30
ENDBRANCH   1  29
TORSDOF 9
ENDMDL
MODEL 2
REMARK VINA RESULT:     -10.2      1.544      2.255
REMARK  9 active torsions:
REMARK  status: ('A' for Active; 'I' for Inactive)
REMARK    1  A    between atoms: C_4  and  C_5 
REMARK    2  A    between atoms: C_13  and  C_14 
REMARK    3  A    between atoms: C_14  and  N_15 
REMARK    4  A    between atoms: C_19  and  C_20 
REMARK       I    between atoms: C_20  and  N_21 
REMARK    5  A    between atoms: N_21  and  C_22 
REMARK    6  A    between atoms: C_22  and  C_23 
REMARK    7  A    between atoms: C_23  and  C_24 
REMARK    8  A    between atoms: C_24  and  N_25 
REMARK    9  A    between atoms: N_29  and  C_30 
ROOT
HETATM    1  N   UNL     1       6.464  30.303  58.496  1.00  0.00    -0.066 N 
HETATM    2  H   UNL     1       6.197  29.968  59.434  1.00  0.00     0.280 HD
HETATM    3  C   UNL     1       5.274  30.076  57.600  1.00  0.00     0.236 C 
HETATM    4  C   UNL     1       5.057  28.582  57.366  1.00  0.00     0.042 C 
HETATM    5  C   UNL     1       6.299  27.906  56.783  1.00  0.00     0.081 C 
HETATM    6  C   UNL     1       7.496  28.153  57.702  1.00  0.00     0.042 C 
HETATM    7  C   UNL     1       7.726  29.618  58.046  1.00  0.00     0.236 C 
ENDROOT
BRANCH   5   8
HETATM    8  C   UNL     1       6.525  28.424  55.363  1.00  0.00     0.221 C 
HETATM    9  N   UNL     1       5.377  28.620  54.631  1.00  0.00    -0.361 N 
HETATM   10  H   UNL     1       4.481  28.380  55.047  1.00  0.00     0.162 HD
HETATM   11  O   UNL     1       7.636  28.753  54.959  1.00  0.00    -0.273 OA
BRANCH   9  12
HETATM   12  C   UNL     1       5.362  29.418  53.417  1.00  0.00     0.124 C 
BRANCH  12  13
HETATM   13  C   UNL     1       5.603  28.616  52.134  1.00  0.00     0.047 C 
BRANCH  13  14
HETATM   14  C   UNL     1       4.744  27.352  52.145  1.00  0.00     0.236 C 
BRANCH  14  15
HETATM   15  N   UNL     1       5.569  26.093  51.988  1.00  0.00    -0.068 N 
HETATM   16  H   UNL     1       5.564  25.809  50.999  1.00  0.00     0.280 HD
HETATM   17  C   UNL     1       7.043  26.376  52.353  1.00  0.00     0.254 C 
HETATM   18  C   UNL     1       7.907  25.102  52.246  1.00  0.00     0.150 C 
HETATM   19  N   UNL     1       7.329  23.994  53.027  1.00  0.00    -0.378 N 
HETATM   20  C   UNL     1       5.940  23.667  52.648  1.00  0.00     0.150 C 
HETATM   21  C   UNL     1       5.034  24.907  52.810  1.00  0.00     0.254 C 
BRANCH  19  22
HETATM   22  C   UNL     1       7.691  23.787  54.360  1.00  0.00     0.031 A 
HETATM   23  C   UNL     1       7.897  22.517  54.919  1.00  0.00     0.053 A 
HETATM   24  C   UNL     1       8.272  22.359  56.260  1.00  0.00     0.036 A 
HETATM   25 CL   UNL     1       8.556  20.776  56.874  1.00  0.00    -0.084 Cl
HETATM   26  C   UNL     1       8.428  23.459  57.090  1.00  0.00     0.024 A 
HETATM   27  C   UNL     1       8.196  24.729  56.576  1.00  0.00     0.004 A 
HETATM   28  C   UNL     1       7.829  24.884  55.233  1.00  0.00     0.029 A 
ENDBRANCH  19  22
ENDBRANCH  14  15
ENDBRANCH  13  14
ENDBRANCH  12  13
ENDBRANCH   9  12
ENDBRANCH   5   8
BRANCH   1  29
HETATM   29  C   UNL     1       6.751  31.789  58.697  1.00  0.00     0.296 C 
BRANCH  29  30
HETATM   30  C   UNL     1       7.153  32.182  60.070  1.00  0.00     0.092 A 
HETATM   31  C   UNL     1       8.422  32.276  60.598  1.00  0.00     0.078 A 
HETATM   32  C   UNL     1       9.788  32.052  60.088  1.00  0.00     0.079 C 
HETATM   33  O   UNL     1       8.304  32.679  61.893  1.00  0.00    -0.294 OA
HETATM   34  C   UNL     1       6.955  32.803  62.103  1.00  0.00     0.180 A 
HETATM   35  N   UNL     1       6.222  32.517  61.036  1.00  0.00    -0.224 NA
BRANCH  34  36
HETATM   36  C   UNL     1       6.546  33.248  63.432  1.00  0.00     0.019 A 
HETATM   37  C   UNL     1       5.207  33.587  63.671  1.00  0.00     0.039 A 
HETATM   38  C   UNL     1       4.805  34.027  64.934  1.00  0.00     0.035 A 
HETATM   39 CL   UNL     1       3.159  34.447  65.198  1.00  0.00    -0.084 Cl
HETATM   40  C   UNL     1       5.724  34.132  65.975  1.00  0.00     0.024 A 
HETATM   41  C   UNL     1       7.057  33.796  65.753  1.00  0.00     0.003 A 
HETATM   42  C   UNL     1       7.465  33.358  64.489  1.00  0.00     0.016 A 
ENDBRANCH  34  36
ENDBRANCH  29  30
ENDBRANCH   1  29
TORSDOF 9
ENDMDL
MODEL 3
REMARK VINA RESULT:     -10.2      2.028     11.848
REMARK  9 active torsions:
REMARK  status: ('A' for Active; 'I' for Inactive)
REMARK    1  A    between atoms: C_4  and  C_5 
REMARK    2  A    between atoms: C_13  and  C_14 
REMARK    3  A    between atoms: C_14  and  N_15 
REMARK    4  A    between atoms: C_19  and  C_20 
REMARK       I    between atoms: C_20  and  N_21 
REMARK    5  A    between atoms: N_21  and  C_22 
REMARK    6  A    between atoms: C_22  and  C_23 
REMARK    7  A    between atoms: C_23  and  C_24 
REMARK    8  A    between atoms: C_24  and  N_25 
REMARK    9  A    between atoms: N_29  and  C_30 
ROOT
HETATM    1  N   UNL     1       5.557  28.030  54.805  1.00  0.00    -0.066 N 
HETATM    2  H   UNL     1       4.840  27.307  54.642  1.00  0.00     0.280 HD
HETATM    3  C   UNL     1       6.028  27.862  56.226  1.00  0.00     0.236 C 
HETATM    4  C   UNL     1       4.927  28.266  57.206  1.00  0.00     0.042 C 
HETATM    5  C   UNL     1       4.446  29.698  56.970  1.00  0.00     0.081 C 
HETATM    6  C   UNL     1       3.979  29.850  55.522  1.00  0.00     0.042 C 
HETATM    7  C   UNL     1       4.997  29.391  54.488  1.00  0.00     0.236 C 
ENDROOT
BRANCH   5   8
HETATM    8  C   UNL     1       5.572  30.665  57.335  1.00  0.00     0.221 C 
HETATM    9  N   UNL     1       6.515  30.154  58.195  1.00  0.00    -0.361 N 
HETATM   10  H   UNL     1       6.393  29.211  58.556  1.00  0.00     0.162 HD
HETATM   11  O   UNL     1       5.683  31.766  56.803  1.00  0.00    -0.273 OA
BRANCH   9  12
HETATM   12  C   UNL     1       7.813  30.780  58.379  1.00  0.00     0.124 C 
BRANCH  12  13
HETATM   13  C   UNL     1       8.494  30.439  59.709  1.00  0.00     0.047 C 
BRANCH  13  14
HETATM   14  C   UNL     1       8.240  31.555  60.721  1.00  0.00     0.236 C 
BRANCH  14  15
HETATM   15  N   UNL     1       6.784  31.649  61.122  1.00  0.00    -0.068 N 
HETATM   16  H   UNL     1       6.279  30.832  60.750  1.00  0.00     0.280 HD
HETATM   17  C   UNL     1       6.650  31.582  62.659  1.00  0.00     0.254 C 
HETATM   18  C   UNL     1       5.179  31.719  63.105  1.00  0.00     0.150 C 
HETATM   19  N   UNL     1       4.553  32.923  62.530  1.00  0.00    -0.378 N 
HETATM   20  C   UNL     1       4.615  32.973  61.057  1.00  0.00     0.150 C 
HETATM   21  C   UNL     1       6.082  32.907  60.579  1.00  0.00     0.254 C 
BRANCH  19  22
HETATM   22  C   UNL     1       4.579  34.142  63.211  1.00  0.00     0.031 A 
HETATM   23  C   UNL     1       5.304  35.259  62.771  1.00  0.00     0.053 A 
HETATM   24  C   UNL     1       5.290  36.468  63.481  1.00  0.00     0.036 A 
HETATM   25 CL   UNL     1       6.163  37.817  62.863  1.00  0.00    -0.084 Cl
HETATM   26  C   UNL     1       4.575  36.591  64.663  1.00  0.00     0.024 A 
HETATM   27  C   UNL     1       3.876  35.492  65.145  1.00  0.00     0.004 A 
HETATM   28  C   UNL     1       3.885  34.287  64.428  1.00  0.00     0.029 A 
ENDBRANCH  19  22
ENDBRANCH  14  15
ENDBRANCH  13  14
ENDBRANCH  12  13
ENDBRANCH   9  12
ENDBRANCH   5   8
BRANCH   1  29
HETATM   29  C   UNL     1       6.656  27.699  53.797  1.00  0.00     0.296 C 
BRANCH  29  30
HETATM   30  C   UNL     1       6.736  26.277  53.384  1.00  0.00     0.092 A 
HETATM   31  C   UNL     1       6.290  25.697  52.215  1.00  0.00     0.078 A 
HETATM   32  C   UNL     1       5.614  26.181  50.998  1.00  0.00     0.079 C 
HETATM   33  O   UNL     1       6.584  24.369  52.273  1.00  0.00    -0.294 OA
HETATM   34  C   UNL     1       7.191  24.194  53.489  1.00  0.00     0.180 A 
HETATM   35  N   UNL     1       7.306  25.312  54.193  1.00  0.00    -0.224 NA
BRANCH  34  36
HETATM   36  C   UNL     1       7.631  22.837  53.802  1.00  0.00     0.019 A 
HETATM   37  C   UNL     1       7.813  22.455  55.139  1.00  0.00     0.039 A 
HETATM   38  C   UNL     1       8.246  21.165  55.452  1.00  0.00     0.035 A 
HETATM   39 CL   UNL     1       8.471  20.725  57.099  1.00  0.00    -0.084 Cl
HETATM   40  C   UNL     1       8.500  20.238  54.445  1.00  0.00     0.024 A 
HETATM   41  C   UNL     1       8.321  20.602  53.113  1.00  0.00     0.003 A 
HETATM   42  C   UNL     1       7.890  21.894  52.794  1.00  0.00     0.016 A 
ENDBRANCH  34  36
ENDBRANCH  29  30
ENDBRANCH   1  29
TORSDOF 9
ENDMDL
MODEL 4
REMARK VINA RESULT:     -10.1      4.231      6.517
REMARK  9 active torsions:
REMARK  status: ('A' for Active; 'I' for Inactive)
REMARK    1  A    between atoms: C_4  and  C_5 
REMARK    2  A    between atoms: C_13  and  C_14 
REMARK    3  A    between atoms: C_14  and  N_15 
REMARK    4  A    between atoms: C_19  and  C_20 
REMARK       I    between atoms: C_20  and  N_21 
REMARK    5  A    between atoms: N_21  and  C_22 
REMARK    6  A    between atoms: C_22  and  C_23 
REMARK    7  A    between atoms: C_23  and  C_24 
REMARK    8  A    between atoms: C_24  and  N_25 
REMARK    9  A    between atoms: N_29  and  C_30 
ROOT
HETATM    1  N   UNL     1       7.142  27.666  57.037  1.00  0.00    -0.066 N 
HETATM    2  H   UNL     1       6.747  27.851  57.972  1.00  0.00     0.280 HD
HETATM    3  C   UNL     1       5.981  27.349  56.131  1.00  0.00     0.236 C 
HETATM    4  C   UNL     1       5.367  25.999  56.501  1.00  0.00     0.042 C 
HETATM    5  C   UNL     1       6.398  24.870  56.461  1.00  0.00     0.081 C 
HETATM    6  C   UNL     1       7.570  25.214  57.381  1.00  0.00     0.042 C 
HETATM    7  C   UNL     1       8.183  26.583  57.124  1.00  0.00     0.236 C 
ENDROOT
BRANCH   5   8
HETATM    8  C   UNL     1       6.828  24.641  55.013  1.00  0.00     0.221 C 
HETATM    9  N   UNL     1       5.817  24.750  54.087  1.00  0.00    -0.361 N 
HETATM   10  H   UNL     1       4.869  24.929  54.411  1.00  0.00     0.162 HD
HETATM   11  O   UNL     1       8.006  24.496  54.698  1.00  0.00    -0.273 OA
BRANCH   9  12
HETATM   12  C   UNL     1       6.082  24.909  52.668  1.00  0.00     0.124 C 
BRANCH  12  13
HETATM   13  C   UNL     1       6.464  26.335  52.256  1.00  0.00     0.047 C 
BRANCH  13  14
HETATM   14  C   UNL     1       5.250  27.041  51.653  1.00  0.00     0.236 C 
BRANCH  14  15
HETATM   15  N   UNL     1       5.375  27.225  50.156  1.00  0.00    -0.068 N 
HETATM   16  H   UNL     1       6.352  27.059  49.877  1.00  0.00     0.280 HD
HETATM   17  C   UNL     1       4.525  26.168  49.418  1.00  0.00     0.254 C 
HETATM   18  C   UNL     1       4.595  26.354  47.888  1.00  0.00     0.150 C 
HETATM   19  N   UNL     1       4.254  27.733  47.497  1.00  0.00    -0.378 N 
HETATM   20  C   UNL     1       5.098  28.756  48.145  1.00  0.00     0.150 C 
HETATM   21  C   UNL     1       4.996  28.640  49.682  1.00  0.00     0.254 C 
BRANCH  19  22
HETATM   22  C   UNL     1       2.937  28.091  47.198  1.00  0.00     0.031 A 
HETATM   23  C   UNL     1       2.539  29.404  46.904  1.00  0.00     0.053 A 
HETATM   24  C   UNL     1       1.207  29.714  46.596  1.00  0.00     0.036 A 
HETATM   25 CL   UNL     1       0.791  31.337  46.198  1.00  0.00    -0.084 Cl
HETATM   26  C   UNL     1       0.229  28.731  46.597  1.00  0.00     0.024 A 
HETATM   27  C   UNL     1       0.584  27.428  46.920  1.00  0.00     0.004 A 
HETATM   28  C   UNL     1       1.918  27.119  47.219  1.00  0.00     0.029 A 
ENDBRANCH  19  22
ENDBRANCH  14  15
ENDBRANCH  13  14
ENDBRANCH  12  13
ENDBRANCH   9  12
ENDBRANCH   5   8
BRANCH   1  29
HETATM   29  C   UNL     1       7.822  28.979  56.653  1.00  0.00     0.296 C 
BRANCH  29  30
HETATM   30  C   UNL     1       8.296  29.809  57.788  1.00  0.00     0.092 A 
HETATM   31  C   UNL     1       9.580  30.224  58.069  1.00  0.00     0.078 A 
HETATM   32  C   UNL     1      10.900  30.047  57.437  1.00  0.00     0.079 C 
HETATM   33  O   UNL     1       9.534  30.971  59.206  1.00  0.00    -0.294 OA
HETATM   34  C   UNL     1       8.215  30.968  59.578  1.00  0.00     0.180 A 
HETATM   35  N   UNL     1       7.431  30.284  58.756  1.00  0.00    -0.224 NA
BRANCH  34  36
HETATM   36  C   UNL     1       7.881  31.725  60.781  1.00  0.00     0.019 A 
HETATM   37  C   UNL     1       6.791  32.608  60.768  1.00  0.00     0.039 A 
HETATM   38  C   UNL     1       6.469  33.348  61.907  1.00  0.00     0.035 A 
HETATM   39 CL   UNL     1       5.135  34.432  61.861  1.00  0.00    -0.084 Cl
HETATM   40  C   UNL     1       7.219  33.220  63.073  1.00  0.00     0.024 A 
HETATM   41  C   UNL     1       8.301  32.345  63.102  1.00  0.00     0.003 A 
HETATM   42  C   UNL     1       8.630  31.603  61.963  1.00  0.00     0.016 A 
ENDBRANCH  34  36
ENDBRANCH  29  30
ENDBRANCH   1  29
TORSDOF 9
ENDMDL
MODEL 5
REMARK VINA RESULT:     -10.0      2.521     11.072
REMARK  9 active torsions:
REMARK  status: ('A' for Active; 'I' for Inactive)
REMARK    1  A    between atoms: C_4  and  C_5 
REMARK    2  A    between atoms: C_13  and  C_14 
REMARK    3  A    between atoms: C_14  and  N_15 
REMARK    4  A    between atoms: C_19  and  C_20 
REMARK       I    between atoms: C_20  and  N_21 
REMARK    5  A    between atoms: N_21  and  C_22 
REMARK    6  A    between atoms: C_22  and  C_23 
REMARK    7  A    between atoms: C_23  and  C_24 
REMARK    8  A    between atoms: C_24  and  N_25 
REMARK    9  A    between atoms: N_29  and  C_30 
ROOT
HETATM    1  N   UNL     1       5.258  28.217  54.251  1.00  0.00    -0.066 N 
HETATM    2  H   UNL     1       4.601  27.436  54.104  1.00  0.00     0.280 HD
HETATM    3  C   UNL     1       5.387  28.400  55.741  1.00  0.00     0.236 C 
HETATM    4  C   UNL     1       4.088  28.950  56.327  1.00  0.00     0.042 C 
HETATM    5  C   UNL     1       3.671  30.264  55.664  1.00  0.00     0.081 C 
HETATM    6  C   UNL     1       3.552  30.060  54.153  1.00  0.00     0.042 C 
HETATM    7  C   UNL     1       4.784  29.437  53.510  1.00  0.00     0.236 C 
ENDROOT
BRANCH   5   8
HETATM    8  C   UNL     1       4.678  31.350  56.038  1.00  0.00     0.221 C 
HETATM    9  N   UNL     1       4.311  32.626  55.680  1.00  0.00    -0.361 N 
HETATM   10  H   UNL     1       3.441  32.763  55.171  1.00  0.00     0.162 HD
HETATM   11  O   UNL     1       5.675  31.109  56.714  1.00  0.00    -0.273 OA
BRANCH   9  12
HETATM   12  C   UNL     1       4.951  33.801  56.244  1.00  0.00     0.124 C 
BRANCH  12  13
HETATM   13  C   UNL     1       4.833  33.913  57.769  1.00  0.00     0.047 C 
BRANCH  13  14
HETATM   14  C   UNL     1       3.364  34.055  58.164  1.00  0.00     0.236 C 
BRANCH  14  15
HETATM   15  N   UNL     1       3.125  33.719  59.620  1.00  0.00    -0.068 N 
HETATM   16  H   UNL     1       2.112  33.679  59.795  1.00  0.00     0.280 HD
HETATM   17  C   UNL     1       3.678  32.312  59.938  1.00  0.00     0.254 C 
HETATM   18  C   UNL     1       3.490  31.954  61.427  1.00  0.00     0.150 C 
HETATM   19  N   UNL     1       4.048  32.997  62.306  1.00  0.00    -0.378 N 
HETATM   20  C   UNL     1       3.484  34.339  62.060  1.00  0.00     0.150 C 
HETATM   21  C   UNL     1       3.718  34.756  60.591  1.00  0.00     0.254 C 
BRANCH  19  22
HETATM   22  C   UNL     1       5.371  32.933  62.749  1.00  0.00     0.031 A 
HETATM   23  C   UNL     1       6.441  32.533  61.934  1.00  0.00     0.053 A 
HETATM   24  C   UNL     1       7.756  32.496  62.419  1.00  0.00     0.036 A 
HETATM   25 CL   UNL     1       9.032  32.041  61.356  1.00  0.00    -0.084 Cl
HETATM   26  C   UNL     1       8.040  32.832  63.734  1.00  0.00     0.024 A 
HETATM   27  C   UNL     1       6.997  33.198  64.576  1.00  0.00     0.004 A 
HETATM   28  C   UNL     1       5.685  33.242  64.086  1.00  0.00     0.029 A 
ENDBRANCH  19  22
ENDBRANCH  14  15
ENDBRANCH  13  14
ENDBRANCH  12  13
ENDBRANCH   9  12
ENDBRANCH   5   8
BRANCH   1  29
HETATM   29  C   UNL     1       6.563  27.730  53.622  1.00  0.00     0.296 C 
BRANCH  29  30
HETATM   30  C   UNL     1       6.611  26.285  53.290  1.00  0.00     0.092 A 
HETATM   31  C   UNL     1       6.086  25.640  52.192  1.00  0.00     0.078 A 
HETATM   32  C   UNL     1       5.330  26.053  50.996  1.00  0.00     0.079 C 
HETATM   33  O   UNL     1       6.381  24.315  52.309  1.00  0.00    -0.294 OA
HETATM   34  C   UNL     1       7.067  24.210  53.490  1.00  0.00     0.180 A 
HETATM   35  N   UNL     1       7.233  25.367  54.116  1.00  0.00    -0.224 NA
BRANCH  34  36
HETATM   36  C   UNL     1       7.525  22.872  53.854  1.00  0.00     0.019 A 
HETATM   37  C   UNL     1       7.733  22.549  55.203  1.00  0.00     0.039 A 
HETATM   38  C   UNL     1       8.183  21.278  55.563  1.00  0.00     0.035 A 
HETATM   39 CL   UNL     1       8.440  20.911  57.223  1.00  0.00    -0.084 Cl
HETATM   40  C   UNL     1       8.428  20.310  54.593  1.00  0.00     0.024 A 
HETATM   41  C   UNL     1       8.224  20.615  53.250  1.00  0.00     0.003 A 
HETATM   42  C   UNL     1       7.776  21.888  52.883  1.00  0.00     0.016 A 
ENDBRANCH  34  36
ENDBRANCH  29  30
ENDBRANCH   1  29
TORSDOF 9
ENDMDL
MODEL 6
REMARK VINA RESULT:     -10.0      4.594      9.449
REMARK  9 active torsions:
REMARK  status: ('A' for Active; 'I' for Inactive)
REMARK    1  A    between atoms: C_4  and  C_5 
REMARK    2  A    between atoms: C_13  and  C_14 
REMARK    3  A    between atoms: C_14  and  N_15 
REMARK    4  A    between atoms: C_19  and  C_20 
REMARK       I    between atoms: C_20  and  N_21 
REMARK    5  A    between atoms: N_21  and  C_22 
REMARK    6  A    between atoms: C_22  and  C_23 
REMARK    7  A    between atoms: C_23  and  C_24 
REMARK    8  A    between atoms: C_24  and  N_25 
REMARK    9  A    between atoms: N_29  and  C_30 
ROOT
HETATM    1  N   UNL     1       6.221  28.083  55.227  1.00  0.00    -0.066 N 
HETATM    2  H   UNL     1       6.197  27.200  55.759  1.00  0.00     0.280 HD
HETATM    3  C   UNL     1       6.924  29.094  56.097  1.00  0.00     0.236 C 
HETATM    4  C   UNL     1       6.057  29.458  57.301  1.00  0.00     0.042 C 
HETATM    5  C   UNL     1       4.682  29.981  56.881  1.00  0.00     0.081 C 
HETATM    6  C   UNL     1       3.989  28.946  55.995  1.00  0.00     0.042 C 
HETATM    7  C   UNL     1       4.828  28.474  54.815  1.00  0.00     0.236 C 
ENDROOT
BRANCH   5   8
HETATM    8  C   UNL     1       4.856  31.333  56.189  1.00  0.00     0.221 C 
HETATM    9  N   UNL     1       4.271  31.425  54.948  1.00  0.00    -0.361 N 
HETATM   10  H   UNL     1       3.808  30.607  54.560  1.00  0.00     0.162 HD
HETATM   11  O   UNL     1       5.372  32.292  56.756  1.00  0.00    -0.273 OA
BRANCH   9  12
HETATM   12  C   UNL     1       4.032  32.703  54.301  1.00  0.00     0.124 C 
BRANCH  12  13
HETATM   13  C   UNL     1       3.807  32.610  52.787  1.00  0.00     0.047 C 
BRANCH  13  14
HETATM   14  C   UNL     1       3.985  31.164  52.326  1.00  0.00     0.236 C 
BRANCH  14  15
HETATM   15  N   UNL     1       4.447  31.071  50.888  1.00  0.00    -0.068 N 
HETATM   16  H   UNL     1       5.040  31.884  50.672  1.00  0.00     0.280 HD
HETATM   17  C   UNL     1       5.332  29.821  50.694  1.00  0.00     0.254 C 
HETATM   18  C   UNL     1       5.786  29.671  49.227  1.00  0.00     0.150 C 
HETATM   19  N   UNL     1       4.638  29.705  48.303  1.00  0.00    -0.378 N 
HETATM   20  C   UNL     1       3.814  30.923  48.430  1.00  0.00     0.150 C 
HETATM   21  C   UNL     1       3.288  31.066  49.875  1.00  0.00     0.254 C 
BRANCH  19  22
HETATM   22  C   UNL     1       3.983  28.529  47.926  1.00  0.00     0.031 A 
HETATM   23  C   UNL     1       2.661  28.497  47.457  1.00  0.00     0.053 A 
HETATM   24  C   UNL     1       2.049  27.294  47.078  1.00  0.00     0.036 A 
HETATM   25 CL   UNL     1       0.440  27.325  46.464  1.00  0.00    -0.084 Cl
HETATM   26  C   UNL     1       2.725  26.087  47.179  1.00  0.00     0.024 A 
HETATM   27  C   UNL     1       4.023  26.083  47.675  1.00  0.00     0.004 A 
HETATM   28  C   UNL     1       4.635  27.287  48.045  1.00  0.00     0.029 A 
ENDBRANCH  19  22
ENDBRANCH  14  15
ENDBRANCH  13  14
ENDBRANCH  12  13
ENDBRANCH   9  12
ENDBRANCH   5   8
BRANCH   1  29
HETATM   29  C   UNL     1       7.032  27.746  53.977  1.00  0.00     0.296 C 
BRANCH  29  30
HETATM   30  C   UNL     1       6.995  26.324  53.557  1.00  0.00     0.092 A 
HETATM   31  C   UNL     1       6.419  25.778  52.430  1.00  0.00     0.078 A 
HETATM   32  C   UNL     1       5.671  26.306  51.274  1.00  0.00     0.079 C 
HETATM   33  O   UNL     1       6.641  24.434  52.460  1.00  0.00    -0.294 OA
HETATM   34  C   UNL     1       7.337  24.218  53.621  1.00  0.00     0.180 A 
HETATM   35  N   UNL     1       7.575  25.323  54.313  1.00  0.00    -0.224 NA
BRANCH  34  36
HETATM   36  C   UNL     1       7.724  22.837  53.893  1.00  0.00     0.019 A 
HETATM   37  C   UNL     1       7.934  22.420  55.216  1.00  0.00     0.039 A 
HETATM   38  C   UNL     1       8.317  21.106  55.489  1.00  0.00     0.035 A 
HETATM   39 CL   UNL     1       8.580  20.624  57.119  1.00  0.00    -0.084 Cl
HETATM   40  C   UNL     1       8.492  20.188  54.458  1.00  0.00     0.024 A 
HETATM   41  C   UNL     1       8.284  20.586  53.140  1.00  0.00     0.003 A 
HETATM   42  C   UNL     1       7.903  21.902  52.860  1.00  0.00     0.016 A 
ENDBRANCH  34  36
ENDBRANCH  29  30
ENDBRANCH   1  29
TORSDOF 9
ENDMDL
MODEL 7
REMARK VINA RESULT:      -9.9      2.245     11.866
REMARK  9 active torsions:
REMARK  status: ('A' for Active; 'I' for Inactive)
REMARK    1  A    between atoms: C_4  and  C_5 
REMARK    2  A    between atoms: C_13  and  C_14 
REMARK    3  A    between atoms: C_14  and  N_15 
REMARK    4  A    between atoms: C_19  and  C_20 
REMARK       I    between atoms: C_20  and  N_21 
REMARK    5  A    between atoms: N_21  and  C_22 
REMARK    6  A    between atoms: C_22  and  C_23 
REMARK    7  A    between atoms: C_23  and  C_24 
REMARK    8  A    between atoms: C_24  and  N_25 
REMARK    9  A    between atoms: N_29  and  C_30 
ROOT
HETATM    1  N   UNL     1       7.276  28.035  55.487  1.00  0.00    -0.066 N 
HETATM    2  H   UNL     1       7.817  27.227  55.831  1.00  0.00     0.280 HD
HETATM    3  C   UNL     1       8.059  29.269  55.855  1.00  0.00     0.236 C 
HETATM    4  C   UNL     1       8.041  29.482  57.368  1.00  0.00     0.042 C 
HETATM    5  C   UNL     1       6.617  29.571  57.919  1.00  0.00     0.081 C 
HETATM    6  C   UNL     1       5.838  28.315  57.529  1.00  0.00     0.042 C 
HETATM    7  C   UNL     1       5.878  27.992  56.042  1.00  0.00     0.236 C 
ENDROOT
BRANCH   5   8
HETATM    8  C   UNL     1       5.967  30.855  57.406  1.00  0.00     0.221 C 
HETATM    9  N   UNL     1       4.598  30.799  57.282  1.00  0.00    -0.361 N 
HETATM   10  H   UNL     1       4.120  29.927  57.493  1.00  0.00     0.162 HD
HETATM   11  O   UNL     1       6.609  31.888  57.237  1.00  0.00    -0.273 OA
BRANCH   9  12
HETATM   12  C   UNL     1       3.785  31.996  57.149  1.00  0.00     0.124 C 
BRANCH  12  13
HETATM   13  C   UNL     1       3.612  32.787  58.450  1.00  0.00     0.047 C 
BRANCH  13  14
HETATM   14  C   UNL     1       3.383  31.825  59.614  1.00  0.00     0.236 C 
BRANCH  14  15
HETATM   15  N   UNL     1       4.491  31.892  60.643  1.00  0.00    -0.068 N 
HETATM   16  H   UNL     1       5.123  31.091  60.509  1.00  0.00     0.280 HD
HETATM   17  C   UNL     1       5.342  33.162  60.425  1.00  0.00     0.254 C 
HETATM   18  C   UNL     1       6.456  33.285  61.486  1.00  0.00     0.150 C 
HETATM   19  N   UNL     1       5.911  33.192  62.852  1.00  0.00    -0.378 N 
HETATM   20  C   UNL     1       5.147  31.954  63.099  1.00  0.00     0.150 C 
HETATM   21  C   UNL     1       3.979  31.835  62.094  1.00  0.00     0.254 C 
BRANCH  19  22
HETATM   22  C   UNL     1       5.512  34.337  63.547  1.00  0.00     0.031 A 
HETATM   23  C   UNL     1       5.859  35.638  63.156  1.00  0.00     0.053 A 
HETATM   24  C   UNL     1       5.424  36.759  63.878  1.00  0.00     0.036 A 
HETATM   25 CL   UNL     1       5.843  38.334  63.321  1.00  0.00    -0.084 Cl
HETATM   26  C   UNL     1       4.654  36.614  65.023  1.00  0.00     0.024 A 
HETATM   27  C   UNL     1       4.326  35.336  65.456  1.00  0.00     0.004 A 
HETATM   28  C   UNL     1       4.754  34.218  64.727  1.00  0.00     0.029 A 
ENDBRANCH  19  22
ENDBRANCH  14  15
ENDBRANCH  13  14
ENDBRANCH  12  13
ENDBRANCH   9  12
ENDBRANCH   5   8
BRANCH   1  29
HETATM   29  C   UNL     1       7.216  27.829  53.974  1.00  0.00     0.296 C 
BRANCH  29  30
HETATM   30  C   UNL     1       7.131  26.417  53.526  1.00  0.00     0.092 A 
HETATM   31  C   UNL     1       6.540  25.914  52.387  1.00  0.00     0.078 A 
HETATM   32  C   UNL     1       5.813  26.491  51.241  1.00  0.00     0.079 C 
HETATM   33  O   UNL     1       6.716  24.564  52.391  1.00  0.00    -0.294 OA
HETATM   34  C   UNL     1       7.401  24.300  53.548  1.00  0.00     0.180 A 
HETATM   35  N   UNL     1       7.676  25.383  54.263  1.00  0.00    -0.224 NA
BRANCH  34  36
HETATM   36  C   UNL     1       7.740  22.901  53.794  1.00  0.00     0.019 A 
HETATM   37  C   UNL     1       7.963  22.459  55.105  1.00  0.00     0.039 A 
HETATM   38  C   UNL     1       8.301  21.127  55.353  1.00  0.00     0.035 A 
HETATM   39 CL   UNL     1       8.580  20.612  56.970  1.00  0.00    -0.084 Cl
HETATM   40  C   UNL     1       8.417  20.217  54.305  1.00  0.00     0.024 A 
HETATM   41  C   UNL     1       8.195  20.642  52.998  1.00  0.00     0.003 A 
HETATM   42  C   UNL     1       7.860  21.975  52.744  1.00  0.00     0.016 A 
ENDBRANCH  34  36
ENDBRANCH  29  30
ENDBRANCH   1  29
TORSDOF 9
ENDMDL
MODEL 8
REMARK VINA RESULT:      -9.8      3.678      9.827
REMARK  9 active torsions:
REMARK  status: ('A' for Active; 'I' for Inactive)
REMARK    1  A    between atoms: C_4  and  C_5 
REMARK    2  A    between atoms: C_13  and  C_14 
REMARK    3  A    between atoms: C_14  and  N_15 
REMARK    4  A    between atoms: C_19  and  C_20 
REMARK       I    between atoms: C_20  and  N_21 
REMARK    5  A    between atoms: N_21  and  C_22 
REMARK    6  A    between atoms: C_22  and  C_23 
REMARK    7  A    between atoms: C_23  and  C_24 
REMARK    8  A    between atoms: C_24  and  N_25 
REMARK    9  A    between atoms: N_29  and  C_30 
ROOT
HETATM    1  N   UNL     1       5.326  26.880  50.468  1.00  0.00    -0.066 N 
HETATM    2  H   UNL     1       6.159  26.326  50.217  1.00  0.00     0.280 HD
HETATM    3  C   UNL     1       4.273  26.569  49.436  1.00  0.00     0.236 C 
HETATM    4  C   UNL     1       4.662  27.158  48.081  1.00  0.00     0.042 C 
HETATM    5  C   UNL     1       4.903  28.666  48.158  1.00  0.00     0.081 C 
HETATM    6  C   UNL     1       5.968  28.961  49.214  1.00  0.00     0.042 C 
HETATM    7  C   UNL     1       5.687  28.336  50.574  1.00  0.00     0.236 C 
ENDROOT
BRANCH   5   8
HETATM    8  C   UNL     1       3.575  29.367  48.443  1.00  0.00     0.221 C 
HETATM    9  N   UNL     1       3.591  30.216  49.525  1.00  0.00    -0.361 N 
HETATM   10  H   UNL     1       4.443  30.295  50.076  1.00  0.00     0.162 HD
HETATM   11  O   UNL     1       2.611  29.268  47.689  1.00  0.00    -0.273 OA
BRANCH   9  12
HETATM   12  C   UNL     1       2.557  31.212  49.741  1.00  0.00     0.124 C 
BRANCH  12  13
HETATM   13  C   UNL     1       2.251  31.494  51.216  1.00  0.00     0.047 C 
BRANCH  13  14
HETATM   14  C   UNL     1       3.494  31.220  52.062  1.00  0.00     0.236 C 
BRANCH  14  15
HETATM   15  N   UNL     1       3.152  30.614  53.406  1.00  0.00    -0.068 N 
HETATM   16  H   UNL     1       2.215  30.191  53.357  1.00  0.00     0.280 HD
HETATM   17  C   UNL     1       4.132  29.466  53.735  1.00  0.00     0.254 C 
HETATM   18  C   UNL     1       3.839  28.852  55.121  1.00  0.00     0.150 C 
HETATM   19  N   UNL     1       3.801  29.887  56.169  1.00  0.00    -0.378 N 
HETATM   20  C   UNL     1       2.824  30.961  55.903  1.00  0.00     0.150 C 
HETATM   21  C   UNL     1       3.132  31.642  54.552  1.00  0.00     0.254 C 
BRANCH  19  22
HETATM   22  C   UNL     1       4.953  30.235  56.879  1.00  0.00     0.031 A 
HETATM   23  C   UNL     1       6.156  29.517  56.802  1.00  0.00     0.053 A 
HETATM   24  C   UNL     1       7.291  29.912  57.523  1.00  0.00     0.036 A 
HETATM   25 CL   UNL     1       8.752  29.017  57.349  1.00  0.00    -0.084 Cl
HETATM   26  C   UNL     1       7.255  31.016  58.361  1.00  0.00     0.024 A 
HETATM   27  C   UNL     1       6.067  31.726  58.488  1.00  0.00     0.004 A 
HETATM   28  C   UNL     1       4.936  31.334  57.759  1.00  0.00     0.029 A 
ENDBRANCH  19  22
ENDBRANCH  14  15
ENDBRANCH  13  14
ENDBRANCH  12  13
ENDBRANCH   9  12
ENDBRANCH   5   8
BRANCH   1  29
HETATM   29  C   UNL     1       4.937  26.363  51.852  1.00  0.00     0.296 C 
BRANCH  29  30
HETATM   30  C   UNL     1       5.993  25.611  52.573  1.00  0.00     0.092 A 
HETATM   31  C   UNL     1       7.068  26.106  53.278  1.00  0.00     0.078 A 
HETATM   32  C   UNL     1       7.584  27.450  53.594  1.00  0.00     0.079 C 
HETATM   33  O   UNL     1       7.763  25.045  53.774  1.00  0.00    -0.294 OA
HETATM   34  C   UNL     1       7.082  23.940  53.333  1.00  0.00     0.180 A 
HETATM   35  N   UNL     1       6.009  24.229  52.609  1.00  0.00    -0.224 NA
BRANCH  34  36
HETATM   36  C   UNL     1       7.615  22.645  53.746  1.00  0.00     0.019 A 
HETATM   37  C   UNL     1       7.778  22.361  55.109  1.00  0.00     0.039 A 
HETATM   38  C   UNL     1       8.300  21.132  55.517  1.00  0.00     0.035 A 
HETATM   39 CL   UNL     1       8.500  20.813  57.194  1.00  0.00    -0.084 Cl
HETATM   40  C   UNL     1       8.662  20.168  54.579  1.00  0.00     0.024 A 
HETATM   41  C   UNL     1       8.503  20.435  53.222  1.00  0.00     0.003 A 
HETATM   42  C   UNL     1       7.984  21.666  52.808  1.00  0.00     0.016 A 
ENDBRANCH  34  36
ENDBRANCH  29  30
ENDBRANCH   1  29
TORSDOF 9
ENDMDL
MODEL 9
REMARK VINA RESULT:      -9.8      3.138      9.505
REMARK  9 active torsions:
REMARK  status: ('A' for Active; 'I' for Inactive)
REMARK    1  A    between atoms: C_4  and  C_5 
REMARK    2  A    between atoms: C_13  and  C_14 
REMARK    3  A    between atoms: C_14  and  N_15 
REMARK    4  A    between atoms: C_19  and  C_20 
REMARK       I    between atoms: C_20  and  N_21 
REMARK    5  A    between atoms: N_21  and  C_22 
REMARK    6  A    between atoms: C_22  and  C_23 
REMARK    7  A    between atoms: C_23  and  C_24 
REMARK    8  A    between atoms: C_24  and  N_25 
REMARK    9  A    between atoms: N_29  and  C_30 
ROOT
HETATM    1  N   UNL     1       4.066  27.469  52.532  1.00  0.00    -0.066 N 
HETATM    2  H   UNL     1       3.400  26.703  52.349  1.00  0.00     0.280 HD
HETATM    3  C   UNL     1       3.277  28.752  52.473  1.00  0.00     0.236 C 
HETATM    4  C   UNL     1       2.829  29.040  51.041  1.00  0.00     0.042 C 
HETATM    5  C   UNL     1       4.011  29.097  50.071  1.00  0.00     0.081 C 
HETATM    6  C   UNL     1       4.801  27.791  50.150  1.00  0.00     0.042 C 
HETATM    7  C   UNL     1       5.213  27.396  51.562  1.00  0.00     0.236 C 
ENDROOT
BRANCH   5   8
HETATM    8  C   UNL     1       4.860  30.325  50.396  1.00  0.00     0.221 C 
HETATM    9  N   UNL     1       4.147  31.424  50.816  1.00  0.00    -0.361 N 
HETATM   10  H   UNL     1       3.132  31.371  50.846  1.00  0.00     0.162 HD
HETATM   11  O   UNL     1       6.087  30.286  50.398  1.00  0.00    -0.273 OA
BRANCH   9  12
HETATM   12  C   UNL     1       4.781  32.545  51.488  1.00  0.00     0.124 C 
BRANCH  12  13
HETATM   13  C   UNL     1       4.017  33.059  52.713  1.00  0.00     0.047 C 
BRANCH  13  14
HETATM   14  C   UNL     1       3.482  31.877  53.522  1.00  0.00     0.236 C 
BRANCH  14  15
HETATM   15  N   UNL     1       3.513  32.139  55.012  1.00  0.00    -0.068 N 
HETATM   16  H   UNL     1       2.691  32.701  55.272  1.00  0.00     0.280 HD
HETATM   17  C   UNL     1       3.396  30.809  55.788  1.00  0.00     0.254 C 
HETATM   18  C   UNL     1       3.468  31.035  57.312  1.00  0.00     0.150 C 
HETATM   19  N   UNL     1       4.666  31.808  57.685  1.00  0.00    -0.378 N 
HETATM   20  C   UNL     1       4.763  33.112  57.001  1.00  0.00     0.150 C 
HETATM   21  C   UNL     1       4.762  32.914  55.469  1.00  0.00     0.254 C 
BRANCH  19  22
HETATM   22  C   UNL     1       5.865  31.167  58.008  1.00  0.00     0.031 A 
HETATM   23  C   UNL     1       6.879  31.762  58.771  1.00  0.00     0.053 A 
HETATM   24  C   UNL     1       8.061  31.075  59.081  1.00  0.00     0.036 A 
HETATM   25 CL   UNL     1       9.249  31.843  60.063  1.00  0.00    -0.084 Cl
HETATM   26  C   UNL     1       8.278  29.786  58.618  1.00  0.00     0.024 A 
HETATM   27  C   UNL     1       7.308  29.183  57.828  1.00  0.00     0.004 A 
HETATM   28  C   UNL     1       6.123  29.869  57.527  1.00  0.00     0.029 A 
ENDBRANCH  19  22
ENDBRANCH  14  15
ENDBRANCH  13  14
ENDBRANCH  12  13
ENDBRANCH   9  12
ENDBRANCH   5   8
BRANCH   1  29
HETATM   29  C   UNL     1       4.586  27.184  53.939  1.00  0.00     0.296 C 
BRANCH  29  30
HETATM   30  C   UNL     1       5.773  26.298  54.014  1.00  0.00     0.092 A 
HETATM   31  C   UNL     1       7.101  26.651  54.121  1.00  0.00     0.078 A 
HETATM   32  C   UNL     1       7.845  27.922  54.201  1.00  0.00     0.079 C 
HETATM   33  O   UNL     1       7.833  25.503  54.164  1.00  0.00    -0.294 OA
HETATM   34  C   UNL     1       6.912  24.493  54.067  1.00  0.00     0.180 A 
HETATM   35  N   UNL     1       5.660  24.921  53.977  1.00  0.00    -0.224 NA
BRANCH  34  36
HETATM   36  C   UNL     1       7.439  23.132  54.106  1.00  0.00     0.019 A 
HETATM   37  C   UNL     1       7.732  22.534  55.340  1.00  0.00     0.039 A 
HETATM   38  C   UNL     1       8.248  21.238  55.391  1.00  0.00     0.035 A 
HETATM   39 CL   UNL     1       8.610  20.531  56.916  1.00  0.00    -0.084 Cl
HETATM   40  C   UNL     1       8.477  20.518  54.221  1.00  0.00     0.024 A 
HETATM   41  C   UNL     1       8.188  21.098  52.989  1.00  0.00     0.003 A 
HETATM   42  C   UNL     1       7.673  22.397  52.932  1.00  0.00     0.016 A 
ENDBRANCH  34  36
ENDBRANCH  29  30
ENDBRANCH   1  29
TORSDOF 9
ENDMDL
MODEL 10
REMARK VINA RESULT:      -9.7      3.073     12.582
REMARK  9 active torsions:
REMARK  status: ('A' for Active; 'I' for Inactive)
REMARK    1  A    between atoms: C_4  and  C_5 
REMARK    2  A    between atoms: C_13  and  C_14 
REMARK    3  A    between atoms: C_14  and  N_15 
REMARK    4  A    between atoms: C_19  and  C_20 
REMARK       I    between atoms: C_20  and  N_21 
REMARK    5  A    between atoms: N_21  and  C_22 
REMARK    6  A    between atoms: C_22  and  C_23 
REMARK    7  A    between atoms: C_23  and  C_24 
REMARK    8  A    between atoms: C_24  and  N_25 
REMARK    9  A    between atoms: N_29  and  C_30 
ROOT
HETATM    1  N   UNL     1       7.918  27.886  55.487  1.00  0.00    -0.066 N 
HETATM    2  H   UNL     1       8.701  27.215  55.491  1.00  0.00     0.280 HD
HETATM    3  C   UNL     1       8.523  29.257  55.646  1.00  0.00     0.236 C 
HETATM    4  C   UNL     1       9.096  29.430  57.051  1.00  0.00     0.042 C 
HETATM    5  C   UNL     1       8.045  29.183  58.134  1.00  0.00     0.081 C 
HETATM    6  C   UNL     1       7.440  27.791  57.953  1.00  0.00     0.042 C 
HETATM    7  C   UNL     1       6.918  27.517  56.549  1.00  0.00     0.236 C 
ENDROOT
BRANCH   5   8
HETATM    8  C   UNL     1       7.001  30.297  58.075  1.00  0.00     0.221 C 
HETATM    9  N   UNL     1       6.891  31.047  59.222  1.00  0.00    -0.361 N 
HETATM   10  H   UNL     1       7.462  30.802  60.027  1.00  0.00     0.162 HD
HETATM   11  O   UNL     1       6.400  30.571  57.040  1.00  0.00    -0.273 OA
BRANCH   9  12
HETATM   12  C   UNL     1       6.223  32.337  59.241  1.00  0.00     0.124 C 
BRANCH  12  13
HETATM   13  C   UNL     1       5.074  32.436  60.250  1.00  0.00     0.047 C 
BRANCH  13  14
HETATM   14  C   UNL     1       3.752  32.636  59.510  1.00  0.00     0.236 C 
BRANCH  14  15
HETATM   15  N   UNL     1       2.937  33.774  60.085  1.00  0.00    -0.068 N 
HETATM   16  H   UNL     1       1.965  33.692  59.755  1.00  0.00     0.280 HD
HETATM   17  C   UNL     1       2.885  33.665  61.624  1.00  0.00     0.254 C 
HETATM   18  C   UNL     1       2.097  34.836  62.248  1.00  0.00     0.150 C 
HETATM   19  N   UNL     1       2.612  36.137  61.786  1.00  0.00    -0.378 N 
HETATM   20  C   UNL     1       2.610  36.284  60.318  1.00  0.00     0.150 C 
HETATM   21  C   UNL     1       3.449  35.163  59.665  1.00  0.00     0.254 C 
BRANCH  19  22
HETATM   22  C   UNL     1       3.615  36.806  62.492  1.00  0.00     0.031 A 
HETATM   23  C   UNL     1       4.379  37.849  61.949  1.00  0.00     0.053 A 
HETATM   24  C   UNL     1       5.368  38.501  62.699  1.00  0.00     0.036 A 
HETATM   25 CL   UNL     1       6.239  39.806  61.992  1.00  0.00    -0.084 Cl
HETATM   26  C   UNL     1       5.642  38.115  64.004  1.00  0.00     0.024 A 
HETATM   27  C   UNL     1       4.927  37.060  64.557  1.00  0.00     0.004 A 
HETATM   28  C   UNL     1       3.934  36.417  63.807  1.00  0.00     0.029 A 
ENDBRANCH  19  22
ENDBRANCH  14  15
ENDBRANCH  13  14
ENDBRANCH  12  13
ENDBRANCH   9  12
ENDBRANCH   5   8
BRANCH   1  29
HETATM   29  C   UNL     1       7.275  27.703  54.114  1.00  0.00     0.296 C 
BRANCH  29  30
HETATM   30  C   UNL     1       7.185  26.302  53.633  1.00  0.00     0.092 A 
HETATM   31  C   UNL     1       6.563  25.823  52.500  1.00  0.00     0.078 A 
HETATM   32  C   UNL     1       5.799  26.423  51.391  1.00  0.00     0.079 C 
HETATM   33  O   UNL     1       6.748  24.474  52.465  1.00  0.00    -0.294 OA
HETATM   34  C   UNL     1       7.469  24.187  53.594  1.00  0.00     0.180 A 
HETATM   35  N   UNL     1       7.758  25.253  54.327  1.00  0.00    -0.224 NA
BRANCH  34  36
HETATM   36  C   UNL     1       7.824  22.785  53.795  1.00  0.00     0.019 A 
HETATM   37  C   UNL     1       8.106  22.316  55.086  1.00  0.00     0.039 A 
HETATM   38  C   UNL     1       8.459  20.981  55.290  1.00  0.00     0.035 A 
HETATM   39 CL   UNL     1       8.811  20.433  56.881  1.00  0.00    -0.084 Cl
HETATM   40  C   UNL     1       8.533  20.094  54.219  1.00  0.00     0.024 A 
HETATM   41  C   UNL     1       8.253  20.545  52.932  1.00  0.00     0.003 A 
HETATM   42  C   UNL     1       7.902  21.882  52.721  1.00  0.00     0.016 A 
ENDBRANCH  34  36
ENDBRANCH  29  30
ENDBRANCH   1  29
TORSDOF 9
ENDMDL
