MODEL 1
REMARK VINA RESULT:     -10.9      0.000      0.000
REMARK  7 active torsions:
REMARK  status: ('A' for Active; 'I' for Inactive)
REMARK    1  A    between atoms: C_6  and  C_7 
REMARK       I    between atoms: C_7  and  N_8 
REMARK    2  A    between atoms: N_8  and  C_9 
REMARK    3  A    between atoms: C_9  and  C_10 
REMARK       I    between atoms: C_10  and  N_11 
REMARK    4  A    between atoms: N_11  and  N_12 
REMARK       I    between atoms: N_12  and  C_13 
REMARK    5  A    between atoms: C_13  and  C_14 
REMARK    6  A    between atoms: C_14  and  N_15 
REMARK    7  A    between atoms: N_15  and  C_16 
ROOT
HETATM    1  C   UNL     1       7.553  28.130  57.389  1.00  0.00     0.253 C 
HETATM    2  N   UNL     1       7.426  29.422  57.860  1.00  0.00    -0.266 N 
HETATM    3  O   UNL     1       8.063  27.227  58.055  1.00  0.00    -0.270 OA
HETATM    4  H   UNL     1       6.670  30.013  57.496  1.00  0.00     0.190 HD
ENDROOT
BRANCH   2   5
HETATM    5  N   UNL     1       7.823  29.675  59.187  1.00  0.00    -0.266 N 
HETATM    6  C   UNL     1       7.827  30.988  59.624  1.00  0.00     0.258 C 
HETATM    7  O   UNL     1       7.685  31.941  58.859  1.00  0.00    -0.269 OA
HETATM    8  H   UNL     1       7.677  28.917  59.859  1.00  0.00     0.190 HD
BRANCH   6   9
HETATM    9  C   UNL     1       8.058  31.131  61.140  1.00  0.00     0.173 C 
HETATM   10  C   UNL     1       9.467  30.686  61.523  1.00  0.00     0.042 C 
BRANCH   9  11
HETATM   11  N   UNL     1       7.887  32.523  61.551  1.00  0.00    -0.356 N 
HETATM   12  H   UNL     1       8.166  33.243  60.893  1.00  0.00     0.162 HD
BRANCH  11  13
HETATM   13  C   UNL     1       7.200  32.852  62.661  1.00  0.00     0.168 A 
HETATM   14  S   UNL     1       5.483  32.873  62.640  1.00  0.00    -0.050 SA
HETATM   15  C   UNL     1       5.460  33.394  64.277  1.00  0.00     0.037 A 
HETATM   16  C   UNL     1       6.773  33.489  64.736  1.00  0.00     0.076 A 
HETATM   17  C   UNL     1       4.361  33.701  65.099  1.00  0.00     0.021 A 
HETATM   18  N   UNL     1       7.750  33.158  63.811  1.00  0.00    -0.223 NA
HETATM   19  C   UNL     1       7.000  33.908  66.064  1.00  0.00     0.033 A 
HETATM   20  C   UNL     1       5.914  34.221  66.888  1.00  0.00     0.002 A 
HETATM   21  C   UNL     1       4.612  34.118  66.410  1.00  0.00     0.002 A 
ENDBRANCH  11  13
ENDBRANCH   9  11
ENDBRANCH   6   9
ENDBRANCH   2   5
BRANCH   1  22
HETATM   22  C   UNL     1       6.884  27.866  56.037  1.00  0.00     0.227 C 
BRANCH  22  23
HETATM   23  N   UNL     1       7.285  26.617  55.404  1.00  0.00    -0.348 N 
HETATM   24  C   UNL     1       6.467  25.509  55.425  1.00  0.00     0.252 C 
HETATM   25  O   UNL     1       5.341  25.550  55.910  1.00  0.00    -0.268 OA
HETATM   26  H   UNL     1       8.078  26.641  54.778  1.00  0.00     0.163 HD
BRANCH  24  27
HETATM   27  C   UNL     1       6.973  24.276  54.762  1.00  0.00     0.032 A 
HETATM   28  C   UNL     1       7.189  23.138  55.549  1.00  0.00     0.024 A 
HETATM   29  C   UNL     1       7.667  21.944  54.982  1.00  0.00    -0.055 A 
HETATM   30  C   UNL     1       7.959  21.904  53.604  1.00  0.00    -0.056 A 
HETATM   31  C   UNL     1       7.894  20.752  55.871  1.00  0.00     0.049 C 
HETATM   32  C   UNL     1       8.473  20.652  52.945  1.00  0.00     0.049 C 
HETATM   33  C   UNL     1       7.746  23.050  52.824  1.00  0.00     0.008 A 
HETATM   34  C   UNL     1       7.264  24.231  53.395  1.00  0.00     0.017 A 
ENDBRANCH  24  27
ENDBRANCH  22  23
ENDBRANCH   1  22
TORSDOF 7
ENDMDL
MODEL 2
REMARK VINA RESULT:     -10.6      2.244      3.329
REMARK  7 active torsions:
REMARK  status: ('A' for Active; 'I' for Inactive)
REMARK    1  A    between atoms: C_6  and  C_7 
REMARK       I    between atoms: C_7  and  N_8 
REMARK    2  A    between atoms: N_8  and  C_9 
REMARK    3  A    between atoms: C_9  and  C_10 
REMARK       I    between atoms: C_10  and  N_11 
REMARK    4  A    between atoms: N_11  and  N_12 
REMARK       I    between atoms: N_12  and  C_13 
REMARK    5  A    between atoms: C_13  and  C_14 
REMARK    6  A    between atoms: C_14  and  N_15 
REMARK    7  A    between atoms: N_15  and  C_16 
ROOT
HETATM    1  C   UNL     1       7.382  28.313  54.679  1.00  0.00     0.253 C 
HETATM    2  N   UNL     1       7.179  28.845  55.937  1.00  0.00    -0.266 N 
HETATM    3  O   UNL     1       8.383  28.564  54.005  1.00  0.00    -0.270 OA
HETATM    4  H   UNL     1       6.600  28.328  56.609  1.00  0.00     0.190 HD
ENDROOT
BRANCH   2   5
HETATM    5  N   UNL     1       8.208  29.633  56.486  1.00  0.00    -0.266 N 
HETATM    6  C   UNL     1       8.615  29.358  57.781  1.00  0.00     0.258 C 
HETATM    7  O   UNL     1       7.996  28.596  58.522  1.00  0.00    -0.269 OA
HETATM    8  H   UNL     1       8.869  30.046  55.824  1.00  0.00     0.190 HD
BRANCH   6   9
HETATM    9  C   UNL     1       9.886  30.120  58.201  1.00  0.00     0.173 C 
HETATM   10  C   UNL     1      10.935  30.088  57.092  1.00  0.00     0.042 C 
BRANCH   9  11
HETATM   11  N   UNL     1       9.567  31.517  58.493  1.00  0.00    -0.356 N 
HETATM   12  H   UNL     1       9.708  32.194  57.751  1.00  0.00     0.162 HD
BRANCH  11  13
HETATM   13  C   UNL     1       8.921  31.872  59.620  1.00  0.00     0.168 A 
HETATM   14  S   UNL     1       9.686  31.690  61.147  1.00  0.00    -0.050 SA
HETATM   15  C   UNL     1       8.273  32.273  61.934  1.00  0.00     0.037 A 
HETATM   16  C   UNL     1       7.321  32.594  60.966  1.00  0.00     0.076 A 
HETATM   17  C   UNL     1       8.021  32.433  63.307  1.00  0.00     0.021 A 
HETATM   18  N   UNL     1       7.713  32.379  59.655  1.00  0.00    -0.223 NA
HETATM   19  C   UNL     1       6.069  33.092  61.385  1.00  0.00     0.033 A 
HETATM   20  C   UNL     1       5.805  33.249  62.750  1.00  0.00     0.002 A 
HETATM   21  C   UNL     1       6.771  32.924  63.697  1.00  0.00     0.002 A 
ENDBRANCH  11  13
ENDBRANCH   9  11
ENDBRANCH   6   9
ENDBRANCH   2   5
BRANCH   1  22
HETATM   22  C   UNL     1       6.344  27.276  54.240  1.00  0.00     0.227 C 
BRANCH  22  23
HETATM   23  N   UNL     1       6.658  25.910  54.634  1.00  0.00    -0.348 N 
HETATM   24  C   UNL     1       7.447  25.101  53.847  1.00  0.00     0.252 C 
HETATM   25  O   UNL     1       7.978  25.519  52.823  1.00  0.00    -0.268 OA
HETATM   26  H   UNL     1       6.456  25.637  55.586  1.00  0.00     0.163 HD
BRANCH  24  27
HETATM   27  C   UNL     1       7.699  23.715  54.331  1.00  0.00     0.032 A 
HETATM   28  C   UNL     1       7.905  22.706  53.381  1.00  0.00     0.024 A 
HETATM   29  C   UNL     1       8.146  21.378  53.775  1.00  0.00    -0.055 A 
HETATM   30  C   UNL     1       8.151  21.057  55.147  1.00  0.00    -0.056 A 
HETATM   31  C   UNL     1       8.351  20.328  52.718  1.00  0.00     0.049 C 
HETATM   32  C   UNL     1       8.403  19.652  55.624  1.00  0.00     0.049 C 
HETATM   33  C   UNL     1       7.937  22.072  56.091  1.00  0.00     0.008 A 
HETATM   34  C   UNL     1       7.706  23.390  55.691  1.00  0.00     0.017 A 
ENDBRANCH  24  27
ENDBRANCH  22  23
ENDBRANCH   1  22
TORSDOF 7
ENDMDL
MODEL 3
REMARK VINA RESULT:     -10.4      1.935      2.695
REMARK  7 active torsions:
REMARK  status: ('A' for Active; 'I' for Inactive)
REMARK    1  A    between atoms: C_6  and  C_7 
REMARK       I    between atoms: C_7  and  N_8 
REMARK    2  A    between atoms: N_8  and  C_9 
REMARK    3  A    between atoms: C_9  and  C_10 
REMARK       I    between atoms: C_10  and  N_11 
REMARK    4  A    between atoms: N_11  and  N_12 
REMARK       I    between atoms: N_12  and  C_13 
REMARK    5  A    between atoms: C_13  and  C_14 
REMARK    6  A    between atoms: C_14  and  N_15 
REMARK    7  A    between atoms: N_15  and  C_16 
ROOT
HETATM    1  C   UNL     1       5.546  28.048  55.766  1.00  0.00     0.253 C 
HETATM    2  N   UNL     1       6.889  28.358  55.859  1.00  0.00    -0.266 N 
HETATM    3  O   UNL     1       4.702  28.517  56.532  1.00  0.00    -0.270 OA
HETATM    4  H   UNL     1       7.472  28.305  55.015  1.00  0.00     0.190 HD
ENDROOT
BRANCH   2   5
HETATM    5  N   UNL     1       7.273  29.316  56.815  1.00  0.00    -0.266 N 
HETATM    6  C   UNL     1       7.898  28.869  57.967  1.00  0.00     0.258 C 
HETATM    7  O   UNL     1       7.958  27.678  58.268  1.00  0.00    -0.269 OA
HETATM    8  H   UNL     1       7.468  30.257  56.465  1.00  0.00     0.190 HD
BRANCH   6   9
HETATM    9  C   UNL     1       8.473  30.004  58.834  1.00  0.00     0.173 C 
HETATM   10  C   UNL     1       9.660  30.672  58.145  1.00  0.00     0.042 C 
BRANCH   9  11
HETATM   11  N   UNL     1       7.452  31.020  59.083  1.00  0.00    -0.356 N 
HETATM   12  H   UNL     1       6.704  31.107  58.404  1.00  0.00     0.162 HD
BRANCH  11  13
HETATM   13  C   UNL     1       7.380  31.676  60.257  1.00  0.00     0.168 A 
HETATM   14  S   UNL     1       8.389  31.214  61.567  1.00  0.00    -0.050 SA
HETATM   15  C   UNL     1       7.666  32.416  62.560  1.00  0.00     0.037 A 
HETATM   16  C   UNL     1       6.718  33.109  61.807  1.00  0.00     0.076 A 
HETATM   17  C   UNL     1       7.914  32.725  63.908  1.00  0.00     0.021 A 
HETATM   18  N   UNL     1       6.583  32.690  60.493  1.00  0.00    -0.223 NA
HETATM   19  C   UNL     1       5.990  34.148  62.422  1.00  0.00     0.033 A 
HETATM   20  C   UNL     1       6.225  34.460  63.766  1.00  0.00     0.002 A 
HETATM   21  C   UNL     1       7.175  33.756  64.497  1.00  0.00     0.002 A 
ENDBRANCH  11  13
ENDBRANCH   9  11
ENDBRANCH   6   9
ENDBRANCH   2   5
BRANCH   1  22
HETATM   22  C   UNL     1       5.162  27.191  54.557  1.00  0.00     0.227 C 
BRANCH  22  23
HETATM   23  N   UNL     1       5.702  25.839  54.584  1.00  0.00    -0.348 N 
HETATM   24  C   UNL     1       6.880  25.525  53.944  1.00  0.00     0.252 C 
HETATM   25  O   UNL     1       7.560  26.382  53.390  1.00  0.00    -0.268 OA
HETATM   26  H   UNL     1       5.305  25.187  55.248  1.00  0.00     0.163 HD
BRANCH  24  27
HETATM   27  C   UNL     1       7.340  24.110  54.020  1.00  0.00     0.032 A 
HETATM   28  C   UNL     1       7.605  23.564  55.283  1.00  0.00     0.024 A 
HETATM   29  C   UNL     1       8.043  22.235  55.421  1.00  0.00    -0.055 A 
HETATM   30  C   UNL     1       8.245  21.453  54.266  1.00  0.00    -0.056 A 
HETATM   31  C   UNL     1       8.325  21.699  56.797  1.00  0.00     0.049 C 
HETATM   32  C   UNL     1       8.713  20.026  54.356  1.00  0.00     0.049 C 
HETATM   33  C   UNL     1       7.983  22.010  53.005  1.00  0.00     0.008 A 
HETATM   34  C   UNL     1       7.541  23.329  52.878  1.00  0.00     0.017 A 
ENDBRANCH  24  27
ENDBRANCH  22  23
ENDBRANCH   1  22
TORSDOF 7
ENDMDL
MODEL 4
REMARK VINA RESULT:     -10.4      2.826     11.982
REMARK  7 active torsions:
REMARK  status: ('A' for Active; 'I' for Inactive)
REMARK    1  A    between atoms: C_6  and  C_7 
REMARK       I    between atoms: C_7  and  N_8 
REMARK    2  A    between atoms: N_8  and  C_9 
REMARK    3  A    between atoms: C_9  and  C_10 
REMARK       I    between atoms: C_10  and  N_11 
REMARK    4  A    between atoms: N_11  and  N_12 
REMARK       I    between atoms: N_12  and  C_13 
REMARK    5  A    between atoms: C_13  and  C_14 
REMARK    6  A    between atoms: C_14  and  N_15 
REMARK    7  A    between atoms: N_15  and  C_16 
ROOT
HETATM    1  C   UNL     1       8.094  28.921  57.570  1.00  0.00     0.253 C 
HETATM    2  N   UNL     1       7.375  29.316  56.459  1.00  0.00    -0.266 N 
HETATM    3  O   UNL     1       7.981  27.801  58.072  1.00  0.00    -0.270 OA
HETATM    4  H   UNL     1       7.766  30.038  55.843  1.00  0.00     0.190 HD
ENDROOT
BRANCH   2   5
HETATM    5  N   UNL     1       6.551  28.356  55.841  1.00  0.00    -0.266 N 
HETATM    6  C   UNL     1       6.973  27.819  54.637  1.00  0.00     0.258 C 
HETATM    7  O   UNL     1       7.924  28.276  54.004  1.00  0.00    -0.269 OA
HETATM    8  H   UNL     1       5.948  27.807  56.458  1.00  0.00     0.190 HD
BRANCH   6   9
HETATM    9  C   UNL     1       6.119  26.627  54.163  1.00  0.00     0.173 C 
HETATM   10  C   UNL     1       4.910  27.104  53.363  1.00  0.00     0.042 C 
BRANCH   9  11
HETATM   11  N   UNL     1       6.913  25.740  53.315  1.00  0.00    -0.356 N 
HETATM   12  H   UNL     1       7.360  26.148  52.501  1.00  0.00     0.162 HD
BRANCH  11  13
HETATM   13  C   UNL     1       7.215  24.484  53.695  1.00  0.00     0.168 A 
HETATM   14  S   UNL     1       7.116  24.036  55.350  1.00  0.00    -0.050 SA
HETATM   15  C   UNL     1       7.666  22.454  54.964  1.00  0.00     0.037 A 
HETATM   16  C   UNL     1       7.861  22.371  53.585  1.00  0.00     0.076 A 
HETATM   17  C   UNL     1       7.912  21.364  55.817  1.00  0.00     0.021 A 
HETATM   18  N   UNL     1       7.580  23.528  52.877  1.00  0.00    -0.223 NA
HETATM   19  C   UNL     1       8.320  21.155  53.037  1.00  0.00     0.033 A 
HETATM   20  C   UNL     1       8.574  20.066  53.877  1.00  0.00     0.002 A 
HETATM   21  C   UNL     1       8.371  20.171  55.249  1.00  0.00     0.002 A 
ENDBRANCH  11  13
ENDBRANCH   9  11
ENDBRANCH   6   9
ENDBRANCH   2   5
BRANCH   1  22
HETATM   22  C   UNL     1       9.147  29.925  58.049  1.00  0.00     0.227 C 
BRANCH  22  23
HETATM   23  N   UNL     1       8.880  30.493  59.363  1.00  0.00    -0.348 N 
HETATM   24  C   UNL     1       8.001  31.540  59.525  1.00  0.00     0.252 C 
HETATM   25  O   UNL     1       7.351  31.987  58.585  1.00  0.00    -0.268 OA
HETATM   26  H   UNL     1       9.195  29.975  60.172  1.00  0.00     0.163 HD
BRANCH  24  27
HETATM   27  C   UNL     1       7.807  32.059  60.907  1.00  0.00     0.032 A 
HETATM   28  C   UNL     1       6.836  33.047  61.117  1.00  0.00     0.024 A 
HETATM   29  C   UNL     1       6.606  33.577  62.398  1.00  0.00    -0.055 A 
HETATM   30  C   UNL     1       7.387  33.126  63.481  1.00  0.00    -0.056 A 
HETATM   31  C   UNL     1       5.561  34.645  62.571  1.00  0.00     0.049 C 
HETATM   32  C   UNL     1       7.184  33.660  64.873  1.00  0.00     0.049 C 
HETATM   33  C   UNL     1       8.362  32.141  63.261  1.00  0.00     0.008 A 
HETATM   34  C   UNL     1       8.578  31.614  61.985  1.00  0.00     0.017 A 
ENDBRANCH  24  27
ENDBRANCH  22  23
ENDBRANCH   1  22
TORSDOF 7
ENDMDL
MODEL 5
REMARK VINA RESULT:     -10.1      2.643     11.751
REMARK  7 active torsions:
REMARK  status: ('A' for Active; 'I' for Inactive)
REMARK    1  A    between atoms: C_6  and  C_7 
REMARK       I    between atoms: C_7  and  N_8 
REMARK    2  A    between atoms: N_8  and  C_9 
REMARK    3  A    between atoms: C_9  and  C_10 
REMARK       I    between atoms: C_10  and  N_11 
REMARK    4  A    between atoms: N_11  and  N_12 
REMARK       I    between atoms: N_12  and  C_13 
REMARK    5  A    between atoms: C_13  and  C_14 
REMARK    6  A    between atoms: C_14  and  N_15 
REMARK    7  A    between atoms: N_15  and  C_16 
ROOT
HETATM    1  C   UNL     1       9.266  29.972  58.145  1.00  0.00     0.253 C 
HETATM    2  N   UNL     1       8.057  29.436  58.544  1.00  0.00    -0.266 N 
HETATM    3  O   UNL     1       9.977  29.444  57.289  1.00  0.00    -0.270 OA
HETATM    4  H   UNL     1       7.332  30.063  58.912  1.00  0.00     0.190 HD
ENDROOT
BRANCH   2   5
HETATM    5  N   UNL     1       7.598  28.289  57.870  1.00  0.00    -0.266 N 
HETATM    6  C   UNL     1       6.375  28.360  57.227  1.00  0.00     0.258 C 
HETATM    7  O   UNL     1       5.601  29.304  57.378  1.00  0.00    -0.269 OA
HETATM    8  H   UNL     1       8.315  27.644  57.527  1.00  0.00     0.190 HD
BRANCH   6   9
HETATM    9  C   UNL     1       6.074  27.137  56.341  1.00  0.00     0.173 C 
HETATM   10  C   UNL     1       5.124  27.504  55.204  1.00  0.00     0.042 C 
BRANCH   9  11
HETATM   11  N   UNL     1       7.309  26.615  55.759  1.00  0.00    -0.356 N 
HETATM   12  H   UNL     1       8.126  27.215  55.782  1.00  0.00     0.162 HD
BRANCH  11  13
HETATM   13  C   UNL     1       7.427  25.324  55.393  1.00  0.00     0.168 A 
HETATM   14  S   UNL     1       7.437  24.087  56.585  1.00  0.00    -0.050 SA
HETATM   15  C   UNL     1       7.655  22.899  55.362  1.00  0.00     0.037 A 
HETATM   16  C   UNL     1       7.677  23.533  54.119  1.00  0.00     0.076 A 
HETATM   17  C   UNL     1       7.800  21.507  55.489  1.00  0.00     0.021 A 
HETATM   18  N   UNL     1       7.525  24.909  54.154  1.00  0.00    -0.223 NA
HETATM   19  C   UNL     1       7.851  22.749  52.960  1.00  0.00     0.033 A 
HETATM   20  C   UNL     1       8.002  21.362  53.076  1.00  0.00     0.002 A 
HETATM   21  C   UNL     1       7.976  20.752  54.325  1.00  0.00     0.002 A 
ENDBRANCH  11  13
ENDBRANCH   9  11
ENDBRANCH   6   9
ENDBRANCH   2   5
BRANCH   1  22
HETATM   22  C   UNL     1       9.592  31.345  58.740  1.00  0.00     0.227 C 
BRANCH  22  23
HETATM   23  N   UNL     1       8.564  31.875  59.625  1.00  0.00    -0.348 N 
HETATM   24  C   UNL     1       8.769  31.974  60.983  1.00  0.00     0.252 C 
HETATM   25  O   UNL     1       9.849  31.694  61.493  1.00  0.00    -0.268 OA
HETATM   26  H   UNL     1       7.780  32.353  59.202  1.00  0.00     0.163 HD
BRANCH  24  27
HETATM   27  C   UNL     1       7.650  32.516  61.803  1.00  0.00     0.032 A 
HETATM   28  C   UNL     1       7.898  32.820  63.148  1.00  0.00     0.024 A 
HETATM   29  C   UNL     1       6.883  33.333  63.974  1.00  0.00    -0.055 A 
HETATM   30  C   UNL     1       5.590  33.516  63.445  1.00  0.00    -0.056 A 
HETATM   31  C   UNL     1       7.195  33.633  65.415  1.00  0.00     0.049 C 
HETATM   32  C   UNL     1       4.467  34.062  64.284  1.00  0.00     0.049 C 
HETATM   33  C   UNL     1       5.349  33.203  62.098  1.00  0.00     0.008 A 
HETATM   34  C   UNL     1       6.366  32.701  61.283  1.00  0.00     0.017 A 
ENDBRANCH  24  27
ENDBRANCH  22  23
ENDBRANCH   1  22
TORSDOF 7
ENDMDL
MODEL 6
REMARK VINA RESULT:      -9.8      2.483     12.020
REMARK  7 active torsions:
REMARK  status: ('A' for Active; 'I' for Inactive)
REMARK    1  A    between atoms: C_6  and  C_7 
REMARK       I    between atoms: C_7  and  N_8 
REMARK    2  A    between atoms: N_8  and  C_9 
REMARK    3  A    between atoms: C_9  and  C_10 
REMARK       I    between atoms: C_10  and  N_11 
REMARK    4  A    between atoms: N_11  and  N_12 
REMARK       I    between atoms: N_12  and  C_13 
REMARK    5  A    between atoms: C_13  and  C_14 
REMARK    6  A    between atoms: C_14  and  N_15 
REMARK    7  A    between atoms: N_15  and  C_16 
ROOT
HETATM    1  C   UNL     1       8.074  30.795  59.445  1.00  0.00     0.253 C 
HETATM    2  N   UNL     1       6.924  30.663  58.692  1.00  0.00    -0.266 N 
HETATM    3  O   UNL     1       8.830  29.849  59.675  1.00  0.00    -0.270 OA
HETATM    4  H   UNL     1       6.564  31.481  58.186  1.00  0.00     0.190 HD
ENDROOT
BRANCH   2   5
HETATM    5  N   UNL     1       6.671  29.411  58.101  1.00  0.00    -0.266 N 
HETATM    6  C   UNL     1       5.477  29.245  57.421  1.00  0.00     0.258 C 
HETATM    7  O   UNL     1       4.564  30.068  57.474  1.00  0.00    -0.269 OA
HETATM    8  H   UNL     1       7.489  28.860  57.832  1.00  0.00     0.190 HD
BRANCH   6   9
HETATM    9  C   UNL     1       5.399  27.925  56.630  1.00  0.00     0.173 C 
HETATM   10  C   UNL     1       4.568  28.096  55.361  1.00  0.00     0.042 C 
BRANCH   9  11
HETATM   11  N   UNL     1       6.738  27.482  56.248  1.00  0.00    -0.356 N 
HETATM   12  H   UNL     1       7.522  28.053  56.545  1.00  0.00     0.162 HD
BRANCH  11  13
HETATM   13  C   UNL     1       6.953  26.268  55.707  1.00  0.00     0.168 A 
HETATM   14  S   UNL     1       6.881  24.861  56.688  1.00  0.00    -0.050 SA
HETATM   15  C   UNL     1       7.287  23.884  55.333  1.00  0.00     0.037 A 
HETATM   16  C   UNL     1       7.423  24.705  54.213  1.00  0.00     0.076 A 
HETATM   17  C   UNL     1       7.477  22.493  55.263  1.00  0.00     0.021 A 
HETATM   18  N   UNL     1       7.208  26.055  54.439  1.00  0.00    -0.223 NA
HETATM   19  C   UNL     1       7.761  24.116  52.977  1.00  0.00     0.033 A 
HETATM   20  C   UNL     1       7.958  22.733  52.897  1.00  0.00     0.002 A 
HETATM   21  C   UNL     1       7.817  21.934  54.027  1.00  0.00     0.002 A 
ENDBRANCH  11  13
ENDBRANCH   9  11
ENDBRANCH   6   9
ENDBRANCH   2   5
BRANCH   1  22
HETATM   22  C   UNL     1       8.419  32.230  59.854  1.00  0.00     0.227 C 
BRANCH  22  23
HETATM   23  N   UNL     1       8.047  32.569  61.221  1.00  0.00    -0.348 N 
HETATM   24  C   UNL     1       6.752  32.905  61.548  1.00  0.00     0.252 C 
HETATM   25  O   UNL     1       5.847  32.861  60.722  1.00  0.00    -0.268 OA
HETATM   26  H   UNL     1       8.709  32.355  61.955  1.00  0.00     0.163 HD
BRANCH  24  27
HETATM   27  C   UNL     1       6.477  33.249  62.971  1.00  0.00     0.032 A 
HETATM   28  C   UNL     1       5.184  33.662  63.318  1.00  0.00     0.024 A 
HETATM   29  C   UNL     1       4.862  34.001  64.643  1.00  0.00    -0.055 A 
HETATM   30  C   UNL     1       5.866  33.950  65.631  1.00  0.00    -0.056 A 
HETATM   31  C   UNL     1       3.463  34.450  64.963  1.00  0.00     0.049 C 
HETATM   32  C   UNL     1       5.576  34.302  67.065  1.00  0.00     0.049 C 
HETATM   33  C   UNL     1       7.160  33.541  65.274  1.00  0.00     0.008 A 
HETATM   34  C   UNL     1       7.469  33.199  63.955  1.00  0.00     0.017 A 
ENDBRANCH  24  27
ENDBRANCH  22  23
ENDBRANCH   1  22
TORSDOF 7
ENDMDL
MODEL 7
REMARK VINA RESULT:      -9.7      8.765     12.931
REMARK  7 active torsions:
REMARK  status: ('A' for Active; 'I' for Inactive)
REMARK    1  A    between atoms: C_6  and  C_7 
REMARK       I    between atoms: C_7  and  N_8 
REMARK    2  A    between atoms: N_8  and  C_9 
REMARK    3  A    between atoms: C_9  and  C_10 
REMARK       I    between atoms: C_10  and  N_11 
REMARK    4  A    between atoms: N_11  and  N_12 
REMARK       I    between atoms: N_12  and  C_13 
REMARK    5  A    between atoms: C_13  and  C_14 
REMARK    6  A    between atoms: C_14  and  N_15 
REMARK    7  A    between atoms: N_15  and  C_16 
ROOT
HETATM    1  C   UNL     1       5.205  27.279  52.154  1.00  0.00     0.253 C 
HETATM    2  N   UNL     1       5.424  26.774  50.887  1.00  0.00    -0.266 N 
HETATM    3  O   UNL     1       4.077  27.517  52.589  1.00  0.00    -0.270 OA
HETATM    4  H   UNL     1       6.269  26.218  50.711  1.00  0.00     0.190 HD
ENDROOT
BRANCH   2   5
HETATM    5  N   UNL     1       4.296  26.443  50.113  1.00  0.00    -0.266 N 
HETATM    6  C   UNL     1       4.328  26.737  48.760  1.00  0.00     0.258 C 
HETATM    7  O   UNL     1       5.207  27.434  48.255  1.00  0.00    -0.269 OA
HETATM    8  H   UNL     1       3.724  25.665  50.449  1.00  0.00     0.190 HD
BRANCH   6   9
HETATM    9  C   UNL     1       3.149  26.137  47.972  1.00  0.00     0.173 C 
HETATM   10  C   UNL     1       3.070  24.626  48.171  1.00  0.00     0.042 C 
BRANCH   9  11
HETATM   11  N   UNL     1       1.888  26.727  48.418  1.00  0.00    -0.356 N 
HETATM   12  H   UNL     1       1.612  26.568  49.380  1.00  0.00     0.162 HD
BRANCH  11  13
HETATM   13  C   UNL     1       1.217  27.614  47.659  1.00  0.00     0.168 A 
HETATM   14  S   UNL     1       1.281  29.290  48.030  1.00  0.00    -0.050 SA
HETATM   15  C   UNL     1       0.213  29.628  46.725  1.00  0.00     0.037 A 
HETATM   16  C   UNL     1      -0.097  28.432  46.078  1.00  0.00     0.076 A 
HETATM   17  C   UNL     1      -0.317  30.860  46.305  1.00  0.00     0.021 A 
HETATM   18  N   UNL     1       0.499  27.299  46.608  1.00  0.00    -0.223 NA
HETATM   19  C   UNL     1      -0.969  28.467  44.970  1.00  0.00     0.033 A 
HETATM   20  C   UNL     1      -1.507  29.687  44.547  1.00  0.00     0.002 A 
HETATM   21  C   UNL     1      -1.183  30.867  45.207  1.00  0.00     0.002 A 
ENDBRANCH  11  13
ENDBRANCH   9  11
ENDBRANCH   6   9
ENDBRANCH   2   5
BRANCH   1  22
HETATM   22  C   UNL     1       6.456  27.389  53.031  1.00  0.00     0.227 C 
BRANCH  22  23
HETATM   23  N   UNL     1       6.840  26.146  53.685  1.00  0.00    -0.348 N 
HETATM   24  C   UNL     1       7.662  25.233  53.062  1.00  0.00     0.252 C 
HETATM   25  O   UNL     1       8.164  25.462  51.967  1.00  0.00    -0.268 OA
HETATM   26  H   UNL     1       6.658  26.060  54.676  1.00  0.00     0.163 HD
BRANCH  24  27
HETATM   27  C   UNL     1       7.985  23.987  53.810  1.00  0.00     0.032 A 
HETATM   28  C   UNL     1       8.031  22.779  53.101  1.00  0.00     0.024 A 
HETATM   29  C   UNL     1       8.329  21.568  53.749  1.00  0.00    -0.055 A 
HETATM   30  C   UNL     1       8.556  21.569  55.140  1.00  0.00    -0.056 A 
HETATM   31  C   UNL     1       8.355  20.296  52.947  1.00  0.00     0.049 C 
HETATM   32  C   UNL     1       8.879  20.302  55.885  1.00  0.00     0.049 C 
HETATM   33  C   UNL     1       8.502  22.782  55.844  1.00  0.00     0.008 A 
HETATM   34  C   UNL     1       8.213  23.982  55.189  1.00  0.00     0.017 A 
ENDBRANCH  24  27
ENDBRANCH  22  23
ENDBRANCH   1  22
TORSDOF 7
ENDMDL
MODEL 8
REMARK VINA RESULT:      -9.6      1.745      2.400
REMARK  7 active torsions:
REMARK  status: ('A' for Active; 'I' for Inactive)
REMARK    1  A    between atoms: C_6  and  C_7 
REMARK       I    between atoms: C_7  and  N_8 
REMARK    2  A    between atoms: N_8  and  C_9 
REMARK    3  A    between atoms: C_9  and  C_10 
REMARK       I    between atoms: C_10  and  N_11 
REMARK    4  A    between atoms: N_11  and  N_12 
REMARK       I    between atoms: N_12  and  C_13 
REMARK    5  A    between atoms: C_13  and  C_14 
REMARK    6  A    between atoms: C_14  and  N_15 
REMARK    7  A    between atoms: N_15  and  C_16 
ROOT
HETATM    1  C   UNL     1       6.772  28.662  57.047  1.00  0.00     0.253 C 
HETATM    2  N   UNL     1       6.956  29.992  57.373  1.00  0.00    -0.266 N 
HETATM    3  O   UNL     1       5.815  28.004  57.457  1.00  0.00    -0.270 OA
HETATM    4  H   UNL     1       7.478  30.595  56.727  1.00  0.00     0.190 HD
ENDROOT
BRANCH   2   5
HETATM    5  N   UNL     1       5.953  30.622  58.133  1.00  0.00    -0.266 N 
HETATM    6  C   UNL     1       6.278  31.796  58.790  1.00  0.00     0.258 C 
HETATM    7  O   UNL     1       7.436  32.200  58.891  1.00  0.00    -0.269 OA
HETATM    8  H   UNL     1       4.987  30.456  57.840  1.00  0.00     0.190 HD
BRANCH   6   9
HETATM    9  C   UNL     1       5.061  32.516  59.402  1.00  0.00     0.173 C 
HETATM   10  C   UNL     1       3.889  32.536  58.424  1.00  0.00     0.042 C 
BRANCH   9  11
HETATM   11  N   UNL     1       4.631  31.837  60.623  1.00  0.00    -0.356 N 
HETATM   12  H   UNL     1       4.224  30.913  60.526  1.00  0.00     0.162 HD
BRANCH  11  13
HETATM   13  C   UNL     1       4.943  32.315  61.843  1.00  0.00     0.168 A 
HETATM   14  S   UNL     1       3.719  32.981  62.848  1.00  0.00    -0.050 SA
HETATM   15  C   UNL     1       4.893  33.347  64.049  1.00  0.00     0.037 A 
HETATM   16  C   UNL     1       6.140  32.906  63.607  1.00  0.00     0.076 A 
HETATM   17  C   UNL     1       4.726  33.981  65.293  1.00  0.00     0.021 A 
HETATM   18  N   UNL     1       6.147  32.303  62.360  1.00  0.00    -0.223 NA
HETATM   19  C   UNL     1       7.264  33.106  64.436  1.00  0.00     0.033 A 
HETATM   20  C   UNL     1       7.110  33.742  65.673  1.00  0.00     0.002 A 
HETATM   21  C   UNL     1       5.856  34.172  66.094  1.00  0.00     0.002 A 
ENDBRANCH  11  13
ENDBRANCH   9  11
ENDBRANCH   6   9
ENDBRANCH   2   5
BRANCH   1  22
HETATM   22  C   UNL     1       7.766  28.104  56.024  1.00  0.00     0.227 C 
BRANCH  22  23
HETATM   23  N   UNL     1       7.984  26.667  56.123  1.00  0.00    -0.348 N 
HETATM   24  C   UNL     1       7.444  25.796  55.203  1.00  0.00     0.252 C 
HETATM   25  O   UNL     1       6.823  26.197  54.225  1.00  0.00    -0.268 OA
HETATM   26  H   UNL     1       8.702  26.343  56.757  1.00  0.00     0.163 HD
BRANCH  24  27
HETATM   27  C   UNL     1       7.713  24.345  55.400  1.00  0.00     0.032 A 
HETATM   28  C   UNL     1       7.647  23.499  54.286  1.00  0.00     0.024 A 
HETATM   29  C   UNL     1       7.890  22.119  54.407  1.00  0.00    -0.055 A 
HETATM   30  C   UNL     1       8.177  21.579  55.676  1.00  0.00    -0.056 A 
HETATM   31  C   UNL     1       7.796  21.251  53.183  1.00  0.00     0.049 C 
HETATM   32  C   UNL     1       8.446  20.110  55.863  1.00  0.00     0.049 C 
HETATM   33  C   UNL     1       8.236  22.433  56.788  1.00  0.00     0.008 A 
HETATM   34  C   UNL     1       8.000  23.803  56.657  1.00  0.00     0.017 A 
ENDBRANCH  24  27
ENDBRANCH  22  23
ENDBRANCH   1  22
TORSDOF 7
ENDMDL
MODEL 9
REMARK VINA RESULT:      -9.6      3.243     11.857
REMARK  7 active torsions:
REMARK  status: ('A' for Active; 'I' for Inactive)
REMARK    1  A    between atoms: C_6  and  C_7 
REMARK       I    between atoms: C_7  and  N_8 
REMARK    2  A    between atoms: N_8  and  C_9 
REMARK    3  A    between atoms: C_9  and  C_10 
REMARK       I    between atoms: C_10  and  N_11 
REMARK    4  A    between atoms: N_11  and  N_12 
REMARK       I    between atoms: N_12  and  C_13 
REMARK    5  A    between atoms: C_13  and  C_14 
REMARK    6  A    between atoms: C_14  and  N_15 
REMARK    7  A    between atoms: N_15  and  C_16 
ROOT
HETATM    1  C   UNL     1       6.017  29.102  56.130  1.00  0.00     0.253 C 
HETATM    2  N   UNL     1       5.039  28.575  55.310  1.00  0.00    -0.266 N 
HETATM    3  O   UNL     1       7.045  28.487  56.419  1.00  0.00    -0.270 OA
HETATM    4  H   UNL     1       4.442  29.214  54.772  1.00  0.00     0.190 HD
ENDROOT
BRANCH   2   5
HETATM    5  N   UNL     1       5.287  27.320  54.722  1.00  0.00    -0.266 N 
HETATM    6  C   UNL     1       4.754  27.074  53.468  1.00  0.00     0.258 C 
HETATM    7  O   UNL     1       3.931  27.820  52.941  1.00  0.00    -0.269 OA
HETATM    8  H   UNL     1       6.144  26.842  55.012  1.00  0.00     0.190 HD
BRANCH   6   9
HETATM    9  C   UNL     1       5.268  25.772  52.827  1.00  0.00     0.173 C 
HETATM   10  C   UNL     1       5.220  25.856  51.304  1.00  0.00     0.042 C 
BRANCH   9  11
HETATM   11  N   UNL     1       6.649  25.516  53.232  1.00  0.00    -0.356 N 
HETATM   12  H   UNL     1       7.267  26.316  53.313  1.00  0.00     0.162 HD
BRANCH  11  13
HETATM   13  C   UNL     1       7.042  24.309  53.679  1.00  0.00     0.168 A 
HETATM   14  S   UNL     1       7.031  23.966  55.362  1.00  0.00    -0.050 SA
HETATM   15  C   UNL     1       7.663  22.398  55.056  1.00  0.00     0.037 A 
HETATM   16  C   UNL     1       7.813  22.235  53.679  1.00  0.00     0.076 A 
HETATM   17  C   UNL     1       8.007  21.383  55.967  1.00  0.00     0.021 A 
HETATM   18  N   UNL     1       7.435  23.323  52.910  1.00  0.00    -0.223 NA
HETATM   19  C   UNL     1       8.326  21.015  53.191  1.00  0.00     0.033 A 
HETATM   20  C   UNL     1       8.677  20.001  54.089  1.00  0.00     0.002 A 
HETATM   21  C   UNL     1       8.518  20.184  55.458  1.00  0.00     0.002 A 
ENDBRANCH  11  13
ENDBRANCH   9  11
ENDBRANCH   6   9
ENDBRANCH   2   5
BRANCH   1  22
HETATM   22  C   UNL     1       5.800  30.562  56.540  1.00  0.00     0.227 C 
BRANCH  22  23
HETATM   23  N   UNL     1       6.208  30.868  57.904  1.00  0.00    -0.348 N 
HETATM   24  C   UNL     1       6.065  32.134  58.427  1.00  0.00     0.252 C 
HETATM   25  O   UNL     1       5.521  33.034  57.795  1.00  0.00    -0.268 OA
HETATM   26  H   UNL     1       6.408  30.092  58.521  1.00  0.00     0.163 HD
BRANCH  24  27
HETATM   27  C   UNL     1       6.526  32.349  59.827  1.00  0.00     0.032 A 
HETATM   28  C   UNL     1       7.667  31.664  60.264  1.00  0.00     0.024 A 
HETATM   29  C   UNL     1       8.152  31.823  61.573  1.00  0.00    -0.055 A 
HETATM   30  C   UNL     1       7.459  32.665  62.466  1.00  0.00    -0.056 A 
HETATM   31  C   UNL     1       9.374  31.056  61.999  1.00  0.00     0.049 C 
HETATM   32  C   UNL     1       7.934  32.872  63.880  1.00  0.00     0.049 C 
HETATM   33  C   UNL     1       6.314  33.343  62.023  1.00  0.00     0.008 A 
HETATM   34  C   UNL     1       5.844  33.184  60.717  1.00  0.00     0.017 A 
ENDBRANCH  24  27
ENDBRANCH  22  23
ENDBRANCH   1  22
TORSDOF 7
ENDMDL
MODEL 10
REMARK VINA RESULT:      -9.6      2.339      3.003
REMARK  7 active torsions:
REMARK  status: ('A' for Active; 'I' for Inactive)
REMARK    1  A    between atoms: C_6  and  C_7 
REMARK       I    between atoms: C_7  and  N_8 
REMARK    2  A    between atoms: N_8  and  C_9 
REMARK    3  A    between atoms: C_9  and  C_10 
REMARK       I    between atoms: C_10  and  N_11 
REMARK    4  A    between atoms: N_11  and  N_12 
REMARK       I    between atoms: N_12  and  C_13 
REMARK    5  A    between atoms: C_13  and  C_14 
REMARK    6  A    between atoms: C_14  and  N_15 
REMARK    7  A    between atoms: N_15  and  C_16 
ROOT
HETATM    1  C   UNL     1       5.005  28.827  57.044  1.00  0.00     0.253 C 
HETATM    2  N   UNL     1       4.170  29.849  57.452  1.00  0.00    -0.266 N 
HETATM    3  O   UNL     1       6.183  28.750  57.400  1.00  0.00    -0.270 OA
HETATM    4  H   UNL     1       3.158  29.677  57.494  1.00  0.00     0.190 HD
ENDROOT
BRANCH   2   5
HETATM    5  N   UNL     1       4.678  30.777  58.379  1.00  0.00    -0.266 N 
HETATM    6  C   UNL     1       3.981  31.958  58.563  1.00  0.00     0.258 C 
HETATM    7  O   UNL     1       3.060  32.306  57.826  1.00  0.00    -0.269 OA
HETATM    8  H   UNL     1       5.242  30.396  59.143  1.00  0.00     0.190 HD
BRANCH   6   9
HETATM    9  C   UNL     1       4.493  32.796  59.750  1.00  0.00     0.173 C 
HETATM   10  C   UNL     1       3.603  34.014  59.985  1.00  0.00     0.042 C 
BRANCH   9  11
HETATM   11  N   UNL     1       4.506  31.992  60.971  1.00  0.00    -0.356 N 
HETATM   12  H   UNL     1       4.277  31.008  60.885  1.00  0.00     0.162 HD
BRANCH  11  13
HETATM   13  C   UNL     1       4.998  32.473  62.128  1.00  0.00     0.168 A 
HETATM   14  S   UNL     1       6.693  32.659  62.334  1.00  0.00    -0.050 SA
HETATM   15  C   UNL     1       6.445  33.216  63.941  1.00  0.00     0.037 A 
HETATM   16  C   UNL     1       5.075  33.247  64.199  1.00  0.00     0.076 A 
HETATM   17  C   UNL     1       7.393  33.595  64.908  1.00  0.00     0.021 A 
HETATM   18  N   UNL     1       4.265  32.842  63.151  1.00  0.00    -0.223 NA
HETATM   19  C   UNL     1       4.633  33.671  65.470  1.00  0.00     0.033 A 
HETATM   20  C   UNL     1       5.567  34.045  66.441  1.00  0.00     0.002 A 
HETATM   21  C   UNL     1       6.929  34.008  66.162  1.00  0.00     0.002 A 
ENDBRANCH  11  13
ENDBRANCH   9  11
ENDBRANCH   6   9
ENDBRANCH   2   5
BRANCH   1  22
HETATM   22  C   UNL     1       4.326  27.721  56.232  1.00  0.00     0.227 C 
BRANCH  22  23
HETATM   23  N   UNL     1       5.242  26.731  55.683  1.00  0.00    -0.348 N 
HETATM   24  C   UNL     1       5.462  25.529  56.319  1.00  0.00     0.252 C 
HETATM   25  O   UNL     1       4.842  25.211  57.328  1.00  0.00    -0.268 OA
HETATM   26  H   UNL     1       5.556  26.857  54.731  1.00  0.00     0.163 HD
BRANCH  24  27
HETATM   27  C   UNL     1       6.429  24.590  55.684  1.00  0.00     0.032 A 
HETATM   28  C   UNL     1       6.657  24.702  54.306  1.00  0.00     0.024 A 
HETATM   29  C   UNL     1       7.557  23.845  53.649  1.00  0.00    -0.055 A 
HETATM   30  C   UNL     1       8.216  22.841  54.386  1.00  0.00    -0.056 A 
HETATM   31  C   UNL     1       7.759  23.997  52.166  1.00  0.00     0.049 C 
HETATM   32  C   UNL     1       9.189  21.897  53.733  1.00  0.00     0.049 C 
HETATM   33  C   UNL     1       7.977  22.732  55.764  1.00  0.00     0.008 A 
HETATM   34  C   UNL     1       7.087  23.594  56.411  1.00  0.00     0.017 A 
ENDBRANCH  24  27
ENDBRANCH  22  23
ENDBRANCH   1  22
TORSDOF 7
ENDMDL
