MODEL 1
REMARK VINA RESULT:     -10.2      0.000      0.000
REMARK  7 active torsions:
REMARK  status: ('A' for Active; 'I' for Inactive)
REMARK    1  A    between atoms: O_2  and  C_3 
REMARK    2  A    between atoms: C_5  and  C_6 
REMARK    3  A    between atoms: N_8  and  C_9 
REMARK    4  A    between atoms: C_9  and  C_10 
REMARK    5  A    between atoms: C_17  and  C_18 
REMARK       I    between atoms: C_18  and  N_19 
REMARK    6  A    between atoms: N_19  and  N_20 
REMARK       I    between atoms: N_20  and  C_21 
REMARK    7  A    between atoms: C_21  and  C_22 
ROOT
HETATM    1  C   UNL     1       6.789  25.722  55.300  1.00  0.00     0.104 A 
HETATM    2  N   UNL     1       7.177  26.591  56.254  1.00  0.00    -0.171 NA
HETATM    3  N   UNL     1       6.484  27.712  56.009  1.00  0.00    -0.275 N 
HETATM    4  C   UNL     1       5.636  27.596  54.949  1.00  0.00     0.132 A 
HETATM    5  C   UNL     1       5.802  26.315  54.445  1.00  0.00     0.082 A 
ENDROOT
BRANCH   5   6
HETATM    6  C   UNL     1       5.125  25.759  53.281  1.00  0.00     0.274 C 
HETATM    7  N   UNL     1       5.411  26.403  52.091  1.00  0.00    -0.263 N 
HETATM    8  H   UNL     1       5.899  27.296  52.064  1.00  0.00     0.190 HD
HETATM    9  O   UNL     1       4.345  24.810  53.326  1.00  0.00    -0.266 OA
BRANCH   7  10
HETATM   10  N   UNL     1       4.650  26.092  50.952  1.00  0.00    -0.262 N 
HETATM   11  C   UNL     1       4.603  27.014  49.928  1.00  0.00     0.286 C 
HETATM   12  O   UNL     1       5.277  28.045  49.959  1.00  0.00    -0.264 OA
HETATM   13  H   UNL     1       4.032  25.287  51.017  1.00  0.00     0.190 HD
BRANCH  11  14
HETATM   14  C   UNL     1       3.718  26.698  48.830  1.00  0.00     0.102 A 
HETATM   15  N   UNL     1       2.420  27.168  48.801  1.00  0.00    -0.361 N 
HETATM   16  H   UNL     1       2.017  27.748  49.527  1.00  0.00     0.165 HD
HETATM   17  C   UNL     1       1.784  26.741  47.667  1.00  0.00     0.088 A 
HETATM   18  C   UNL     1       2.674  25.980  46.947  1.00  0.00     0.019 A 
HETATM   19  C   UNL     1       3.890  25.950  47.676  1.00  0.00     0.036 A 
ENDBRANCH  11  14
ENDBRANCH   7  10
ENDBRANCH   5   6
BRANCH   1  20
HETATM   20  C   UNL     1       7.379  24.378  55.288  1.00  0.00    -0.002 A 
HETATM   21  C   UNL     1       7.508  23.635  54.107  1.00  0.00     0.050 A 
HETATM   22  C   UNL     1       8.063  22.350  54.121  1.00  0.00     0.069 A 
HETATM   23  C   UNL     1       8.464  21.784  55.331  1.00  0.00     0.037 A 
HETATM   24  C   UNL     1       8.323  22.503  56.518  1.00  0.00     0.004 A 
HETATM   25  C   UNL     1       7.786  23.790  56.496  1.00  0.00     0.014 A 
BRANCH  22  26
HETATM   26  O   UNL     1       8.143  21.747  52.894  1.00  0.00    -0.356 OA
HETATM   27  C   UNL     1       8.408  20.350  52.887  1.00  0.00     0.210 C 
ENDBRANCH  22  26
ENDBRANCH   1  20
BRANCH   3  28
HETATM   28  C   UNL     1       6.633  28.867  56.885  1.00  0.00     0.189 C 
BRANCH  28  29
HETATM   29  C   UNL     1       8.063  29.341  56.967  1.00  0.00    -0.038 A 
HETATM   30  C   UNL     1       8.588  29.825  58.175  1.00  0.00     0.009 A 
HETATM   31  C   UNL     1       9.920  30.235  58.253  1.00  0.00     0.001 A 
HETATM   32  C   UNL     1      10.742  30.166  57.130  1.00  0.00     0.000 A 
HETATM   33  C   UNL     1      10.232  29.687  55.924  1.00  0.00     0.001 A 
HETATM   34  C   UNL     1       8.902  29.275  55.844  1.00  0.00     0.009 A 
ENDBRANCH  28  29
ENDBRANCH   3  28
TORSDOF 7
ENDMDL
MODEL 2
REMARK VINA RESULT:     -10.0      1.444      2.221
REMARK  7 active torsions:
REMARK  status: ('A' for Active; 'I' for Inactive)
REMARK    1  A    between atoms: O_2  and  C_3 
REMARK    2  A    between atoms: C_5  and  C_6 
REMARK    3  A    between atoms: N_8  and  C_9 
REMARK    4  A    between atoms: C_9  and  C_10 
REMARK    5  A    between atoms: C_17  and  C_18 
REMARK       I    between atoms: C_18  and  N_19 
REMARK    6  A    between atoms: N_19  and  N_20 
REMARK       I    between atoms: N_20  and  C_21 
REMARK    7  A    between atoms: C_21  and  C_22 
ROOT
HETATM    1  C   UNL     1       7.172  26.494  55.033  1.00  0.00     0.104 A 
HETATM    2  N   UNL     1       7.544  26.676  56.315  1.00  0.00    -0.171 NA
HETATM    3  N   UNL     1       7.195  27.938  56.604  1.00  0.00    -0.275 N 
HETATM    4  C   UNL     1       6.584  28.576  55.568  1.00  0.00     0.132 A 
HETATM    5  C   UNL     1       6.550  27.676  54.512  1.00  0.00     0.082 A 
ENDROOT
BRANCH   5   6
HETATM    6  C   UNL     1       6.021  27.940  53.180  1.00  0.00     0.274 C 
HETATM    7  N   UNL     1       4.841  27.278  52.892  1.00  0.00    -0.263 N 
HETATM    8  H   UNL     1       4.481  26.533  53.484  1.00  0.00     0.190 HD
HETATM    9  O   UNL     1       6.566  28.670  52.356  1.00  0.00    -0.266 OA
BRANCH   7  10
HETATM   10  N   UNL     1       4.365  27.288  51.571  1.00  0.00    -0.262 N 
HETATM   11  C   UNL     1       4.557  26.161  50.801  1.00  0.00     0.286 C 
HETATM   12  O   UNL     1       5.051  25.135  51.273  1.00  0.00    -0.264 OA
HETATM   13  H   UNL     1       4.064  28.184  51.196  1.00  0.00     0.190 HD
BRANCH  11  14
HETATM   14  C   UNL     1       4.152  26.262  49.417  1.00  0.00     0.102 A 
HETATM   15  N   UNL     1       3.263  25.361  48.865  1.00  0.00    -0.361 N 
HETATM   16  H   UNL     1       2.851  24.592  49.381  1.00  0.00     0.165 HD
HETATM   17  C   UNL     1       3.032  25.663  47.551  1.00  0.00     0.088 A 
HETATM   18  C   UNL     1       3.780  26.773  47.238  1.00  0.00     0.019 A 
HETATM   19  C   UNL     1       4.485  27.152  48.408  1.00  0.00     0.036 A 
ENDBRANCH  11  14
ENDBRANCH   7  10
ENDBRANCH   5   6
BRANCH   1  20
HETATM   20  C   UNL     1       7.424  25.192  54.403  1.00  0.00    -0.002 A 
HETATM   21  C   UNL     1       7.338  23.992  55.119  1.00  0.00     0.050 A 
HETATM   22  C   UNL     1       7.595  22.762  54.501  1.00  0.00     0.069 A 
HETATM   23  C   UNL     1       7.975  22.731  53.159  1.00  0.00     0.037 A 
HETATM   24  C   UNL     1       8.085  23.919  52.437  1.00  0.00     0.004 A 
HETATM   25  C   UNL     1       7.811  25.140  53.054  1.00  0.00     0.014 A 
BRANCH  22  26
HETATM   26  O   UNL     1       7.456  21.670  55.315  1.00  0.00    -0.356 OA
HETATM   27  C   UNL     1       8.475  21.467  56.287  1.00  0.00     0.210 C 
ENDBRANCH  22  26
ENDBRANCH   1  20
BRANCH   3  28
HETATM   28  C   UNL     1       7.422  28.467  57.943  1.00  0.00     0.189 C 
BRANCH  28  29
HETATM   29  C   UNL     1       8.567  29.449  57.983  1.00  0.00    -0.038 A 
HETATM   30  C   UNL     1       9.702  29.257  57.179  1.00  0.00     0.009 A 
HETATM   31  C   UNL     1      10.746  30.183  57.199  1.00  0.00     0.001 A 
HETATM   32  C   UNL     1      10.670  31.308  58.017  1.00  0.00     0.000 A 
HETATM   33  C   UNL     1       9.549  31.510  58.819  1.00  0.00     0.001 A 
HETATM   34  C   UNL     1       8.503  30.587  58.801  1.00  0.00     0.009 A 
ENDBRANCH  28  29
ENDBRANCH   3  28
TORSDOF 7
ENDMDL
MODEL 3
REMARK VINA RESULT:      -9.7      2.762      6.538
REMARK  7 active torsions:
REMARK  status: ('A' for Active; 'I' for Inactive)
REMARK    1  A    between atoms: O_2  and  C_3 
REMARK    2  A    between atoms: C_5  and  C_6 
REMARK    3  A    between atoms: N_8  and  C_9 
REMARK    4  A    between atoms: C_9  and  C_10 
REMARK    5  A    between atoms: C_17  and  C_18 
REMARK       I    between atoms: C_18  and  N_19 
REMARK    6  A    between atoms: N_19  and  N_20 
REMARK       I    between atoms: N_20  and  C_21 
REMARK    7  A    between atoms: C_21  and  C_22 
ROOT
HETATM    1  C   UNL     1       7.959  27.074  56.961  1.00  0.00     0.104 A 
HETATM    2  N   UNL     1       8.515  25.916  57.365  1.00  0.00    -0.171 NA
HETATM    3  N   UNL     1       7.790  24.955  56.776  1.00  0.00    -0.275 N 
HETATM    4  C   UNL     1       6.800  25.444  55.979  1.00  0.00     0.132 A 
HETATM    5  C   UNL     1       6.862  26.827  56.070  1.00  0.00     0.082 A 
ENDROOT
BRANCH   5   6
HETATM    6  C   UNL     1       5.964  27.769  55.415  1.00  0.00     0.274 C 
HETATM    7  N   UNL     1       4.827  27.195  54.877  1.00  0.00    -0.263 N 
HETATM    8  H   UNL     1       4.722  26.187  54.785  1.00  0.00     0.190 HD
HETATM    9  O   UNL     1       6.185  28.974  55.316  1.00  0.00    -0.266 OA
BRANCH   7  10
HETATM   10  N   UNL     1       4.009  27.971  54.039  1.00  0.00    -0.262 N 
HETATM   11  C   UNL     1       4.175  27.852  52.675  1.00  0.00     0.286 C 
HETATM   12  O   UNL     1       4.951  27.027  52.191  1.00  0.00    -0.264 OA
HETATM   13  H   UNL     1       3.465  28.708  54.480  1.00  0.00     0.190 HD
BRANCH  11  14
HETATM   14  C   UNL     1       3.391  28.752  51.861  1.00  0.00     0.102 A 
HETATM   15  N   UNL     1       2.733  28.305  50.732  1.00  0.00    -0.361 N 
HETATM   16  H   UNL     1       2.758  27.344  50.412  1.00  0.00     0.165 HD
HETATM   17  C   UNL     1       2.058  29.335  50.134  1.00  0.00     0.088 A 
HETATM   18  C   UNL     1       2.280  30.470  50.877  1.00  0.00     0.019 A 
HETATM   19  C   UNL     1       3.117  30.107  51.963  1.00  0.00     0.036 A 
ENDBRANCH  11  14
ENDBRANCH   7  10
ENDBRANCH   5   6
BRANCH   1  20
HETATM   20  C   UNL     1       8.529  28.338  57.444  1.00  0.00    -0.002 A 
HETATM   21  C   UNL     1       7.892  29.115  58.419  1.00  0.00     0.050 A 
HETATM   22  C   UNL     1       8.448  30.323  58.856  1.00  0.00     0.069 A 
HETATM   23  C   UNL     1       9.638  30.780  58.290  1.00  0.00     0.037 A 
HETATM   24  C   UNL     1      10.274  30.028  57.302  1.00  0.00     0.004 A 
HETATM   25  C   UNL     1       9.724  28.816  56.884  1.00  0.00     0.014 A 
BRANCH  22  26
HETATM   26  O   UNL     1       7.727  30.969  59.826  1.00  0.00    -0.356 OA
HETATM   27  C   UNL     1       6.833  31.984  59.385  1.00  0.00     0.210 C 
ENDBRANCH  22  26
ENDBRANCH   1  20
BRANCH   3  28
HETATM   28  C   UNL     1       8.143  23.554  56.968  1.00  0.00     0.189 C 
BRANCH  28  29
HETATM   29  C   UNL     1       8.090  22.769  55.681  1.00  0.00    -0.038 A 
HETATM   30  C   UNL     1       8.387  23.385  54.455  1.00  0.00     0.009 A 
HETATM   31  C   UNL     1       8.364  22.648  53.270  1.00  0.00     0.001 A 
HETATM   32  C   UNL     1       8.047  21.291  53.295  1.00  0.00     0.000 A 
HETATM   33  C   UNL     1       7.751  20.668  54.505  1.00  0.00     0.001 A 
HETATM   34  C   UNL     1       7.774  21.402  55.691  1.00  0.00     0.009 A 
ENDBRANCH  28  29
ENDBRANCH   3  28
TORSDOF 7
ENDMDL
MODEL 4
REMARK VINA RESULT:      -9.7      4.690      9.069
REMARK  7 active torsions:
REMARK  status: ('A' for Active; 'I' for Inactive)
REMARK    1  A    between atoms: O_2  and  C_3 
REMARK    2  A    between atoms: C_5  and  C_6 
REMARK    3  A    between atoms: N_8  and  C_9 
REMARK    4  A    between atoms: C_9  and  C_10 
REMARK    5  A    between atoms: C_17  and  C_18 
REMARK       I    between atoms: C_18  and  N_19 
REMARK    6  A    between atoms: N_19  and  N_20 
REMARK       I    between atoms: N_20  and  C_21 
REMARK    7  A    between atoms: C_21  and  C_22 
ROOT
HETATM    1  C   UNL     1       7.308  28.409  57.281  1.00  0.00     0.104 A 
HETATM    2  N   UNL     1       7.470  27.077  57.161  1.00  0.00    -0.171 NA
HETATM    3  N   UNL     1       6.232  26.587  57.001  1.00  0.00    -0.275 N 
HETATM    4  C   UNL     1       5.272  27.553  56.983  1.00  0.00     0.132 A 
HETATM    5  C   UNL     1       5.922  28.764  57.170  1.00  0.00     0.082 A 
ENDROOT
BRANCH   5   6
HETATM    6  C   UNL     1       5.286  30.071  57.261  1.00  0.00     0.274 C 
HETATM    7  N   UNL     1       4.623  30.303  58.452  1.00  0.00    -0.263 N 
HETATM    8  H   UNL     1       4.439  29.559  59.122  1.00  0.00     0.190 HD
HETATM    9  O   UNL     1       5.306  30.910  56.362  1.00  0.00    -0.266 OA
BRANCH   7  10
HETATM   10  N   UNL     1       3.798  31.434  58.558  1.00  0.00    -0.262 N 
HETATM   11  C   UNL     1       4.135  32.403  59.481  1.00  0.00     0.286 C 
HETATM   12  O   UNL     1       5.177  32.333  60.135  1.00  0.00    -0.264 OA
HETATM   13  H   UNL     1       2.901  31.397  58.081  1.00  0.00     0.190 HD
BRANCH  11  14
HETATM   14  C   UNL     1       3.194  33.489  59.631  1.00  0.00     0.102 A 
HETATM   15  N   UNL     1       2.315  33.531  60.695  1.00  0.00    -0.361 N 
HETATM   16  H   UNL     1       2.274  32.821  61.417  1.00  0.00     0.165 HD
HETATM   17  C   UNL     1       1.532  34.651  60.624  1.00  0.00     0.088 A 
HETATM   18  C   UNL     1       1.901  35.349  59.498  1.00  0.00     0.019 A 
HETATM   19  C   UNL     1       2.944  34.622  58.872  1.00  0.00     0.036 A 
ENDBRANCH  11  14
ENDBRANCH   7  10
ENDBRANCH   5   6
BRANCH   1  20
HETATM   20  C   UNL     1       8.495  29.250  57.478  1.00  0.00    -0.002 A 
HETATM   21  C   UNL     1       8.444  30.450  58.196  1.00  0.00     0.050 A 
HETATM   22  C   UNL     1       9.586  31.242  58.361  1.00  0.00     0.069 A 
HETATM   23  C   UNL     1      10.789  30.850  57.772  1.00  0.00     0.037 A 
HETATM   24  C   UNL     1      10.852  29.667  57.036  1.00  0.00     0.004 A 
HETATM   25  C   UNL     1       9.714  28.872  56.891  1.00  0.00     0.014 A 
BRANCH  22  26
HETATM   26  O   UNL     1       9.395  32.379  59.100  1.00  0.00    -0.356 OA
HETATM   27  C   UNL     1       8.859  32.207  60.406  1.00  0.00     0.210 C 
ENDBRANCH  22  26
ENDBRANCH   1  20
BRANCH   3  28
HETATM   28  C   UNL     1       6.035  25.157  56.801  1.00  0.00     0.189 C 
BRANCH  28  29
HETATM   29  C   UNL     1       6.506  24.699  55.442  1.00  0.00    -0.038 A 
HETATM   30  C   UNL     1       7.679  23.940  55.311  1.00  0.00     0.009 A 
HETATM   31  C   UNL     1       8.096  23.495  54.055  1.00  0.00     0.001 A 
HETATM   32  C   UNL     1       7.348  23.801  52.919  1.00  0.00     0.000 A 
HETATM   33  C   UNL     1       6.182  24.554  53.037  1.00  0.00     0.001 A 
HETATM   34  C   UNL     1       5.762  24.999  54.291  1.00  0.00     0.009 A 
ENDBRANCH  28  29
ENDBRANCH   3  28
TORSDOF 7
ENDMDL
MODEL 5
REMARK VINA RESULT:      -9.6      2.239      6.070
REMARK  7 active torsions:
REMARK  status: ('A' for Active; 'I' for Inactive)
REMARK    1  A    between atoms: O_2  and  C_3 
REMARK    2  A    between atoms: C_5  and  C_6 
REMARK    3  A    between atoms: N_8  and  C_9 
REMARK    4  A    between atoms: C_9  and  C_10 
REMARK    5  A    between atoms: C_17  and  C_18 
REMARK       I    between atoms: C_18  and  N_19 
REMARK    6  A    between atoms: N_19  and  N_20 
REMARK       I    between atoms: N_20  and  C_21 
REMARK    7  A    between atoms: C_21  and  C_22 
ROOT
HETATM    1  C   UNL     1       7.427  26.665  56.626  1.00  0.00     0.104 A 
HETATM    2  N   UNL     1       8.008  25.679  57.338  1.00  0.00    -0.171 NA
HETATM    3  N   UNL     1       7.782  24.560  56.637  1.00  0.00    -0.275 N 
HETATM    4  C   UNL     1       7.100  24.783  55.479  1.00  0.00     0.132 A 
HETATM    5  C   UNL     1       6.837  26.144  55.427  1.00  0.00     0.082 A 
ENDROOT
BRANCH   5   6
HETATM    6  C   UNL     1       6.091  26.832  54.382  1.00  0.00     0.274 C 
HETATM    7  N   UNL     1       5.135  26.054  53.754  1.00  0.00    -0.263 N 
HETATM    8  H   UNL     1       5.090  25.045  53.883  1.00  0.00     0.190 HD
HETATM    9  O   UNL     1       6.287  27.999  54.052  1.00  0.00    -0.266 OA
BRANCH   7  10
HETATM   10  N   UNL     1       4.516  26.547  52.594  1.00  0.00    -0.262 N 
HETATM   11  C   UNL     1       5.115  26.294  51.378  1.00  0.00     0.286 C 
HETATM   12  O   UNL     1       6.115  25.580  51.290  1.00  0.00    -0.264 OA
HETATM   13  H   UNL     1       3.760  27.214  52.724  1.00  0.00     0.190 HD
BRANCH  11  14
HETATM   14  C   UNL     1       4.502  26.917  50.228  1.00  0.00     0.102 A 
HETATM   15  N   UNL     1       3.564  27.920  50.374  1.00  0.00    -0.361 N 
HETATM   16  H   UNL     1       3.254  28.272  51.272  1.00  0.00     0.165 HD
HETATM   17  C   UNL     1       3.134  28.353  49.148  1.00  0.00     0.088 A 
HETATM   18  C   UNL     1       3.795  27.623  48.190  1.00  0.00     0.019 A 
HETATM   19  C   UNL     1       4.655  26.720  48.864  1.00  0.00     0.036 A 
ENDBRANCH  11  14
ENDBRANCH   7  10
ENDBRANCH   5   6
BRANCH   1  20
HETATM   20  C   UNL     1       7.493  28.039  57.137  1.00  0.00    -0.002 A 
HETATM   21  C   UNL     1       8.712  28.668  57.420  1.00  0.00     0.050 A 
HETATM   22  C   UNL     1       8.752  29.976  57.918  1.00  0.00     0.069 A 
HETATM   23  C   UNL     1       7.559  30.654  58.170  1.00  0.00     0.037 A 
HETATM   24  C   UNL     1       6.336  30.034  57.913  1.00  0.00     0.004 A 
HETATM   25  C   UNL     1       6.304  28.737  57.400  1.00  0.00     0.014 A 
BRANCH  22  26
HETATM   26  O   UNL     1      10.010  30.471  58.132  1.00  0.00    -0.356 OA
HETATM   27  C   UNL     1      11.025  30.041  57.233  1.00  0.00     0.210 C 
ENDBRANCH  22  26
ENDBRANCH   1  20
BRANCH   3  28
HETATM   28  C   UNL     1       8.312  23.286  57.106  1.00  0.00     0.189 C 
BRANCH  28  29
HETATM   29  C   UNL     1       8.416  22.267  55.998  1.00  0.00    -0.038 A 
HETATM   30  C   UNL     1       8.985  22.611  54.762  1.00  0.00     0.009 A 
HETATM   31  C   UNL     1       9.105  21.656  53.750  1.00  0.00     0.001 A 
HETATM   32  C   UNL     1       8.661  20.353  53.960  1.00  0.00     0.000 A 
HETATM   33  C   UNL     1       8.093  20.000  55.182  1.00  0.00     0.001 A 
HETATM   34  C   UNL     1       7.973  20.950  56.196  1.00  0.00     0.009 A 
ENDBRANCH  28  29
ENDBRANCH   3  28
TORSDOF 7
ENDMDL
MODEL 6
REMARK VINA RESULT:      -9.4      2.326      7.959
REMARK  7 active torsions:
REMARK  status: ('A' for Active; 'I' for Inactive)
REMARK    1  A    between atoms: O_2  and  C_3 
REMARK    2  A    between atoms: C_5  and  C_6 
REMARK    3  A    between atoms: N_8  and  C_9 
REMARK    4  A    between atoms: C_9  and  C_10 
REMARK    5  A    between atoms: C_17  and  C_18 
REMARK       I    between atoms: C_18  and  N_19 
REMARK    6  A    between atoms: N_19  and  N_20 
REMARK       I    between atoms: N_20  and  C_21 
REMARK    7  A    between atoms: C_21  and  C_22 
ROOT
HETATM    1  C   UNL     1       5.976  26.529  53.528  1.00  0.00     0.104 A 
HETATM    2  N   UNL     1       5.018  26.414  52.587  1.00  0.00    -0.171 NA
HETATM    3  N   UNL     1       4.671  27.673  52.285  1.00  0.00    -0.275 N 
HETATM    4  C   UNL     1       5.387  28.606  52.973  1.00  0.00     0.132 A 
HETATM    5  C   UNL     1       6.251  27.909  53.806  1.00  0.00     0.082 A 
ENDROOT
BRANCH   5   6
HETATM    6  C   UNL     1       7.182  28.499  54.758  1.00  0.00     0.274 C 
HETATM    7  N   UNL     1       6.587  29.029  55.889  1.00  0.00    -0.263 N 
HETATM    8  H   UNL     1       5.580  29.161  55.957  1.00  0.00     0.190 HD
HETATM    9  O   UNL     1       8.398  28.552  54.588  1.00  0.00    -0.266 OA
BRANCH   7  10
HETATM   10  N   UNL     1       7.363  29.810  56.760  1.00  0.00    -0.262 N 
HETATM   11  C   UNL     1       7.772  29.246  57.950  1.00  0.00     0.286 C 
HETATM   12  O   UNL     1       7.547  28.064  58.213  1.00  0.00    -0.264 OA
HETATM   13  H   UNL     1       7.431  30.803  56.552  1.00  0.00     0.190 HD
BRANCH  11  14
HETATM   14  C   UNL     1       8.470  30.126  58.861  1.00  0.00     0.102 A 
HETATM   15  N   UNL     1       8.148  30.167  60.202  1.00  0.00    -0.361 N 
HETATM   16  H   UNL     1       7.421  29.599  60.623  1.00  0.00     0.165 HD
HETATM   17  C   UNL     1       8.944  31.067  60.858  1.00  0.00     0.088 A 
HETATM   18  C   UNL     1       9.795  31.624  59.933  1.00  0.00     0.019 A 
HETATM   19  C   UNL     1       9.500  31.035  58.677  1.00  0.00     0.036 A 
ENDBRANCH  11  14
ENDBRANCH   7  10
ENDBRANCH   5   6
BRANCH   1  20
HETATM   20  C   UNL     1       6.572  25.307  54.082  1.00  0.00    -0.002 A 
HETATM   21  C   UNL     1       6.960  24.236  53.268  1.00  0.00     0.050 A 
HETATM   22  C   UNL     1       7.516  23.075  53.820  1.00  0.00     0.069 A 
HETATM   23  C   UNL     1       7.656  22.967  55.204  1.00  0.00     0.037 A 
HETATM   24  C   UNL     1       7.254  24.017  56.029  1.00  0.00     0.004 A 
HETATM   25  C   UNL     1       6.718  25.179  55.473  1.00  0.00     0.014 A 
BRANCH  22  26
HETATM   26  O   UNL     1       7.865  22.117  52.906  1.00  0.00    -0.356 OA
HETATM   27  C   UNL     1       7.934  20.778  53.382  1.00  0.00     0.210 C 
ENDBRANCH  22  26
ENDBRANCH   1  20
BRANCH   3  28
HETATM   28  C   UNL     1       3.669  27.926  51.259  1.00  0.00     0.189 C 
BRANCH  28  29
HETATM   29  C   UNL     1       4.235  27.806  49.865  1.00  0.00    -0.038 A 
HETATM   30  C   UNL     1       4.962  28.862  49.295  1.00  0.00     0.009 A 
HETATM   31  C   UNL     1       5.508  28.736  48.016  1.00  0.00     0.001 A 
HETATM   32  C   UNL     1       5.335  27.556  47.295  1.00  0.00     0.000 A 
HETATM   33  C   UNL     1       4.615  26.500  47.850  1.00  0.00     0.001 A 
HETATM   34  C   UNL     1       4.070  26.623  49.128  1.00  0.00     0.009 A 
ENDBRANCH  28  29
ENDBRANCH   3  28
TORSDOF 7
ENDMDL
MODEL 7
REMARK VINA RESULT:      -9.3      3.778      7.594
REMARK  7 active torsions:
REMARK  status: ('A' for Active; 'I' for Inactive)
REMARK    1  A    between atoms: O_2  and  C_3 
REMARK    2  A    between atoms: C_5  and  C_6 
REMARK    3  A    between atoms: N_8  and  C_9 
REMARK    4  A    between atoms: C_9  and  C_10 
REMARK    5  A    between atoms: C_17  and  C_18 
REMARK       I    between atoms: C_18  and  N_19 
REMARK    6  A    between atoms: N_19  and  N_20 
REMARK       I    between atoms: N_20  and  C_21 
REMARK    7  A    between atoms: C_21  and  C_22 
ROOT
HETATM    1  C   UNL     1       7.013  29.190  57.171  1.00  0.00     0.104 A 
HETATM    2  N   UNL     1       6.003  30.082  57.161  1.00  0.00    -0.171 NA
HETATM    3  N   UNL     1       4.895  29.352  56.973  1.00  0.00    -0.275 N 
HETATM    4  C   UNL     1       5.141  28.015  56.889  1.00  0.00     0.132 A 
HETATM    5  C   UNL     1       6.514  27.856  57.005  1.00  0.00     0.082 A 
ENDROOT
BRANCH   5   6
HETATM    6  C   UNL     1       7.238  26.593  56.932  1.00  0.00     0.274 C 
HETATM    7  N   UNL     1       7.288  26.036  55.667  1.00  0.00    -0.263 N 
HETATM    8  H   UNL     1       6.714  26.380  54.902  1.00  0.00     0.190 HD
HETATM    9  O   UNL     1       7.753  26.039  57.900  1.00  0.00    -0.266 OA
BRANCH   7  10
HETATM   10  N   UNL     1       7.767  24.724  55.525  1.00  0.00    -0.262 N 
HETATM   11  C   UNL     1       7.111  23.882  54.652  1.00  0.00     0.286 C 
HETATM   12  O   UNL     1       6.186  24.283  53.944  1.00  0.00    -0.264 OA
HETATM   13  H   UNL     1       8.458  24.409  56.202  1.00  0.00     0.190 HD
BRANCH  11  14
HETATM   14  C   UNL     1       7.571  22.512  54.626  1.00  0.00     0.102 A 
HETATM   15  N   UNL     1       7.655  21.764  55.784  1.00  0.00    -0.361 N 
HETATM   16  H   UNL     1       7.407  22.119  56.700  1.00  0.00     0.165 HD
HETATM   17  C   UNL     1       8.110  20.504  55.506  1.00  0.00     0.088 A 
HETATM   18  C   UNL     1       8.329  20.426  54.151  1.00  0.00     0.019 A 
HETATM   19  C   UNL     1       7.992  21.686  53.595  1.00  0.00     0.036 A 
ENDBRANCH  11  14
ENDBRANCH   7  10
ENDBRANCH   5   6
BRANCH   1  20
HETATM   20  C   UNL     1       8.385  29.679  57.355  1.00  0.00    -0.002 A 
HETATM   21  C   UNL     1       8.688  30.729  58.231  1.00  0.00     0.050 A 
HETATM   22  C   UNL     1      10.002  31.187  58.382  1.00  0.00     0.069 A 
HETATM   23  C   UNL     1      11.024  30.613  57.625  1.00  0.00     0.037 A 
HETATM   24  C   UNL     1      10.736  29.581  56.733  1.00  0.00     0.004 A 
HETATM   25  C   UNL     1       9.427  29.117  56.599  1.00  0.00     0.014 A 
BRANCH  22  26
HETATM   26  O   UNL     1      10.154  32.205  59.285  1.00  0.00    -0.356 OA
HETATM   27  C   UNL     1       9.521  32.038  60.547  1.00  0.00     0.210 C 
ENDBRANCH  22  26
ENDBRANCH   1  20
BRANCH   3  28
HETATM   28  C   UNL     1       3.591  30.003  56.946  1.00  0.00     0.189 C 
BRANCH  28  29
HETATM   29  C   UNL     1       3.338  30.723  55.645  1.00  0.00    -0.038 A 
HETATM   30  C   UNL     1       3.750  30.163  54.426  1.00  0.00     0.009 A 
HETATM   31  C   UNL     1       3.489  30.820  53.222  1.00  0.00     0.001 A 
HETATM   32  C   UNL     1       2.815  32.040  53.222  1.00  0.00     0.000 A 
HETATM   33  C   UNL     1       2.401  32.606  54.425  1.00  0.00     0.001 A 
HETATM   34  C   UNL     1       2.659  31.951  55.630  1.00  0.00     0.009 A 
ENDBRANCH  28  29
ENDBRANCH   3  28
TORSDOF 7
ENDMDL
MODEL 8
REMARK VINA RESULT:      -9.2      3.116      8.700
REMARK  7 active torsions:
REMARK  status: ('A' for Active; 'I' for Inactive)
REMARK    1  A    between atoms: O_2  and  C_3 
REMARK    2  A    between atoms: C_5  and  C_6 
REMARK    3  A    between atoms: N_8  and  C_9 
REMARK    4  A    between atoms: C_9  and  C_10 
REMARK    5  A    between atoms: C_17  and  C_18 
REMARK       I    between atoms: C_18  and  N_19 
REMARK    6  A    between atoms: N_19  and  N_20 
REMARK       I    between atoms: N_20  and  C_21 
REMARK    7  A    between atoms: C_21  and  C_22 
ROOT
HETATM    1  C   UNL     1       7.031  26.326  55.333  1.00  0.00     0.104 A 
HETATM    2  N   UNL     1       7.696  25.162  55.193  1.00  0.00    -0.171 NA
HETATM    3  N   UNL     1       8.197  24.897  56.408  1.00  0.00    -0.275 N 
HETATM    4  C   UNL     1       7.858  25.828  57.342  1.00  0.00     0.132 A 
HETATM    5  C   UNL     1       7.101  26.790  56.689  1.00  0.00     0.082 A 
ENDROOT
BRANCH   5   6
HETATM    6  C   UNL     1       6.554  28.000  57.288  1.00  0.00     0.274 C 
HETATM    7  N   UNL     1       7.506  28.885  57.760  1.00  0.00    -0.263 N 
HETATM    8  H   UNL     1       8.487  28.627  57.850  1.00  0.00     0.190 HD
HETATM    9  O   UNL     1       5.352  28.232  57.395  1.00  0.00    -0.266 OA
BRANCH   7  10
HETATM   10  N   UNL     1       7.090  29.971  58.546  1.00  0.00    -0.262 N 
HETATM   11  C   UNL     1       7.992  30.514  59.438  1.00  0.00     0.286 C 
HETATM   12  O   UNL     1       9.159  30.125  59.488  1.00  0.00    -0.264 OA
HETATM   13  H   UNL     1       6.096  30.185  58.547  1.00  0.00     0.190 HD
BRANCH  11  14
HETATM   14  C   UNL     1       7.481  31.554  60.302  1.00  0.00     0.102 A 
HETATM   15  N   UNL     1       6.146  31.907  60.283  1.00  0.00    -0.361 N 
HETATM   16  H   UNL     1       5.459  31.472  59.678  1.00  0.00     0.165 HD
HETATM   17  C   UNL     1       5.904  32.906  61.187  1.00  0.00     0.088 A 
HETATM   18  C   UNL     1       7.094  33.213  61.802  1.00  0.00     0.019 A 
HETATM   19  C   UNL     1       8.087  32.365  61.248  1.00  0.00     0.036 A 
ENDBRANCH  11  14
ENDBRANCH   7  10
ENDBRANCH   5   6
BRANCH   1  20
HETATM   20  C   UNL     1       6.360  26.902  54.162  1.00  0.00    -0.002 A 
HETATM   21  C   UNL     1       5.979  26.119  53.065  1.00  0.00     0.050 A 
HETATM   22  C   UNL     1       5.351  26.692  51.953  1.00  0.00     0.069 A 
HETATM   23  C   UNL     1       5.130  28.069  51.918  1.00  0.00     0.037 A 
HETATM   24  C   UNL     1       5.522  28.865  52.994  1.00  0.00     0.004 A 
HETATM   25  C   UNL     1       6.131  28.286  54.107  1.00  0.00     0.014 A 
BRANCH  22  26
HETATM   26  O   UNL     1       5.018  25.806  50.962  1.00  0.00    -0.356 OA
HETATM   27  C   UNL     1       4.694  26.362  49.694  1.00  0.00     0.210 C 
ENDBRANCH  22  26
ENDBRANCH   1  20
BRANCH   3  28
HETATM   28  C   UNL     1       8.956  23.673  56.631  1.00  0.00     0.189 C 
BRANCH  28  29
HETATM   29  C   UNL     1       8.598  22.590  55.642  1.00  0.00    -0.038 A 
HETATM   30  C   UNL     1       8.952  22.712  54.289  1.00  0.00     0.009 A 
HETATM   31  C   UNL     1       8.644  21.695  53.384  1.00  0.00     0.001 A 
HETATM   32  C   UNL     1       7.982  20.548  53.817  1.00  0.00     0.000 A 
HETATM   33  C   UNL     1       7.625  20.415  55.158  1.00  0.00     0.001 A 
HETATM   34  C   UNL     1       7.933  21.429  56.065  1.00  0.00     0.009 A 
ENDBRANCH  28  29
ENDBRANCH   3  28
TORSDOF 7
ENDMDL
MODEL 9
REMARK VINA RESULT:      -9.2      4.331      7.988
REMARK  7 active torsions:
REMARK  status: ('A' for Active; 'I' for Inactive)
REMARK    1  A    between atoms: O_2  and  C_3 
REMARK    2  A    between atoms: C_5  and  C_6 
REMARK    3  A    between atoms: N_8  and  C_9 
REMARK    4  A    between atoms: C_9  and  C_10 
REMARK    5  A    between atoms: C_17  and  C_18 
REMARK       I    between atoms: C_18  and  N_19 
REMARK    6  A    between atoms: N_19  and  N_20 
REMARK       I    between atoms: N_20  and  C_21 
REMARK    7  A    between atoms: C_21  and  C_22 
ROOT
HETATM    1  C   UNL     1       7.867  27.661  57.135  1.00  0.00     0.104 A 
HETATM    2  N   UNL     1       8.384  26.433  57.335  1.00  0.00    -0.171 NA
HETATM    3  N   UNL     1       7.447  25.583  56.891  1.00  0.00    -0.275 N 
HETATM    4  C   UNL     1       6.351  26.211  56.383  1.00  0.00     0.132 A 
HETATM    5  C   UNL     1       6.571  27.573  56.525  1.00  0.00     0.082 A 
ENDROOT
BRANCH   5   6
HETATM    6  C   UNL     1       5.644  28.633  56.153  1.00  0.00     0.274 C 
HETATM    7  N   UNL     1       6.246  29.762  55.628  1.00  0.00    -0.263 N 
HETATM    8  H   UNL     1       7.252  29.909  55.674  1.00  0.00     0.190 HD
HETATM    9  O   UNL     1       4.426  28.564  56.299  1.00  0.00    -0.266 OA
BRANCH   7  10
HETATM   10  N   UNL     1       5.472  30.918  55.442  1.00  0.00    -0.262 N 
HETATM   11  C   UNL     1       5.359  31.803  56.494  1.00  0.00     0.286 C 
HETATM   12  O   UNL     1       5.988  31.641  57.541  1.00  0.00    -0.264 OA
HETATM   13  H   UNL     1       4.891  30.955  54.608  1.00  0.00     0.190 HD
BRANCH  11  14
HETATM   14  C   UNL     1       4.461  32.917  56.291  1.00  0.00     0.102 A 
HETATM   15  N   UNL     1       4.916  34.120  55.790  1.00  0.00    -0.361 N 
HETATM   16  H   UNL     1       5.883  34.294  55.541  1.00  0.00     0.165 HD
HETATM   17  C   UNL     1       3.885  35.015  55.685  1.00  0.00     0.088 A 
HETATM   18  C   UNL     1       2.742  34.390  56.125  1.00  0.00     0.019 A 
HETATM   19  C   UNL     1       3.100  33.073  56.507  1.00  0.00     0.036 A 
ENDBRANCH  11  14
ENDBRANCH   7  10
ENDBRANCH   5   6
BRANCH   1  20
HETATM   20  C   UNL     1       8.659  28.833  57.527  1.00  0.00    -0.002 A 
HETATM   21  C   UNL     1       8.338  29.603  58.652  1.00  0.00     0.050 A 
HETATM   22  C   UNL     1       9.100  30.724  59.001  1.00  0.00     0.069 A 
HETATM   23  C   UNL     1      10.177  31.103  58.199  1.00  0.00     0.037 A 
HETATM   24  C   UNL     1      10.496  30.359  57.063  1.00  0.00     0.004 A 
HETATM   25  C   UNL     1       9.744  29.232  56.730  1.00  0.00     0.014 A 
BRANCH  22  26
HETATM   26  O   UNL     1       8.684  31.371  60.134  1.00  0.00    -0.356 OA
HETATM   27  C   UNL     1       8.996  30.749  61.374  1.00  0.00     0.210 C 
ENDBRANCH  22  26
ENDBRANCH   1  20
BRANCH   3  28
HETATM   28  C   UNL     1       7.693  24.147  56.923  1.00  0.00     0.189 C 
BRANCH  28  29
HETATM   29  C   UNL     1       7.793  23.553  55.540  1.00  0.00    -0.038 A 
HETATM   30  C   UNL     1       7.724  22.164  55.351  1.00  0.00     0.009 A 
HETATM   31  C   UNL     1       7.788  21.621  54.066  1.00  0.00     0.001 A 
HETATM   32  C   UNL     1       7.919  22.457  52.959  1.00  0.00     0.000 A 
HETATM   33  C   UNL     1       7.988  23.837  53.133  1.00  0.00     0.001 A 
HETATM   34  C   UNL     1       7.923  24.383  54.415  1.00  0.00     0.009 A 
ENDBRANCH  28  29
ENDBRANCH   3  28
TORSDOF 7
ENDMDL
MODEL 10
REMARK VINA RESULT:      -9.0      2.740      8.436
REMARK  7 active torsions:
REMARK  status: ('A' for Active; 'I' for Inactive)
REMARK    1  A    between atoms: O_2  and  C_3 
REMARK    2  A    between atoms: C_5  and  C_6 
REMARK    3  A    between atoms: N_8  and  C_9 
REMARK    4  A    between atoms: C_9  and  C_10 
REMARK    5  A    between atoms: C_17  and  C_18 
REMARK       I    between atoms: C_18  and  N_19 
REMARK    6  A    between atoms: N_19  and  N_20 
REMARK       I    between atoms: N_20  and  C_21 
REMARK    7  A    between atoms: C_21  and  C_22 
ROOT
HETATM    1  C   UNL     1       6.204  26.107  52.818  1.00  0.00     0.104 A 
HETATM    2  N   UNL     1       6.148  24.835  52.379  1.00  0.00    -0.171 NA
HETATM    3  N   UNL     1       7.213  24.230  52.923  1.00  0.00    -0.275 N 
HETATM    4  C   UNL     1       7.946  25.052  53.723  1.00  0.00     0.132 A 
HETATM    5  C   UNL     1       7.332  26.296  53.684  1.00  0.00     0.082 A 
ENDROOT
BRANCH   5   6
HETATM    6  C   UNL     1       7.794  27.500  54.362  1.00  0.00     0.274 C 
HETATM    7  N   UNL     1       7.540  27.524  55.721  1.00  0.00    -0.263 N 
HETATM    8  H   UNL     1       6.923  26.849  56.168  1.00  0.00     0.190 HD
HETATM    9  O   UNL     1       8.348  28.439  53.795  1.00  0.00    -0.266 OA
BRANCH   7  10
HETATM   10  N   UNL     1       7.745  28.720  56.427  1.00  0.00    -0.262 N 
HETATM   11  C   UNL     1       7.852  28.657  57.800  1.00  0.00     0.286 C 
HETATM   12  O   UNL     1       7.862  27.578  58.395  1.00  0.00    -0.264 OA
HETATM   13  H   UNL     1       7.623  29.587  55.909  1.00  0.00     0.190 HD
BRANCH  11  14
HETATM   14  C   UNL     1       7.947  29.925  58.488  1.00  0.00     0.102 A 
HETATM   15  N   UNL     1       6.816  30.629  58.846  1.00  0.00    -0.361 N 
HETATM   16  H   UNL     1       5.873  30.312  58.655  1.00  0.00     0.165 HD
HETATM   17  C   UNL     1       7.159  31.790  59.486  1.00  0.00     0.088 A 
HETATM   18  C   UNL     1       8.531  31.847  59.543  1.00  0.00     0.019 A 
HETATM   19  C   UNL     1       9.030  30.677  58.917  1.00  0.00     0.036 A 
ENDBRANCH  11  14
ENDBRANCH   7  10
ENDBRANCH   5   6
BRANCH   1  20
HETATM   20  C   UNL     1       5.162  27.048  52.391  1.00  0.00    -0.002 A 
HETATM   21  C   UNL     1       5.023  27.446  51.055  1.00  0.00     0.050 A 
HETATM   22  C   UNL     1       4.030  28.355  50.672  1.00  0.00     0.069 A 
HETATM   23  C   UNL     1       3.184  28.900  51.638  1.00  0.00     0.037 A 
HETATM   24  C   UNL     1       3.322  28.530  52.975  1.00  0.00     0.004 A 
HETATM   25  C   UNL     1       4.303  27.610  53.349  1.00  0.00     0.014 A 
BRANCH  22  26
HETATM   26  O   UNL     1       3.998  28.640  49.333  1.00  0.00    -0.356 OA
HETATM   27  C   UNL     1       4.916  29.623  48.870  1.00  0.00     0.210 C 
ENDBRANCH  22  26
ENDBRANCH   1  20
BRANCH   3  28
HETATM   28  C   UNL     1       7.446  22.811  52.683  1.00  0.00     0.189 C 
BRANCH  28  29
HETATM   29  C   UNL     1       7.811  22.071  53.946  1.00  0.00    -0.038 A 
HETATM   30  C   UNL     1       7.554  22.634  55.205  1.00  0.00     0.009 A 
HETATM   31  C   UNL     1       7.868  21.933  56.371  1.00  0.00     0.001 A 
HETATM   32  C   UNL     1       8.439  20.664  56.293  1.00  0.00     0.000 A 
HETATM   33  C   UNL     1       8.699  20.094  55.049  1.00  0.00     0.001 A 
HETATM   34  C   UNL     1       8.385  20.791  53.882  1.00  0.00     0.009 A 
ENDBRANCH  28  29
ENDBRANCH   3  28
TORSDOF 7
ENDMDL
