MODEL 1
REMARK VINA RESULT:     -11.2      0.000      0.000
REMARK  6 active torsions:
REMARK  status: ('A' for Active; 'I' for Inactive)
REMARK    1  A    between atoms: C_2  and  N_3 
REMARK    2  A    between atoms: C_2  and  C_32 
REMARK       I    between atoms: N_3  and  C_4 
REMARK    3  A    between atoms: C_4  and  C_5 
REMARK    4  A    between atoms: C_6  and  N_7 
REMARK       I    between atoms: N_7  and  C_8 
REMARK    5  A    between atoms: C_8  and  C_9 
REMARK    6  A    between atoms: C_9  and  N_10 
ROOT
HETATM    1  N   UNL     1       5.139  27.697  55.078  1.00  0.00    -0.325 N 
HETATM    2  C   UNL     1       5.365  27.884  53.718  1.00  0.00     0.240 C 
HETATM    3  O   UNL     1       6.431  28.279  53.246  1.00  0.00    -0.271 OA
HETATM    4  H   UNL     1       4.165  27.817  55.361  1.00  0.00     0.169 HD
ENDROOT
BRANCH   1   5
HETATM    5  C   UNL     1       6.115  28.059  56.034  1.00  0.00     0.050 A 
HETATM    6  C   UNL     1       6.861  27.138  56.793  1.00  0.00     0.058 A 
HETATM    7  C   UNL     1       7.783  27.611  57.744  1.00  0.00     0.019 A 
HETATM    8  C   UNL     1       7.973  28.980  57.934  1.00  0.00     0.001 A 
HETATM    9  C   UNL     1       7.212  29.889  57.205  1.00  0.00     0.002 A 
HETATM   10  C   UNL     1       6.276  29.432  56.275  1.00  0.00     0.030 A 
BRANCH   6  11
HETATM   11  C   UNL     1       6.601  25.676  56.842  1.00  0.00     0.254 C 
HETATM   12  N   UNL     1       7.636  24.840  56.512  1.00  0.00    -0.349 N 
HETATM   13  H   UNL     1       8.557  25.252  56.376  1.00  0.00     0.163 HD
HETATM   14  O   UNL     1       5.504  25.275  57.222  1.00  0.00    -0.268 OA
BRANCH  12  15
HETATM   15  C   UNL     1       7.525  23.396  56.622  1.00  0.00     0.114 C 
HETATM   16  C   UNL     1       8.542  22.848  57.624  1.00  0.00     0.037 C 
BRANCH  15  17
HETATM   17  C   UNL     1       7.664  22.732  55.263  1.00  0.00    -0.036 A 
HETATM   18  C   UNL     1       7.750  21.332  55.178  1.00  0.00     0.009 A 
HETATM   19  C   UNL     1       7.906  20.699  53.943  1.00  0.00     0.001 A 
HETATM   20  C   UNL     1       7.973  21.454  52.775  1.00  0.00     0.000 A 
HETATM   21  C   UNL     1       7.884  22.844  52.841  1.00  0.00     0.001 A 
HETATM   22  C   UNL     1       7.736  23.478  54.076  1.00  0.00     0.009 A 
ENDBRANCH  15  17
ENDBRANCH  12  15
ENDBRANCH   6  11
ENDBRANCH   1   5
BRANCH   2  23
HETATM   23  C   UNL     1       4.181  27.502  52.834  1.00  0.00     0.240 C 
BRANCH  23  24
HETATM   24  N   UNL     1       4.570  27.314  51.452  1.00  0.00    -0.259 N 
HETATM   25  C   UNL     1       5.381  26.327  50.991  1.00  0.00     0.326 C 
HETATM   26  O   UNL     1       5.930  25.449  51.633  1.00  0.00    -0.247 OA
HETATM   27  N   UNL     1       5.483  26.454  49.622  1.00  0.00    -0.324 N 
HETATM   28  C   UNL     1       4.525  27.408  49.087  1.00  0.00     0.120 C 
HETATM   29  H   UNL     1       5.951  25.729  49.089  1.00  0.00     0.165 HD
HETATM   30  C   UNL     1       3.302  26.672  48.522  1.00  0.00     0.080 C 
HETATM   31  C   UNL     1       5.152  28.336  48.057  1.00  0.00     0.046 C 
HETATM   32  C   UNL     1       4.149  28.094  50.414  1.00  0.00     0.257 C 
HETATM   33  C   UNL     1       2.358  27.567  47.762  1.00  0.00    -0.049 A 
HETATM   34  C   UNL     1       2.772  28.810  47.257  1.00  0.00    -0.052 A 
HETATM   35  C   UNL     1       1.044  27.128  47.532  1.00  0.00     0.007 A 
HETATM   36  C   UNL     1       4.155  29.358  47.507  1.00  0.00     0.042 C 
HETATM   37  C   UNL     1       1.850  29.606  46.558  1.00  0.00     0.007 A 
HETATM   38  C   UNL     1       0.542  29.167  46.349  1.00  0.00     0.001 A 
HETATM   39  C   UNL     1       0.140  27.926  46.835  1.00  0.00     0.001 A 
HETATM   40  O   UNL     1       3.549  29.153  50.550  1.00  0.00    -0.270 OA
ENDBRANCH  23  24
ENDBRANCH   2  23
TORSDOF 6
ENDMDL
MODEL 2
REMARK VINA RESULT:     -10.7      6.253     11.040
REMARK  6 active torsions:
REMARK  status: ('A' for Active; 'I' for Inactive)
REMARK    1  A    between atoms: C_2  and  N_3 
REMARK    2  A    between atoms: C_2  and  C_32 
REMARK       I    between atoms: N_3  and  C_4 
REMARK    3  A    between atoms: C_4  and  C_5 
REMARK    4  A    between atoms: C_6  and  N_7 
REMARK       I    between atoms: N_7  and  C_8 
REMARK    5  A    between atoms: C_8  and  C_9 
REMARK    6  A    between atoms: C_9  and  N_10 
ROOT
HETATM    1  N   UNL     1       7.233  30.532  59.144  1.00  0.00    -0.325 N 
HETATM    2  C   UNL     1       6.443  31.675  59.113  1.00  0.00     0.240 C 
HETATM    3  O   UNL     1       6.564  32.572  58.278  1.00  0.00    -0.271 OA
HETATM    4  H   UNL     1       7.350  30.128  60.076  1.00  0.00     0.169 HD
ENDROOT
BRANCH   1   5
HETATM    5  C   UNL     1       8.322  30.375  58.257  1.00  0.00     0.050 A 
HETATM    6  C   UNL     1       8.308  29.535  57.126  1.00  0.00     0.058 A 
HETATM    7  C   UNL     1       9.463  29.429  56.331  1.00  0.00     0.019 A 
HETATM    8  C   UNL     1      10.614  30.152  56.643  1.00  0.00     0.001 A 
HETATM    9  C   UNL     1      10.636  30.957  57.778  1.00  0.00     0.002 A 
HETATM   10  C   UNL     1       9.504  31.053  58.591  1.00  0.00     0.030 A 
BRANCH   6  11
HETATM   11  C   UNL     1       7.235  28.558  56.812  1.00  0.00     0.254 C 
HETATM   12  N   UNL     1       7.611  27.373  56.232  1.00  0.00    -0.349 N 
HETATM   13  H   UNL     1       8.606  27.170  56.165  1.00  0.00     0.163 HD
HETATM   14  O   UNL     1       6.077  28.819  57.125  1.00  0.00    -0.268 OA
BRANCH  12  15
HETATM   15  C   UNL     1       6.659  26.307  55.974  1.00  0.00     0.114 C 
HETATM   16  C   UNL     1       6.436  25.464  57.230  1.00  0.00     0.037 C 
BRANCH  15  17
HETATM   17  C   UNL     1       7.101  25.453  54.798  1.00  0.00    -0.036 A 
HETATM   18  C   UNL     1       7.187  24.058  54.943  1.00  0.00     0.009 A 
HETATM   19  C   UNL     1       7.616  23.254  53.885  1.00  0.00     0.001 A 
HETATM   20  C   UNL     1       7.960  23.831  52.665  1.00  0.00     0.000 A 
HETATM   21  C   UNL     1       7.875  25.213  52.503  1.00  0.00     0.001 A 
HETATM   22  C   UNL     1       7.453  26.018  53.562  1.00  0.00     0.009 A 
ENDBRANCH  15  17
ENDBRANCH  12  15
ENDBRANCH   6  11
ENDBRANCH   1   5
BRANCH   2  23
HETATM   23  C   UNL     1       5.356  31.708  60.183  1.00  0.00     0.240 C 
BRANCH  23  24
HETATM   24  N   UNL     1       4.750  33.018  60.307  1.00  0.00    -0.259 N 
HETATM   25  C   UNL     1       3.724  33.483  59.549  1.00  0.00     0.326 C 
HETATM   26  O   UNL     1       3.146  32.913  58.641  1.00  0.00    -0.247 OA
HETATM   27  N   UNL     1       3.400  34.749  59.989  1.00  0.00    -0.324 N 
HETATM   28  C   UNL     1       4.057  35.079  61.244  1.00  0.00     0.120 C 
HETATM   29  H   UNL     1       2.573  35.207  59.621  1.00  0.00     0.165 HD
HETATM   30  C   UNL     1       3.095  34.862  62.420  1.00  0.00     0.080 C 
HETATM   31  C   UNL     1       4.635  36.486  61.238  1.00  0.00     0.046 C 
HETATM   32  C   UNL     1       5.115  33.959  61.226  1.00  0.00     0.257 C 
HETATM   33  C   UNL     1       3.624  35.375  63.734  1.00  0.00    -0.049 A 
HETATM   34  C   UNL     1       4.657  36.326  63.788  1.00  0.00    -0.052 A 
HETATM   35  C   UNL     1       3.046  34.911  64.926  1.00  0.00     0.007 A 
HETATM   36  C   UNL     1       5.348  36.831  62.546  1.00  0.00     0.042 C 
HETATM   37  C   UNL     1       5.113  36.769  65.040  1.00  0.00     0.007 A 
HETATM   38  C   UNL     1       4.543  36.289  66.218  1.00  0.00     0.001 A 
HETATM   39  C   UNL     1       3.507  35.361  66.162  1.00  0.00     0.001 A 
HETATM   40  O   UNL     1       6.116  33.882  61.927  1.00  0.00    -0.270 OA
ENDBRANCH  23  24
ENDBRANCH   2  23
TORSDOF 6
ENDMDL
MODEL 3
REMARK VINA RESULT:     -10.7      1.339      1.921
REMARK  6 active torsions:
REMARK  status: ('A' for Active; 'I' for Inactive)
REMARK    1  A    between atoms: C_2  and  N_3 
REMARK    2  A    between atoms: C_2  and  C_32 
REMARK       I    between atoms: N_3  and  C_4 
REMARK    3  A    between atoms: C_4  and  C_5 
REMARK    4  A    between atoms: C_6  and  N_7 
REMARK       I    between atoms: N_7  and  C_8 
REMARK    5  A    between atoms: C_8  and  C_9 
REMARK    6  A    between atoms: C_9  and  N_10 
ROOT
HETATM    1  N   UNL     1       4.803  27.388  54.376  1.00  0.00    -0.325 N 
HETATM    2  C   UNL     1       4.668  28.237  53.283  1.00  0.00     0.240 C 
HETATM    3  O   UNL     1       5.399  29.204  53.070  1.00  0.00    -0.271 OA
HETATM    4  H   UNL     1       3.930  26.951  54.677  1.00  0.00     0.169 HD
ENDROOT
BRANCH   1   5
HETATM    5  C   UNL     1       5.749  27.653  55.392  1.00  0.00     0.050 A 
HETATM    6  C   UNL     1       7.072  27.171  55.388  1.00  0.00     0.058 A 
HETATM    7  C   UNL     1       7.919  27.469  56.470  1.00  0.00     0.019 A 
HETATM    8  C   UNL     1       7.466  28.244  57.539  1.00  0.00     0.001 A 
HETATM    9  C   UNL     1       6.149  28.693  57.556  1.00  0.00     0.002 A 
HETATM   10  C   UNL     1       5.290  28.383  56.499  1.00  0.00     0.030 A 
BRANCH   6  11
HETATM   11  C   UNL     1       7.604  26.168  54.430  1.00  0.00     0.254 C 
HETATM   12  N   UNL     1       7.588  24.854  54.819  1.00  0.00    -0.349 N 
HETATM   13  H   UNL     1       7.101  24.617  55.682  1.00  0.00     0.163 HD
HETATM   14  O   UNL     1       7.982  26.541  53.323  1.00  0.00    -0.268 OA
BRANCH  12  15
HETATM   15  C   UNL     1       7.990  23.782  53.926  1.00  0.00     0.114 C 
HETATM   16  C   UNL     1       6.954  23.582  52.819  1.00  0.00     0.037 C 
BRANCH  15  17
HETATM   17  C   UNL     1       8.244  22.496  54.694  1.00  0.00    -0.036 A 
HETATM   18  C   UNL     1       8.548  21.316  53.995  1.00  0.00     0.009 A 
HETATM   19  C   UNL     1       8.758  20.115  54.677  1.00  0.00     0.001 A 
HETATM   20  C   UNL     1       8.674  20.078  56.066  1.00  0.00     0.000 A 
HETATM   21  C   UNL     1       8.378  21.240  56.775  1.00  0.00     0.001 A 
HETATM   22  C   UNL     1       8.160  22.439  56.095  1.00  0.00     0.009 A 
ENDBRANCH  15  17
ENDBRANCH  12  15
ENDBRANCH   6  11
ENDBRANCH   1   5
BRANCH   2  23
HETATM   23  C   UNL     1       3.555  27.837  52.320  1.00  0.00     0.240 C 
BRANCH  23  24
HETATM   24  N   UNL     1       4.006  27.811  50.943  1.00  0.00    -0.259 N 
HETATM   25  C   UNL     1       4.976  26.998  50.451  1.00  0.00     0.326 C 
HETATM   26  O   UNL     1       5.640  26.175  51.053  1.00  0.00    -0.247 OA
HETATM   27  N   UNL     1       5.094  27.237  49.097  1.00  0.00    -0.324 N 
HETATM   28  C   UNL     1       4.011  28.064  48.590  1.00  0.00     0.120 C 
HETATM   29  H   UNL     1       5.685  26.634  48.536  1.00  0.00     0.165 HD
HETATM   30  C   UNL     1       2.937  27.187  47.931  1.00  0.00     0.080 C 
HETATM   31  C   UNL     1       4.510  29.150  47.648  1.00  0.00     0.046 C 
HETATM   32  C   UNL     1       3.495  28.587  49.944  1.00  0.00     0.257 C 
HETATM   33  C   UNL     1       1.883  27.975  47.197  1.00  0.00    -0.049 A 
HETATM   34  C   UNL     1       2.108  29.301  46.790  1.00  0.00    -0.052 A 
HETATM   35  C   UNL     1       0.663  27.353  46.889  1.00  0.00     0.007 A 
HETATM   36  C   UNL     1       3.379  30.039  47.129  1.00  0.00     0.042 C 
HETATM   37  C   UNL     1       1.090  29.989  46.111  1.00  0.00     0.007 A 
HETATM   38  C   UNL     1      -0.124  29.366  45.824  1.00  0.00     0.001 A 
HETATM   39  C   UNL     1      -0.337  28.047  46.211  1.00  0.00     0.001 A 
HETATM   40  O   UNL     1       2.731  29.526  50.127  1.00  0.00    -0.270 OA
ENDBRANCH  23  24
ENDBRANCH   2  23
TORSDOF 6
ENDMDL
MODEL 4
REMARK VINA RESULT:     -10.6      5.158     10.118
REMARK  6 active torsions:
REMARK  status: ('A' for Active; 'I' for Inactive)
REMARK    1  A    between atoms: C_2  and  N_3 
REMARK    2  A    between atoms: C_2  and  C_32 
REMARK       I    between atoms: N_3  and  C_4 
REMARK    3  A    between atoms: C_4  and  C_5 
REMARK    4  A    between atoms: C_6  and  N_7 
REMARK       I    between atoms: N_7  and  C_8 
REMARK    5  A    between atoms: C_8  and  C_9 
REMARK    6  A    between atoms: C_9  and  N_10 
ROOT
HETATM    1  N   UNL     1       7.013  31.268  59.013  1.00  0.00    -0.325 N 
HETATM    2  C   UNL     1       7.548  30.114  58.452  1.00  0.00     0.240 C 
HETATM    3  O   UNL     1       8.244  29.309  59.071  1.00  0.00    -0.271 OA
HETATM    4  H   UNL     1       6.869  32.030  58.347  1.00  0.00     0.169 HD
ENDROOT
BRANCH   1   5
HETATM    5  C   UNL     1       7.330  31.650  60.336  1.00  0.00     0.050 A 
HETATM    6  C   UNL     1       6.412  32.221  61.238  1.00  0.00     0.058 A 
HETATM    7  C   UNL     1       6.846  32.596  62.522  1.00  0.00     0.019 A 
HETATM    8  C   UNL     1       8.170  32.399  62.913  1.00  0.00     0.001 A 
HETATM    9  C   UNL     1       9.084  31.864  62.010  1.00  0.00     0.002 A 
HETATM   10  C   UNL     1       8.671  31.510  60.723  1.00  0.00     0.030 A 
BRANCH   6  11
HETATM   11  C   UNL     1       5.045  32.679  60.877  1.00  0.00     0.254 C 
HETATM   12  N   UNL     1       4.937  33.853  60.178  1.00  0.00    -0.349 N 
HETATM   13  H   UNL     1       5.793  34.283  59.832  1.00  0.00     0.163 HD
HETATM   14  O   UNL     1       4.082  31.974  61.167  1.00  0.00    -0.268 OA
BRANCH  12  15
HETATM   15  C   UNL     1       3.661  34.342  59.687  1.00  0.00     0.114 C 
HETATM   16  C   UNL     1       3.542  34.130  58.178  1.00  0.00     0.037 C 
BRANCH  15  17
HETATM   17  C   UNL     1       3.451  35.798  60.066  1.00  0.00    -0.036 A 
HETATM   18  C   UNL     1       4.103  36.326  61.194  1.00  0.00     0.009 A 
HETATM   19  C   UNL     1       3.904  37.653  61.578  1.00  0.00     0.001 A 
HETATM   20  C   UNL     1       3.056  38.474  60.840  1.00  0.00     0.000 A 
HETATM   21  C   UNL     1       2.405  37.969  59.717  1.00  0.00     0.001 A 
HETATM   22  C   UNL     1       2.597  36.640  59.335  1.00  0.00     0.009 A 
ENDBRANCH  15  17
ENDBRANCH  12  15
ENDBRANCH   6  11
ENDBRANCH   1   5
BRANCH   2  23
HETATM   23  C   UNL     1       7.154  29.890  56.996  1.00  0.00     0.240 C 
BRANCH  23  24
HETATM   24  N   UNL     1       6.310  28.725  56.831  1.00  0.00    -0.259 N 
HETATM   25  C   UNL     1       4.955  28.718  56.916  1.00  0.00     0.326 C 
HETATM   26  O   UNL     1       4.215  29.656  57.152  1.00  0.00    -0.247 OA
HETATM   27  N   UNL     1       4.511  27.437  56.661  1.00  0.00    -0.324 N 
HETATM   28  C   UNL     1       5.570  26.582  56.148  1.00  0.00     0.120 C 
HETATM   29  H   UNL     1       3.517  27.267  56.559  1.00  0.00     0.165 HD
HETATM   30  C   UNL     1       5.478  26.484  54.619  1.00  0.00     0.080 C 
HETATM   31  C   UNL     1       5.569  25.210  56.804  1.00  0.00     0.046 C 
HETATM   32  C   UNL     1       6.765  27.471  56.540  1.00  0.00     0.257 C 
HETATM   33  C   UNL     1       6.405  25.455  54.025  1.00  0.00    -0.049 A 
HETATM   34  C   UNL     1       6.944  24.417  54.803  1.00  0.00    -0.052 A 
HETATM   35  C   UNL     1       6.708  25.525  52.656  1.00  0.00     0.007 A 
HETATM   36  C   UNL     1       6.694  24.313  56.286  1.00  0.00     0.042 C 
HETATM   37  C   UNL     1       7.805  23.487  54.198  1.00  0.00     0.007 A 
HETATM   38  C   UNL     1       8.111  23.575  52.841  1.00  0.00     0.001 A 
HETATM   39  C   UNL     1       7.561  24.593  52.068  1.00  0.00     0.001 A 
HETATM   40  O   UNL     1       7.945  27.145  56.571  1.00  0.00    -0.270 OA
ENDBRANCH  23  24
ENDBRANCH   2  23
TORSDOF 6
ENDMDL
MODEL 5
REMARK VINA RESULT:     -10.5      2.451      9.361
REMARK  6 active torsions:
REMARK  status: ('A' for Active; 'I' for Inactive)
REMARK    1  A    between atoms: C_2  and  N_3 
REMARK    2  A    between atoms: C_2  and  C_32 
REMARK       I    between atoms: N_3  and  C_4 
REMARK    3  A    between atoms: C_4  and  C_5 
REMARK    4  A    between atoms: C_6  and  N_7 
REMARK       I    between atoms: N_7  and  C_8 
REMARK    5  A    between atoms: C_8  and  C_9 
REMARK    6  A    between atoms: C_9  and  N_10 
ROOT
HETATM    1  N   UNL     1       6.656  26.148  55.259  1.00  0.00    -0.325 N 
HETATM    2  C   UNL     1       5.743  25.859  56.268  1.00  0.00     0.240 C 
HETATM    3  O   UNL     1       5.350  24.723  56.534  1.00  0.00    -0.271 OA
HETATM    4  H   UNL     1       6.551  27.080  54.854  1.00  0.00     0.169 HD
ENDROOT
BRANCH   1   5
HETATM    5  C   UNL     1       7.121  25.139  54.387  1.00  0.00     0.050 A 
HETATM    6  C   UNL     1       6.725  25.010  53.041  1.00  0.00     0.058 A 
HETATM    7  C   UNL     1       7.226  23.944  52.273  1.00  0.00     0.019 A 
HETATM    8  C   UNL     1       8.116  23.023  52.825  1.00  0.00     0.001 A 
HETATM    9  C   UNL     1       8.482  23.133  54.163  1.00  0.00     0.002 A 
HETATM   10  C   UNL     1       7.973  24.173  54.944  1.00  0.00     0.030 A 
BRANCH   6  11
HETATM   11  C   UNL     1       5.630  25.785  52.404  1.00  0.00     0.254 C 
HETATM   12  N   UNL     1       5.855  26.275  51.143  1.00  0.00    -0.349 N 
HETATM   13  H   UNL     1       6.701  25.978  50.660  1.00  0.00     0.163 HD
HETATM   14  O   UNL     1       4.562  25.911  52.997  1.00  0.00    -0.268 OA
BRANCH  12  15
HETATM   15  C   UNL     1       4.822  26.959  50.387  1.00  0.00     0.114 C 
HETATM   16  C   UNL     1       4.746  26.419  48.959  1.00  0.00     0.037 C 
BRANCH  15  17
HETATM   17  C   UNL     1       5.034  28.463  50.406  1.00  0.00    -0.036 A 
HETATM   18  C   UNL     1       4.564  29.219  51.493  1.00  0.00     0.009 A 
HETATM   19  C   UNL     1       4.723  30.606  51.521  1.00  0.00     0.001 A 
HETATM   20  C   UNL     1       5.357  31.257  50.467  1.00  0.00     0.000 A 
HETATM   21  C   UNL     1       5.834  30.522  49.383  1.00  0.00     0.001 A 
HETATM   22  C   UNL     1       5.669  29.136  49.350  1.00  0.00     0.009 A 
ENDBRANCH  15  17
ENDBRANCH  12  15
ENDBRANCH   6  11
ENDBRANCH   1   5
BRANCH   2  23
HETATM   23  C   UNL     1       5.299  27.077  57.071  1.00  0.00     0.240 C 
BRANCH  23  24
HETATM   24  N   UNL     1       6.126  28.237  56.808  1.00  0.00    -0.259 N 
HETATM   25  C   UNL     1       5.980  29.083  55.755  1.00  0.00     0.326 C 
HETATM   26  O   UNL     1       5.163  29.022  54.854  1.00  0.00    -0.247 OA
HETATM   27  N   UNL     1       6.924  30.082  55.869  1.00  0.00    -0.324 N 
HETATM   28  C   UNL     1       7.586  30.066  57.164  1.00  0.00     0.120 C 
HETATM   29  H   UNL     1       6.887  30.875  55.238  1.00  0.00     0.165 HD
HETATM   30  C   UNL     1       6.955  31.111  58.095  1.00  0.00     0.080 C 
HETATM   31  C   UNL     1       9.091  30.252  57.042  1.00  0.00     0.046 C 
HETATM   32  C   UNL     1       7.155  28.654  57.602  1.00  0.00     0.257 C 
HETATM   33  C   UNL     1       7.713  31.307  59.382  1.00  0.00    -0.049 A 
HETATM   34  C   UNL     1       9.057  30.917  59.509  1.00  0.00    -0.052 A 
HETATM   35  C   UNL     1       7.065  31.920  60.465  1.00  0.00     0.007 A 
HETATM   36  C   UNL     1       9.796  30.214  58.399  1.00  0.00     0.042 C 
HETATM   37  C   UNL     1       9.715  31.121  60.732  1.00  0.00     0.007 A 
HETATM   38  C   UNL     1       9.056  31.717  61.807  1.00  0.00     0.001 A 
HETATM   39  C   UNL     1       7.731  32.119  61.673  1.00  0.00     0.001 A 
HETATM   40  O   UNL     1       7.620  27.996  58.524  1.00  0.00    -0.270 OA
ENDBRANCH  23  24
ENDBRANCH   2  23
TORSDOF 6
ENDMDL
MODEL 6
REMARK VINA RESULT:     -10.4      2.826      9.812
REMARK  6 active torsions:
REMARK  status: ('A' for Active; 'I' for Inactive)
REMARK    1  A    between atoms: C_2  and  N_3 
REMARK    2  A    between atoms: C_2  and  C_32 
REMARK       I    between atoms: N_3  and  C_4 
REMARK    3  A    between atoms: C_4  and  C_5 
REMARK    4  A    between atoms: C_6  and  N_7 
REMARK       I    between atoms: N_7  and  C_8 
REMARK    5  A    between atoms: C_8  and  C_9 
REMARK    6  A    between atoms: C_9  and  N_10 
ROOT
HETATM    1  N   UNL     1       5.861  28.415  51.813  1.00  0.00    -0.325 N 
HETATM    2  C   UNL     1       4.954  28.825  52.785  1.00  0.00     0.240 C 
HETATM    3  O   UNL     1       3.732  28.777  52.647  1.00  0.00    -0.271 OA
HETATM    4  H   UNL     1       6.759  28.902  51.847  1.00  0.00     0.169 HD
ENDROOT
BRANCH   1   5
HETATM    5  C   UNL     1       5.423  28.005  50.535  1.00  0.00     0.050 A 
HETATM    6  C   UNL     1       5.353  28.850  49.411  1.00  0.00     0.058 A 
HETATM    7  C   UNL     1       4.868  28.343  48.193  1.00  0.00     0.019 A 
HETATM    8  C   UNL     1       4.465  27.012  48.084  1.00  0.00     0.001 A 
HETATM    9  C   UNL     1       4.504  26.186  49.203  1.00  0.00     0.002 A 
HETATM   10  C   UNL     1       4.961  26.684  50.425  1.00  0.00     0.030 A 
BRANCH   6  11
HETATM   11  C   UNL     1       5.544  30.323  49.448  1.00  0.00     0.254 C 
HETATM   12  N   UNL     1       4.734  31.084  48.645  1.00  0.00    -0.349 N 
HETATM   13  H   UNL     1       3.965  30.619  48.165  1.00  0.00     0.163 HD
HETATM   14  O   UNL     1       6.368  30.801  50.223  1.00  0.00    -0.268 OA
BRANCH  12  15
HETATM   15  C   UNL     1       4.764  32.535  48.675  1.00  0.00     0.114 C 
HETATM   16  C   UNL     1       3.381  33.113  48.372  1.00  0.00     0.037 C 
BRANCH  15  17
HETATM   17  C   UNL     1       5.818  33.081  47.728  1.00  0.00    -0.036 A 
HETATM   18  C   UNL     1       5.685  32.877  46.345  1.00  0.00     0.009 A 
HETATM   19  C   UNL     1       6.655  33.345  45.456  1.00  0.00     0.001 A 
HETATM   20  C   UNL     1       7.769  34.028  45.936  1.00  0.00     0.000 A 
HETATM   21  C   UNL     1       7.915  34.243  47.305  1.00  0.00     0.001 A 
HETATM   22  C   UNL     1       6.950  33.769  48.195  1.00  0.00     0.009 A 
ENDBRANCH  15  17
ENDBRANCH  12  15
ENDBRANCH   6  11
ENDBRANCH   1   5
BRANCH   2  23
HETATM   23  C   UNL     1       5.605  29.297  54.081  1.00  0.00     0.240 C 
BRANCH  23  24
HETATM   24  N   UNL     1       5.564  28.283  55.115  1.00  0.00    -0.259 N 
HETATM   25  C   UNL     1       4.508  28.038  55.933  1.00  0.00     0.326 C 
HETATM   26  O   UNL     1       3.436  28.614  55.963  1.00  0.00    -0.247 OA
HETATM   27  N   UNL     1       4.832  26.977  56.752  1.00  0.00    -0.324 N 
HETATM   28  C   UNL     1       6.053  26.310  56.328  1.00  0.00     0.120 C 
HETATM   29  H   UNL     1       4.118  26.572  57.347  1.00  0.00     0.165 HD
HETATM   30  C   UNL     1       5.716  25.055  55.512  1.00  0.00     0.080 C 
HETATM   31  C   UNL     1       6.972  25.995  57.499  1.00  0.00     0.046 C 
HETATM   32  C   UNL     1       6.579  27.413  55.389  1.00  0.00     0.257 C 
HETATM   33  C   UNL     1       6.915  24.192  55.211  1.00  0.00    -0.049 A 
HETATM   34  C   UNL     1       8.098  24.292  55.962  1.00  0.00    -0.052 A 
HETATM   35  C   UNL     1       6.829  23.249  54.175  1.00  0.00     0.007 A 
HETATM   36  C   UNL     1       8.269  25.314  57.058  1.00  0.00     0.042 C 
HETATM   37  C   UNL     1       9.185  23.465  55.638  1.00  0.00     0.007 A 
HETATM   38  C   UNL     1       9.094  22.543  54.595  1.00  0.00     0.001 A 
HETATM   39  C   UNL     1       7.915  22.433  53.865  1.00  0.00     0.001 A 
HETATM   40  O   UNL     1       7.708  27.508  54.927  1.00  0.00    -0.270 OA
ENDBRANCH  23  24
ENDBRANCH   2  23
TORSDOF 6
ENDMDL
MODEL 7
REMARK VINA RESULT:     -10.2      2.086      5.111
REMARK  6 active torsions:
REMARK  status: ('A' for Active; 'I' for Inactive)
REMARK    1  A    between atoms: C_2  and  N_3 
REMARK    2  A    between atoms: C_2  and  C_32 
REMARK       I    between atoms: N_3  and  C_4 
REMARK    3  A    between atoms: C_4  and  C_5 
REMARK    4  A    between atoms: C_6  and  N_7 
REMARK       I    between atoms: N_7  and  C_8 
REMARK    5  A    between atoms: C_8  and  C_9 
REMARK    6  A    between atoms: C_9  and  N_10 
ROOT
HETATM    1  N   UNL     1       4.266  27.289  53.798  1.00  0.00    -0.325 N 
HETATM    2  C   UNL     1       4.813  28.566  53.732  1.00  0.00     0.240 C 
HETATM    3  O   UNL     1       6.020  28.792  53.654  1.00  0.00    -0.271 OA
HETATM    4  H   UNL     1       3.375  27.240  54.296  1.00  0.00     0.169 HD
ENDROOT
BRANCH   1   5
HETATM    5  C   UNL     1       5.092  26.146  53.886  1.00  0.00     0.050 A 
HETATM    6  C   UNL     1       5.730  25.718  55.066  1.00  0.00     0.058 A 
HETATM    7  C   UNL     1       6.559  24.583  55.030  1.00  0.00     0.019 A 
HETATM    8  C   UNL     1       6.748  23.873  53.844  1.00  0.00     0.001 A 
HETATM    9  C   UNL     1       6.142  24.316  52.672  1.00  0.00     0.002 A 
HETATM   10  C   UNL     1       5.335  25.456  52.688  1.00  0.00     0.030 A 
BRANCH   6  11
HETATM   11  C   UNL     1       5.786  26.499  56.328  1.00  0.00     0.254 C 
HETATM   12  N   UNL     1       6.684  27.533  56.390  1.00  0.00    -0.349 N 
HETATM   13  H   UNL     1       7.172  27.794  55.535  1.00  0.00     0.163 HD
HETATM   14  O   UNL     1       5.002  26.229  57.234  1.00  0.00    -0.268 OA
BRANCH  12  15
HETATM   15  C   UNL     1       6.754  28.424  57.535  1.00  0.00     0.114 C 
HETATM   16  C   UNL     1       5.623  29.452  57.492  1.00  0.00     0.037 C 
BRANCH  15  17
HETATM   17  C   UNL     1       8.115  29.093  57.625  1.00  0.00    -0.036 A 
HETATM   18  C   UNL     1       8.323  30.125  58.555  1.00  0.00     0.009 A 
HETATM   19  C   UNL     1       9.557  30.775  58.639  1.00  0.00     0.001 A 
HETATM   20  C   UNL     1      10.601  30.399  57.798  1.00  0.00     0.000 A 
HETATM   21  C   UNL     1      10.413  29.374  56.873  1.00  0.00     0.001 A 
HETATM   22  C   UNL     1       9.178  28.729  56.783  1.00  0.00     0.009 A 
ENDBRANCH  15  17
ENDBRANCH  12  15
ENDBRANCH   6  11
ENDBRANCH   1   5
BRANCH   2  23
HETATM   23  C   UNL     1       3.776  29.685  53.710  1.00  0.00     0.240 C 
BRANCH  23  24
HETATM   24  N   UNL     1       3.515  30.161  52.367  1.00  0.00    -0.259 N 
HETATM   25  C   UNL     1       3.950  31.341  51.854  1.00  0.00     0.326 C 
HETATM   26  O   UNL     1       4.607  32.202  52.411  1.00  0.00    -0.247 OA
HETATM   27  N   UNL     1       3.537  31.420  50.541  1.00  0.00    -0.324 N 
HETATM   28  C   UNL     1       3.010  30.155  50.054  1.00  0.00     0.120 C 
HETATM   29  H   UNL     1       3.875  32.178  49.958  1.00  0.00     0.165 HD
HETATM   30  C   UNL     1       4.082  29.407  49.250  1.00  0.00     0.080 C 
HETATM   31  C   UNL     1       1.727  30.336  49.256  1.00  0.00     0.046 C 
HETATM   32  C   UNL     1       2.815  29.470  51.420  1.00  0.00     0.257 C 
HETATM   33  C   UNL     1       3.558  28.188  48.536  1.00  0.00    -0.049 A 
HETATM   34  C   UNL     1       2.187  28.022  48.277  1.00  0.00    -0.052 A 
HETATM   35  C   UNL     1       4.469  27.215  48.096  1.00  0.00     0.007 A 
HETATM   36  C   UNL     1       1.154  29.007  48.761  1.00  0.00     0.042 C 
HETATM   37  C   UNL     1       1.753  26.865  47.609  1.00  0.00     0.007 A 
HETATM   38  C   UNL     1       2.667  25.897  47.191  1.00  0.00     0.001 A 
HETATM   39  C   UNL     1       4.026  26.073  47.432  1.00  0.00     0.001 A 
HETATM   40  O   UNL     1       2.166  28.458  51.650  1.00  0.00    -0.270 OA
ENDBRANCH  23  24
ENDBRANCH   2  23
TORSDOF 6
ENDMDL
MODEL 8
REMARK VINA RESULT:     -10.0      3.153      4.822
REMARK  6 active torsions:
REMARK  status: ('A' for Active; 'I' for Inactive)
REMARK    1  A    between atoms: C_2  and  N_3 
REMARK    2  A    between atoms: C_2  and  C_32 
REMARK       I    between atoms: N_3  and  C_4 
REMARK    3  A    between atoms: C_4  and  C_5 
REMARK    4  A    between atoms: C_6  and  N_7 
REMARK       I    between atoms: N_7  and  C_8 
REMARK    5  A    between atoms: C_8  and  C_9 
REMARK    6  A    between atoms: C_9  and  N_10 
ROOT
HETATM    1  N   UNL     1       5.247  28.665  52.683  1.00  0.00    -0.325 N 
HETATM    2  C   UNL     1       4.949  27.607  51.830  1.00  0.00     0.240 C 
HETATM    3  O   UNL     1       4.588  26.495  52.215  1.00  0.00    -0.271 OA
HETATM    4  H   UNL     1       5.931  29.325  52.308  1.00  0.00     0.169 HD
ENDROOT
BRANCH   1   5
HETATM    5  C   UNL     1       5.254  28.490  54.085  1.00  0.00     0.050 A 
HETATM    6  C   UNL     1       6.239  27.772  54.789  1.00  0.00     0.058 A 
HETATM    7  C   UNL     1       6.128  27.632  56.184  1.00  0.00     0.019 A 
HETATM    8  C   UNL     1       5.061  28.205  56.876  1.00  0.00     0.001 A 
HETATM    9  C   UNL     1       4.072  28.888  56.175  1.00  0.00     0.002 A 
HETATM   10  C   UNL     1       4.157  29.013  54.786  1.00  0.00     0.030 A 
BRANCH   6  11
HETATM   11  C   UNL     1       7.295  26.940  54.155  1.00  0.00     0.254 C 
HETATM   12  N   UNL     1       7.053  25.595  54.041  1.00  0.00    -0.349 N 
HETATM   13  H   UNL     1       6.122  25.256  54.275  1.00  0.00     0.163 HD
HETATM   14  O   UNL     1       8.303  27.485  53.717  1.00  0.00    -0.268 OA
BRANCH  12  15
HETATM   15  C   UNL     1       7.969  24.705  53.350  1.00  0.00     0.114 C 
HETATM   16  C   UNL     1       7.718  24.732  51.842  1.00  0.00     0.037 C 
BRANCH  15  17
HETATM   17  C   UNL     1       7.885  23.294  53.906  1.00  0.00    -0.036 A 
HETATM   18  C   UNL     1       7.730  23.099  55.289  1.00  0.00     0.009 A 
HETATM   19  C   UNL     1       7.678  21.811  55.828  1.00  0.00     0.001 A 
HETATM   20  C   UNL     1       7.775  20.701  54.993  1.00  0.00     0.000 A 
HETATM   21  C   UNL     1       7.925  20.877  53.619  1.00  0.00     0.001 A 
HETATM   22  C   UNL     1       7.984  22.163  53.079  1.00  0.00     0.009 A 
ENDBRANCH  15  17
ENDBRANCH  12  15
ENDBRANCH   6  11
ENDBRANCH   1   5
BRANCH   2  23
HETATM   23  C   UNL     1       5.053  27.956  50.349  1.00  0.00     0.240 C 
BRANCH  23  24
HETATM   24  N   UNL     1       4.421  29.222  50.039  1.00  0.00    -0.259 N 
HETATM   25  C   UNL     1       3.130  29.379  49.645  1.00  0.00     0.326 C 
HETATM   26  O   UNL     1       2.291  28.514  49.469  1.00  0.00    -0.247 OA
HETATM   27  N   UNL     1       2.888  30.727  49.485  1.00  0.00    -0.324 N 
HETATM   28  C   UNL     1       3.968  31.545  50.015  1.00  0.00     0.120 C 
HETATM   29  H   UNL     1       1.941  31.045  49.313  1.00  0.00     0.165 HD
HETATM   30  C   UNL     1       3.606  32.058  51.416  1.00  0.00     0.080 C 
HETATM   31  C   UNL     1       4.342  32.682  49.076  1.00  0.00     0.046 C 
HETATM   32  C   UNL     1       5.033  30.438  50.128  1.00  0.00     0.257 C 
HETATM   33  C   UNL     1       4.575  33.080  51.953  1.00  0.00    -0.049 A 
HETATM   34  C   UNL     1       5.433  33.795  51.100  1.00  0.00    -0.052 A 
HETATM   35  C   UNL     1       4.593  33.339  53.332  1.00  0.00     0.007 A 
HETATM   36  C   UNL     1       5.492  33.532  49.617  1.00  0.00     0.042 C 
HETATM   37  C   UNL     1       6.317  34.735  51.654  1.00  0.00     0.007 A 
HETATM   38  C   UNL     1       6.338  34.973  53.028  1.00  0.00     0.001 A 
HETATM   39  C   UNL     1       5.474  34.277  53.867  1.00  0.00     0.001 A 
HETATM   40  O   UNL     1       6.236  30.590  50.295  1.00  0.00    -0.270 OA
ENDBRANCH  23  24
ENDBRANCH   2  23
TORSDOF 6
ENDMDL
MODEL 9
REMARK VINA RESULT:     -10.0      4.537      9.487
REMARK  6 active torsions:
REMARK  status: ('A' for Active; 'I' for Inactive)
REMARK    1  A    between atoms: C_2  and  N_3 
REMARK    2  A    between atoms: C_2  and  C_32 
REMARK       I    between atoms: N_3  and  C_4 
REMARK    3  A    between atoms: C_4  and  C_5 
REMARK    4  A    between atoms: C_6  and  N_7 
REMARK       I    between atoms: N_7  and  C_8 
REMARK    5  A    between atoms: C_8  and  C_9 
REMARK    6  A    between atoms: C_9  and  N_10 
ROOT
HETATM    1  N   UNL     1       6.224  29.179  56.032  1.00  0.00    -0.325 N 
HETATM    2  C   UNL     1       5.462  28.018  56.113  1.00  0.00     0.240 C 
HETATM    3  O   UNL     1       5.065  27.528  57.171  1.00  0.00    -0.271 OA
HETATM    4  H   UNL     1       6.840  29.219  55.219  1.00  0.00     0.169 HD
ENDROOT
BRANCH   1   5
HETATM    5  C   UNL     1       6.689  29.827  57.199  1.00  0.00     0.050 A 
HETATM    6  C   UNL     1       6.124  31.002  57.731  1.00  0.00     0.058 A 
HETATM    7  C   UNL     1       6.690  31.581  58.880  1.00  0.00     0.019 A 
HETATM    8  C   UNL     1       7.796  31.001  59.502  1.00  0.00     0.001 A 
HETATM    9  C   UNL     1       8.373  29.858  58.956  1.00  0.00     0.002 A 
HETATM   10  C   UNL     1       7.835  29.286  57.801  1.00  0.00     0.030 A 
BRANCH   6  11
HETATM   11  C   UNL     1       5.095  31.829  57.051  1.00  0.00     0.254 C 
HETATM   12  N   UNL     1       5.035  33.158  57.381  1.00  0.00    -0.349 N 
HETATM   13  H   UNL     1       5.773  33.537  57.973  1.00  0.00     0.163 HD
HETATM   14  O   UNL     1       4.384  31.313  56.193  1.00  0.00    -0.268 OA
BRANCH  12  15
HETATM   15  C   UNL     1       4.138  34.080  56.707  1.00  0.00     0.114 C 
HETATM   16  C   UNL     1       4.913  34.998  55.761  1.00  0.00     0.037 C 
BRANCH  15  17
HETATM   17  C   UNL     1       3.315  34.873  57.707  1.00  0.00    -0.036 A 
HETATM   18  C   UNL     1       3.891  35.267  58.926  1.00  0.00     0.009 A 
HETATM   19  C   UNL     1       3.146  35.973  59.874  1.00  0.00     0.001 A 
HETATM   20  C   UNL     1       1.817  36.299  59.614  1.00  0.00     0.000 A 
HETATM   21  C   UNL     1       1.232  35.920  58.408  1.00  0.00     0.001 A 
HETATM   22  C   UNL     1       1.973  35.208  57.463  1.00  0.00     0.009 A 
ENDBRANCH  15  17
ENDBRANCH  12  15
ENDBRANCH   6  11
ENDBRANCH   1   5
BRANCH   2  23
HETATM   23  C   UNL     1       5.104  27.415  54.758  1.00  0.00     0.240 C 
BRANCH  23  24
HETATM   24  N   UNL     1       6.212  26.690  54.172  1.00  0.00    -0.259 N 
HETATM   25  C   UNL     1       7.338  27.255  53.664  1.00  0.00     0.326 C 
HETATM   26  O   UNL     1       7.616  28.438  53.593  1.00  0.00    -0.247 OA
HETATM   27  N   UNL     1       8.174  26.244  53.237  1.00  0.00    -0.324 N 
HETATM   28  C   UNL     1       7.722  24.935  53.680  1.00  0.00     0.120 C 
HETATM   29  H   UNL     1       9.117  26.471  52.940  1.00  0.00     0.165 HD
HETATM   30  C   UNL     1       8.500  24.501  54.930  1.00  0.00     0.080 C 
HETATM   31  C   UNL     1       7.803  23.894  52.573  1.00  0.00     0.046 C 
HETATM   32  C   UNL     1       6.287  25.331  54.074  1.00  0.00     0.257 C 
HETATM   33  C   UNL     1       8.243  23.071  55.332  1.00  0.00    -0.049 A 
HETATM   34  C   UNL     1       7.717  22.137  54.425  1.00  0.00    -0.052 A 
HETATM   35  C   UNL     1       8.568  22.665  56.636  1.00  0.00     0.007 A 
HETATM   36  C   UNL     1       7.308  22.520  53.025  1.00  0.00     0.042 C 
HETATM   37  C   UNL     1       7.496  20.818  54.854  1.00  0.00     0.007 A 
HETATM   38  C   UNL     1       7.807  20.429  56.157  1.00  0.00     0.001 A 
HETATM   39  C   UNL     1       8.345  21.352  57.048  1.00  0.00     0.001 A 
HETATM   40  O   UNL     1       5.350  24.575  54.296  1.00  0.00    -0.270 OA
ENDBRANCH  23  24
ENDBRANCH   2  23
TORSDOF 6
ENDMDL
MODEL 10
REMARK VINA RESULT:      -9.9      5.653      9.939
REMARK  6 active torsions:
REMARK  status: ('A' for Active; 'I' for Inactive)
REMARK    1  A    between atoms: C_2  and  N_3 
REMARK    2  A    between atoms: C_2  and  C_32 
REMARK       I    between atoms: N_3  and  C_4 
REMARK    3  A    between atoms: C_4  and  C_5 
REMARK    4  A    between atoms: C_6  and  N_7 
REMARK       I    between atoms: N_7  and  C_8 
REMARK    5  A    between atoms: C_8  and  C_9 
REMARK    6  A    between atoms: C_9  and  N_10 
ROOT
HETATM    1  N   UNL     1       4.609  28.296  57.092  1.00  0.00    -0.325 N 
HETATM    2  C   UNL     1       4.050  29.010  56.038  1.00  0.00     0.240 C 
HETATM    3  O   UNL     1       4.227  28.733  54.851  1.00  0.00    -0.271 OA
HETATM    4  H   UNL     1       4.769  28.850  57.935  1.00  0.00     0.169 HD
ENDROOT
BRANCH   1   5
HETATM    5  C   UNL     1       5.521  27.243  56.857  1.00  0.00     0.050 A 
HETATM    6  C   UNL     1       6.919  27.400  56.812  1.00  0.00     0.058 A 
HETATM    7  C   UNL     1       7.732  26.287  56.535  1.00  0.00     0.019 A 
HETATM    8  C   UNL     1       7.169  25.029  56.315  1.00  0.00     0.001 A 
HETATM    9  C   UNL     1       5.786  24.881  56.328  1.00  0.00     0.002 A 
HETATM   10  C   UNL     1       4.966  25.984  56.578  1.00  0.00     0.030 A 
BRANCH   6  11
HETATM   11  C   UNL     1       7.624  28.709  56.813  1.00  0.00     0.254 C 
HETATM   12  N   UNL     1       8.390  29.011  57.908  1.00  0.00    -0.349 N 
HETATM   13  H   UNL     1       8.542  28.280  58.601  1.00  0.00     0.163 HD
HETATM   14  O   UNL     1       7.537  29.435  55.826  1.00  0.00    -0.268 OA
BRANCH  12  15
HETATM   15  C   UNL     1       9.200  30.215  57.972  1.00  0.00     0.114 C 
HETATM   16  C   UNL     1      10.633  29.929  57.521  1.00  0.00     0.037 C 
BRANCH  15  17
HETATM   17  C   UNL     1       9.162  30.827  59.362  1.00  0.00    -0.036 A 
HETATM   18  C   UNL     1      10.041  31.874  59.686  1.00  0.00     0.009 A 
HETATM   19  C   UNL     1      10.044  32.435  60.965  1.00  0.00     0.001 A 
HETATM   20  C   UNL     1       9.166  31.962  61.936  1.00  0.00     0.000 A 
HETATM   21  C   UNL     1       8.284  30.927  61.630  1.00  0.00     0.001 A 
HETATM   22  C   UNL     1       8.285  30.360  60.354  1.00  0.00     0.009 A 
ENDBRANCH  15  17
ENDBRANCH  12  15
ENDBRANCH   6  11
ENDBRANCH   1   5
BRANCH   2  23
HETATM   23  C   UNL     1       3.141  30.154  56.475  1.00  0.00     0.240 C 
BRANCH  23  24
HETATM   24  N   UNL     1       3.887  31.258  57.043  1.00  0.00    -0.259 N 
HETATM   25  C   UNL     1       4.576  32.188  56.332  1.00  0.00     0.326 C 
HETATM   26  O   UNL     1       4.707  32.260  55.124  1.00  0.00    -0.247 OA
HETATM   27  N   UNL     1       5.117  33.096  57.218  1.00  0.00    -0.324 N 
HETATM   28  C   UNL     1       4.588  32.932  58.563  1.00  0.00     0.120 C 
HETATM   29  H   UNL     1       5.564  33.933  56.861  1.00  0.00     0.165 HD
HETATM   30  C   UNL     1       3.472  33.954  58.823  1.00  0.00     0.080 C 
HETATM   31  C   UNL     1       5.678  33.003  59.622  1.00  0.00     0.046 C 
HETATM   32  C   UNL     1       3.975  31.531  58.378  1.00  0.00     0.257 C 
HETATM   33  C   UNL     1       3.013  33.992  60.258  1.00  0.00    -0.049 A 
HETATM   34  C   UNL     1       3.811  33.486  61.297  1.00  0.00    -0.052 A 
HETATM   35  C   UNL     1       1.772  34.576  60.557  1.00  0.00     0.007 A 
HETATM   36  C   UNL     1       5.132  32.808  61.037  1.00  0.00     0.042 C 
HETATM   37  C   UNL     1       3.333  33.546  62.616  1.00  0.00     0.007 A 
HETATM   38  C   UNL     1       2.091  34.114  62.901  1.00  0.00     0.001 A 
HETATM   39  C   UNL     1       1.311  34.631  61.871  1.00  0.00     0.001 A 
HETATM   40  O   UNL     1       3.595  30.771  59.260  1.00  0.00    -0.270 OA
ENDBRANCH  23  24
ENDBRANCH   2  23
TORSDOF 6
ENDMDL
