MODEL 1
REMARK VINA RESULT:      -8.3      0.000      0.000
REMARK  5 active torsions:
REMARK  status: ('A' for Active; 'I' for Inactive)
REMARK    1  A    between atoms: C_2  and  C_3 
REMARK    2  A    between atoms: C_3  and  O_4 
REMARK    3  A    between atoms: C_3  and  C_5 
REMARK    4  A    between atoms: N_8  and  C_10 
REMARK    5  A    between atoms: C_10  and  C_11 
ROOT
HETATM    1  C   UNL     1       6.215  25.471  56.593  1.00  0.00     0.022 C 
HETATM    2  C   UNL     1       5.160  26.459  57.117  1.00  0.00     0.035 C 
HETATM    3  C   UNL     1       5.516  27.920  56.882  1.00  0.00     0.235 C 
HETATM    4  N   UNL     1       6.868  28.223  57.468  1.00  0.00    -0.066 N 
HETATM    5  H   UNL     1       6.765  28.146  58.495  1.00  0.00     0.280 HD
HETATM    6  C   UNL     1       7.961  27.314  57.002  1.00  0.00     0.235 C 
HETATM    7  C   UNL     1       7.575  25.854  57.204  1.00  0.00     0.035 C 
ENDROOT
BRANCH   1   8
HETATM    8  C   UNL     1       6.294  25.347  55.049  1.00  0.00     0.155 C 
BRANCH   8   9
HETATM    9  C   UNL     1       6.931  24.057  54.568  1.00  0.00    -0.029 A 
HETATM   10  C   UNL     1       7.208  22.994  55.445  1.00  0.00     0.011 A 
HETATM   11  C   UNL     1       7.800  21.818  54.977  1.00  0.00     0.024 A 
HETATM   12  C   UNL     1       8.117  21.691  53.627  1.00  0.00     0.034 A 
HETATM   13  C   UNL     1       7.849  22.733  52.743  1.00  0.00     0.024 A 
HETATM   14 CL   UNL     1       8.843  20.243  53.052  1.00  0.00    -0.084 Cl
HETATM   15  C   UNL     1       7.262  23.911  53.212  1.00  0.00     0.011 A 
ENDBRANCH   8   9
BRANCH   8  16
HETATM   16  O   UNL     1       5.007  25.511  54.458  1.00  0.00    -0.391 OA
HETATM   17  H   UNL     1       4.565  26.221  54.965  1.00  0.00     0.210 HD
ENDBRANCH   8  16
ENDBRANCH   1   8
BRANCH   4  18
HETATM   18  C   UNL     1       7.238  29.688  57.288  1.00  0.00     0.295 C 
BRANCH  18  19
HETATM   19  C   UNL     1       7.506  30.351  58.602  1.00  0.00     0.081 A 
HETATM   20  N   UNL     1       8.387  29.798  59.453  1.00  0.00    -0.178 NA
HETATM   21  N   UNL     1       8.387  30.643  60.508  1.00  0.00    -0.289 N 
HETATM   22  H   UNL     1       9.001  30.450  61.295  1.00  0.00     0.188 HD
HETATM   23  C   UNL     1       7.516  31.682  60.359  1.00  0.00     0.111 A 
HETATM   24  C   UNL     1       6.928  31.526  59.129  1.00  0.00     0.049 A 
ENDBRANCH  18  19
ENDBRANCH   4  18
TORSDOF 5
ENDMDL
MODEL 2
REMARK VINA RESULT:      -7.9      2.402      3.340
REMARK  5 active torsions:
REMARK  status: ('A' for Active; 'I' for Inactive)
REMARK    1  A    between atoms: C_2  and  C_3 
REMARK    2  A    between atoms: C_3  and  O_4 
REMARK    3  A    between atoms: C_3  and  C_5 
REMARK    4  A    between atoms: N_8  and  C_10 
REMARK    5  A    between atoms: C_10  and  C_11 
ROOT
HETATM    1  C   UNL     1       6.138  25.435  52.718  1.00  0.00     0.022 C 
HETATM    2  C   UNL     1       5.852  26.799  52.067  1.00  0.00     0.035 C 
HETATM    3  C   UNL     1       6.110  27.984  52.985  1.00  0.00     0.235 C 
HETATM    4  N   UNL     1       5.328  27.829  54.261  1.00  0.00    -0.066 N 
HETATM    5  H   UNL     1       4.330  27.916  54.004  1.00  0.00     0.280 HD
HETATM    6  C   UNL     1       5.556  26.531  54.970  1.00  0.00     0.235 C 
HETATM    7  C   UNL     1       5.336  25.353  54.029  1.00  0.00     0.035 C 
ENDROOT
BRANCH   1   8
HETATM    8  C   UNL     1       7.638  25.112  52.942  1.00  0.00     0.155 C 
BRANCH   8   9
HETATM    9  C   UNL     1       7.883  23.795  53.653  1.00  0.00    -0.029 A 
HETATM   10  C   UNL     1       7.674  22.558  53.018  1.00  0.00     0.011 A 
HETATM   11  C   UNL     1       7.903  21.359  53.699  1.00  0.00     0.024 A 
HETATM   12  C   UNL     1       8.347  21.384  55.018  1.00  0.00     0.034 A 
HETATM   13  C   UNL     1       8.561  22.600  55.663  1.00  0.00     0.024 A 
HETATM   14 CL   UNL     1       8.632  19.908  55.852  1.00  0.00    -0.084 Cl
HETATM   15  C   UNL     1       8.327  23.799  54.985  1.00  0.00     0.011 A 
ENDBRANCH   8   9
BRANCH   8  16
HETATM   16  O   UNL     1       8.357  25.149  51.712  1.00  0.00    -0.391 OA
HETATM   17  H   UNL     1       7.948  24.470  51.139  1.00  0.00     0.210 HD
ENDBRANCH   8  16
ENDBRANCH   1   8
BRANCH   4  18
HETATM   18  C   UNL     1       5.531  29.019  55.187  1.00  0.00     0.295 C 
BRANCH  18  19
HETATM   19  C   UNL     1       6.683  28.801  56.117  1.00  0.00     0.081 A 
HETATM   20  N   UNL     1       6.449  28.644  57.431  1.00  0.00    -0.178 NA
HETATM   21  N   UNL     1       7.682  28.466  57.957  1.00  0.00    -0.289 N 
HETATM   22  H   UNL     1       7.773  28.304  58.956  1.00  0.00     0.188 HD
HETATM   23  C   UNL     1       8.674  28.538  57.024  1.00  0.00     0.111 A 
HETATM   24  C   UNL     1       8.060  28.751  55.815  1.00  0.00     0.049 A 
ENDBRANCH  18  19
ENDBRANCH   4  18
TORSDOF 5
ENDMDL
MODEL 3
REMARK VINA RESULT:      -7.9      4.877      7.368
REMARK  5 active torsions:
REMARK  status: ('A' for Active; 'I' for Inactive)
REMARK    1  A    between atoms: C_2  and  C_3 
REMARK    2  A    between atoms: C_3  and  O_4 
REMARK    3  A    between atoms: C_3  and  C_5 
REMARK    4  A    between atoms: N_8  and  C_10 
REMARK    5  A    between atoms: C_10  and  C_11 
ROOT
HETATM    1  C   UNL     1       5.389  25.821  53.939  1.00  0.00     0.022 C 
HETATM    2  C   UNL     1       4.724  24.953  52.858  1.00  0.00     0.035 C 
HETATM    3  C   UNL     1       5.024  25.405  51.436  1.00  0.00     0.235 C 
HETATM    4  N   UNL     1       4.649  26.852  51.264  1.00  0.00    -0.066 N 
HETATM    5  H   UNL     1       3.618  26.896  51.334  1.00  0.00     0.280 HD
HETATM    6  C   UNL     1       5.264  27.773  52.269  1.00  0.00     0.235 C 
HETATM    7  C   UNL     1       4.992  27.288  53.687  1.00  0.00     0.035 C 
ENDROOT
BRANCH   1   8
HETATM    8  C   UNL     1       6.926  25.656  54.064  1.00  0.00     0.155 C 
BRANCH   8   9
HETATM    9  C   UNL     1       7.381  24.215  54.187  1.00  0.00    -0.029 A 
HETATM   10  C   UNL     1       7.980  23.531  53.115  1.00  0.00     0.011 A 
HETATM   11  C   UNL     1       8.385  22.201  53.254  1.00  0.00     0.024 A 
HETATM   12  C   UNL     1       8.202  21.543  54.467  1.00  0.00     0.034 A 
HETATM   13  C   UNL     1       7.613  22.205  55.542  1.00  0.00     0.024 A 
HETATM   14 CL   UNL     1       8.705  19.908  54.638  1.00  0.00    -0.084 Cl
HETATM   15  C   UNL     1       7.201  23.533  55.401  1.00  0.00     0.011 A 
ENDBRANCH   8   9
BRANCH   8  16
HETATM   16  O   UNL     1       7.597  26.294  52.981  1.00  0.00    -0.391 OA
HETATM   17  H   UNL     1       7.530  27.256  53.149  1.00  0.00     0.210 HD
ENDBRANCH   8  16
ENDBRANCH   1   8
BRANCH   4  18
HETATM   18  C   UNL     1       4.898  27.326  49.839  1.00  0.00     0.295 C 
BRANCH  18  19
HETATM   19  C   UNL     1       3.819  26.862  48.911  1.00  0.00     0.081 A 
HETATM   20  N   UNL     1       2.590  27.398  49.009  1.00  0.00    -0.178 NA
HETATM   21  N   UNL     1       1.889  26.769  48.038  1.00  0.00    -0.289 N 
HETATM   22  H   UNL     1       0.914  27.019  47.894  1.00  0.00     0.188 HD
HETATM   23  C   UNL     1       2.627  25.841  47.364  1.00  0.00     0.111 A 
HETATM   24  C   UNL     1       3.888  25.877  47.903  1.00  0.00     0.049 A 
ENDBRANCH  18  19
ENDBRANCH   4  18
TORSDOF 5
ENDMDL
MODEL 4
REMARK VINA RESULT:      -7.5      4.903      8.900
REMARK  5 active torsions:
REMARK  status: ('A' for Active; 'I' for Inactive)
REMARK    1  A    between atoms: C_2  and  C_3 
REMARK    2  A    between atoms: C_3  and  O_4 
REMARK    3  A    between atoms: C_3  and  C_5 
REMARK    4  A    between atoms: N_8  and  C_10 
REMARK    5  A    between atoms: C_10  and  C_11 
ROOT
HETATM    1  C   UNL     1       9.424  29.829  58.387  1.00  0.00     0.022 C 
HETATM    2  C   UNL     1      10.129  29.387  57.094  1.00  0.00     0.035 C 
HETATM    3  C   UNL     1       9.242  29.448  55.859  1.00  0.00     0.235 C 
HETATM    4  N   UNL     1       7.988  28.647  56.083  1.00  0.00    -0.066 N 
HETATM    5  H   UNL     1       8.280  27.657  56.140  1.00  0.00     0.280 HD
HETATM    6  C   UNL     1       7.229  29.021  57.317  1.00  0.00     0.235 C 
HETATM    7  C   UNL     1       8.137  28.997  58.540  1.00  0.00     0.035 C 
ENDROOT
BRANCH   1   8
HETATM    8  C   UNL     1       9.140  31.350  58.497  1.00  0.00     0.155 C 
BRANCH   8   9
HETATM    9  C   UNL     1       8.604  31.778  59.850  1.00  0.00    -0.029 A 
HETATM   10  C   UNL     1       7.305  32.293  60.005  1.00  0.00     0.011 A 
HETATM   11  C   UNL     1       6.838  32.685  61.262  1.00  0.00     0.024 A 
HETATM   12  C   UNL     1       7.662  32.562  62.377  1.00  0.00     0.034 A 
HETATM   13  C   UNL     1       8.951  32.052  62.245  1.00  0.00     0.024 A 
HETATM   14 CL   UNL     1       7.085  33.041  63.924  1.00  0.00    -0.084 Cl
HETATM   15  C   UNL     1       9.421  31.666  60.986  1.00  0.00     0.011 A 
ENDBRANCH   8   9
BRANCH   8  16
HETATM   16  O   UNL     1      10.297  32.110  58.162  1.00  0.00    -0.391 OA
HETATM   17  H   UNL     1      10.078  33.041  58.366  1.00  0.00     0.210 HD
ENDBRANCH   8  16
ENDBRANCH   1   8
BRANCH   4  18
HETATM   18  C   UNL     1       7.096  28.653  54.851  1.00  0.00     0.295 C 
BRANCH  18  19
HETATM   19  C   UNL     1       6.514  27.299  54.589  1.00  0.00     0.081 A 
HETATM   20  N   UNL     1       5.231  27.059  54.911  1.00  0.00    -0.178 NA
HETATM   21  N   UNL     1       5.044  25.772  54.540  1.00  0.00    -0.289 N 
HETATM   22  H   UNL     1       4.127  25.351  54.667  1.00  0.00     0.188 HD
HETATM   23  C   UNL     1       6.170  25.195  54.030  1.00  0.00     0.111 A 
HETATM   24  C   UNL     1       7.145  26.160  54.043  1.00  0.00     0.049 A 
ENDBRANCH  18  19
ENDBRANCH   4  18
TORSDOF 5
ENDMDL
MODEL 5
REMARK VINA RESULT:      -7.5      6.515      9.196
REMARK  5 active torsions:
REMARK  status: ('A' for Active; 'I' for Inactive)
REMARK    1  A    between atoms: C_2  and  C_3 
REMARK    2  A    between atoms: C_3  and  O_4 
REMARK    3  A    between atoms: C_3  and  C_5 
REMARK    4  A    between atoms: N_8  and  C_10 
REMARK    5  A    between atoms: C_10  and  C_11 
ROOT
HETATM    1  C   UNL     1       6.937  31.459  62.155  1.00  0.00     0.022 C 
HETATM    2  C   UNL     1       5.545  31.587  62.795  1.00  0.00     0.035 C 
HETATM    3  C   UNL     1       5.299  32.930  63.468  1.00  0.00     0.235 C 
HETATM    4  N   UNL     1       6.379  33.206  64.479  1.00  0.00    -0.066 N 
HETATM    5  H   UNL     1       6.254  32.513  65.237  1.00  0.00     0.280 HD
HETATM    6  C   UNL     1       7.771  33.115  63.937  1.00  0.00     0.235 C 
HETATM    7  C   UNL     1       7.990  31.784  63.229  1.00  0.00     0.035 C 
ENDROOT
BRANCH   1   8
HETATM    8  C   UNL     1       7.151  32.298  60.868  1.00  0.00     0.155 C 
BRANCH   8   9
HETATM    9  C   UNL     1       8.077  31.649  59.858  1.00  0.00    -0.029 A 
HETATM   10  C   UNL     1       7.707  30.495  59.146  1.00  0.00     0.011 A 
HETATM   11  C   UNL     1       8.582  29.913  58.225  1.00  0.00     0.024 A 
HETATM   12  C   UNL     1       9.832  30.482  58.001  1.00  0.00     0.034 A 
HETATM   13  C   UNL     1      10.217  31.627  58.695  1.00  0.00     0.024 A 
HETATM   14 CL   UNL     1      10.906  29.768  56.864  1.00  0.00    -0.084 Cl
HETATM   15  C   UNL     1       9.344  32.205  59.622  1.00  0.00     0.011 A 
ENDBRANCH   8   9
BRANCH   8  16
HETATM   16  O   UNL     1       5.905  32.623  60.258  1.00  0.00    -0.391 OA
HETATM   17  H   UNL     1       5.214  32.228  60.826  1.00  0.00     0.210 HD
ENDBRANCH   8  16
ENDBRANCH   1   8
BRANCH   4  18
HETATM   18  C   UNL     1       6.142  34.524  65.202  1.00  0.00     0.295 C 
BRANCH  18  19
HETATM   19  C   UNL     1       5.794  34.305  66.641  1.00  0.00     0.081 A 
HETATM   20  N   UNL     1       4.538  33.954  66.969  1.00  0.00    -0.178 NA
HETATM   21  N   UNL     1       4.581  33.835  68.315  1.00  0.00    -0.289 N 
HETATM   22  H   UNL     1       3.740  33.554  68.812  1.00  0.00     0.188 HD
HETATM   23  C   UNL     1       5.806  34.130  68.838  1.00  0.00     0.111 A 
HETATM   24  C   UNL     1       6.621  34.436  67.776  1.00  0.00     0.049 A 
ENDBRANCH  18  19
ENDBRANCH   4  18
TORSDOF 5
ENDMDL
MODEL 6
REMARK VINA RESULT:      -7.5      1.892      2.187
REMARK  5 active torsions:
REMARK  status: ('A' for Active; 'I' for Inactive)
REMARK    1  A    between atoms: C_2  and  C_3 
REMARK    2  A    between atoms: C_3  and  O_4 
REMARK    3  A    between atoms: C_3  and  C_5 
REMARK    4  A    between atoms: N_8  and  C_10 
REMARK    5  A    between atoms: C_10  and  C_11 
ROOT
HETATM    1  C   UNL     1       7.660  26.419  56.042  1.00  0.00     0.022 C 
HETATM    2  C   UNL     1       7.621  27.278  57.316  1.00  0.00     0.035 C 
HETATM    3  C   UNL     1       6.413  28.200  57.399  1.00  0.00     0.235 C 
HETATM    4  N   UNL     1       6.337  29.064  56.170  1.00  0.00    -0.066 N 
HETATM    5  H   UNL     1       7.150  29.703  56.212  1.00  0.00     0.280 HD
HETATM    6  C   UNL     1       6.357  28.307  54.880  1.00  0.00     0.235 C 
HETATM    7  C   UNL     1       7.547  27.358  54.826  1.00  0.00     0.035 C 
ENDROOT
BRANCH   1   8
HETATM    8  C   UNL     1       6.612  25.277  55.983  1.00  0.00     0.155 C 
BRANCH   8   9
HETATM    9  C   UNL     1       7.066  24.066  55.190  1.00  0.00    -0.029 A 
HETATM   10  C   UNL     1       7.530  22.898  55.819  1.00  0.00     0.011 A 
HETATM   11  C   UNL     1       7.947  21.799  55.064  1.00  0.00     0.024 A 
HETATM   12  C   UNL     1       7.899  21.854  53.674  1.00  0.00     0.034 A 
HETATM   13  C   UNL     1       7.440  23.002  53.032  1.00  0.00     0.024 A 
HETATM   14 CL   UNL     1       8.409  20.499  52.746  1.00  0.00    -0.084 Cl
HETATM   15  C   UNL     1       7.029  24.104  53.787  1.00  0.00     0.011 A 
ENDBRANCH   8   9
BRANCH   8  16
HETATM   16  O   UNL     1       6.211  24.886  57.294  1.00  0.00    -0.391 OA
HETATM   17  H   UNL     1       6.836  24.186  57.571  1.00  0.00     0.210 HD
ENDBRANCH   8  16
ENDBRANCH   1   8
BRANCH   4  18
HETATM   18  C   UNL     1       5.162  30.029  56.239  1.00  0.00     0.295 C 
BRANCH  18  19
HETATM   19  C   UNL     1       5.173  30.815  57.512  1.00  0.00     0.081 A 
HETATM   20  N   UNL     1       4.075  30.827  58.288  1.00  0.00    -0.178 NA
HETATM   21  N   UNL     1       4.431  31.609  59.333  1.00  0.00    -0.289 N 
HETATM   22  H   UNL     1       3.763  31.762  60.084  1.00  0.00     0.188 HD
HETATM   23  C   UNL     1       5.695  32.108  59.219  1.00  0.00     0.111 A 
HETATM   24  C   UNL     1       6.209  31.609  58.048  1.00  0.00     0.049 A 
ENDBRANCH  18  19
ENDBRANCH   4  18
TORSDOF 5
ENDMDL
MODEL 7
REMARK VINA RESULT:      -7.2      5.044      7.662
REMARK  5 active torsions:
REMARK  status: ('A' for Active; 'I' for Inactive)
REMARK    1  A    between atoms: C_2  and  C_3 
REMARK    2  A    between atoms: C_3  and  O_4 
REMARK    3  A    between atoms: C_3  and  C_5 
REMARK    4  A    between atoms: N_8  and  C_10 
REMARK    5  A    between atoms: C_10  and  C_11 
ROOT
HETATM    1  C   UNL     1       5.014  26.719  53.351  1.00  0.00     0.022 C 
HETATM    2  C   UNL     1       5.730  26.969  54.689  1.00  0.00     0.035 C 
HETATM    3  C   UNL     1       7.070  26.259  54.811  1.00  0.00     0.235 C 
HETATM    4  N   UNL     1       6.898  24.784  54.565  1.00  0.00    -0.066 N 
HETATM    5  H   UNL     1       6.342  24.420  55.358  1.00  0.00     0.280 HD
HETATM    6  C   UNL     1       6.219  24.448  53.275  1.00  0.00     0.235 C 
HETATM    7  C   UNL     1       4.899  25.197  53.146  1.00  0.00     0.035 C 
ENDROOT
BRANCH   1   8
HETATM    8  C   UNL     1       5.651  27.417  52.121  1.00  0.00     0.155 C 
BRANCH   8   9
HETATM    9  C   UNL     1       4.775  27.401  50.883  1.00  0.00    -0.029 A 
HETATM   10  C   UNL     1       4.877  26.387  49.914  1.00  0.00     0.011 A 
HETATM   11  C   UNL     1       4.061  26.399  48.781  1.00  0.00     0.024 A 
HETATM   12  C   UNL     1       3.131  27.420  48.606  1.00  0.00     0.034 A 
HETATM   13  C   UNL     1       3.013  28.432  49.556  1.00  0.00     0.024 A 
HETATM   14 CL   UNL     1       2.125  27.431  47.212  1.00  0.00    -0.084 Cl
HETATM   15  C   UNL     1       3.834  28.424  50.687  1.00  0.00     0.011 A 
ENDBRANCH   8   9
BRANCH   8  16
HETATM   16  O   UNL     1       6.036  28.752  52.436  1.00  0.00    -0.391 OA
HETATM   17  H   UNL     1       5.239  29.185  52.801  1.00  0.00     0.210 HD
ENDBRANCH   8  16
ENDBRANCH   1   8
BRANCH   4  18
HETATM   18  C   UNL     1       8.214  24.037  54.721  1.00  0.00     0.295 C 
BRANCH  18  19
HETATM   19  C   UNL     1       8.058  22.582  54.406  1.00  0.00     0.081 A 
HETATM   20  N   UNL     1       7.635  21.741  55.365  1.00  0.00    -0.178 NA
HETATM   21  N   UNL     1       7.603  20.540  54.746  1.00  0.00    -0.289 N 
HETATM   22  H   UNL     1       7.291  19.724  55.267  1.00  0.00     0.188 HD
HETATM   23  C   UNL     1       8.021  20.597  53.449  1.00  0.00     0.111 A 
HETATM   24  C   UNL     1       8.321  21.911  53.192  1.00  0.00     0.049 A 
ENDBRANCH  18  19
ENDBRANCH   4  18
TORSDOF 5
ENDMDL
MODEL 8
REMARK VINA RESULT:      -7.2      1.702      2.356
REMARK  5 active torsions:
REMARK  status: ('A' for Active; 'I' for Inactive)
REMARK    1  A    between atoms: C_2  and  C_3 
REMARK    2  A    between atoms: C_3  and  O_4 
REMARK    3  A    between atoms: C_3  and  C_5 
REMARK    4  A    between atoms: N_8  and  C_10 
REMARK    5  A    between atoms: C_10  and  C_11 
ROOT
HETATM    1  C   UNL     1       6.042  27.374  53.932  1.00  0.00     0.022 C 
HETATM    2  C   UNL     1       7.546  27.497  54.226  1.00  0.00     0.035 C 
HETATM    3  C   UNL     1       7.874  27.658  55.703  1.00  0.00     0.235 C 
HETATM    4  N   UNL     1       7.121  28.828  56.275  1.00  0.00    -0.066 N 
HETATM    5  H   UNL     1       7.518  29.675  55.831  1.00  0.00     0.280 HD
HETATM    6  C   UNL     1       5.643  28.784  56.046  1.00  0.00     0.235 C 
HETATM    7  C   UNL     1       5.329  28.581  54.569  1.00  0.00     0.035 C 
ENDROOT
BRANCH   1   8
HETATM    8  C   UNL     1       5.393  26.032  54.363  1.00  0.00     0.155 C 
BRANCH   8   9
HETATM    9  C   UNL     1       6.295  24.827  54.179  1.00  0.00    -0.029 A 
HETATM   10  C   UNL     1       6.787  24.094  55.273  1.00  0.00     0.011 A 
HETATM   11  C   UNL     1       7.621  22.990  55.075  1.00  0.00     0.024 A 
HETATM   12  C   UNL     1       7.967  22.605  53.783  1.00  0.00     0.034 A 
HETATM   13  C   UNL     1       7.488  23.317  52.686  1.00  0.00     0.024 A 
HETATM   14 CL   UNL     1       8.989  21.244  53.541  1.00  0.00    -0.084 Cl
HETATM   15  C   UNL     1       6.659  24.425  52.884  1.00  0.00     0.011 A 
ENDBRANCH   8   9
BRANCH   8  16
HETATM   16  O   UNL     1       4.929  26.100  55.709  1.00  0.00    -0.391 OA
HETATM   17  H   UNL     1       5.628  26.561  56.214  1.00  0.00     0.210 HD
ENDBRANCH   8  16
ENDBRANCH   1   8
BRANCH   4  18
HETATM   18  C   UNL     1       7.458  29.043  57.743  1.00  0.00     0.295 C 
BRANCH  18  19
HETATM   19  C   UNL     1       8.631  29.958  57.908  1.00  0.00     0.081 A 
HETATM   20  N   UNL     1       8.493  31.083  58.631  1.00  0.00    -0.178 NA
HETATM   21  N   UNL     1       9.720  31.649  58.578  1.00  0.00    -0.289 N 
HETATM   22  H   UNL     1       9.882  32.521  59.075  1.00  0.00     0.188 HD
HETATM   23  C   UNL     1      10.604  30.935  57.824  1.00  0.00     0.111 A 
HETATM   24  C   UNL     1       9.931  29.826  57.376  1.00  0.00     0.049 A 
ENDBRANCH  18  19
ENDBRANCH   4  18
TORSDOF 5
ENDMDL
MODEL 9
REMARK VINA RESULT:      -7.0      4.134      7.889
REMARK  5 active torsions:
REMARK  status: ('A' for Active; 'I' for Inactive)
REMARK    1  A    between atoms: C_2  and  C_3 
REMARK    2  A    between atoms: C_3  and  O_4 
REMARK    3  A    between atoms: C_3  and  C_5 
REMARK    4  A    between atoms: N_8  and  C_10 
REMARK    5  A    between atoms: C_10  and  C_11 
ROOT
HETATM    1  C   UNL     1       6.328  26.495  56.824  1.00  0.00     0.022 C 
HETATM    2  C   UNL     1       7.350  25.905  57.810  1.00  0.00     0.035 C 
HETATM    3  C   UNL     1       8.505  25.179  57.136  1.00  0.00     0.235 C 
HETATM    4  N   UNL     1       7.978  24.113  56.214  1.00  0.00    -0.066 N 
HETATM    5  H   UNL     1       7.541  23.396  56.817  1.00  0.00     0.280 HD
HETATM    6  C   UNL     1       6.983  24.603  55.210  1.00  0.00     0.235 C 
HETATM    7  C   UNL     1       5.854  25.364  55.892  1.00  0.00     0.035 C 
ENDROOT
BRANCH   1   8
HETATM    8  C   UNL     1       6.819  27.730  56.024  1.00  0.00     0.155 C 
BRANCH   8   9
HETATM    9  C   UNL     1       7.578  28.742  56.861  1.00  0.00    -0.029 A 
HETATM   10  C   UNL     1       8.972  28.889  56.764  1.00  0.00     0.011 A 
HETATM   11  C   UNL     1       9.647  29.826  57.550  1.00  0.00     0.024 A 
HETATM   12  C   UNL     1       8.935  30.628  58.437  1.00  0.00     0.034 A 
HETATM   13  C   UNL     1       7.553  30.499  58.546  1.00  0.00     0.024 A 
HETATM   14 CL   UNL     1       9.767  31.784  59.401  1.00  0.00    -0.084 Cl
HETATM   15  C   UNL     1       6.878  29.557  57.764  1.00  0.00     0.011 A 
ENDBRANCH   8   9
BRANCH   8  16
HETATM   16  O   UNL     1       7.601  27.331  54.902  1.00  0.00    -0.391 OA
HETATM   17  H   UNL     1       8.049  28.140  54.583  1.00  0.00     0.210 HD
ENDBRANCH   8  16
ENDBRANCH   1   8
BRANCH   4  18
HETATM   18  C   UNL     1       9.109  23.338  55.554  1.00  0.00     0.295 C 
BRANCH  18  19
HETATM   19  C   UNL     1       8.591  22.172  54.771  1.00  0.00     0.081 A 
HETATM   20  N   UNL     1       8.044  21.131  55.423  1.00  0.00    -0.178 NA
HETATM   21  N   UNL     1       7.686  20.286  54.431  1.00  0.00    -0.289 N 
HETATM   22  H   UNL     1       7.224  19.412  54.671  1.00  0.00     0.188 HD
HETATM   23  C   UNL     1       8.018  20.747  53.191  1.00  0.00     0.111 A 
HETATM   24  C   UNL     1       8.604  21.974  53.374  1.00  0.00     0.049 A 
ENDBRANCH  18  19
ENDBRANCH   4  18
TORSDOF 5
ENDMDL
MODEL 10
REMARK VINA RESULT:      -6.9      4.827      8.585
REMARK  5 active torsions:
REMARK  status: ('A' for Active; 'I' for Inactive)
REMARK    1  A    between atoms: C_2  and  C_3 
REMARK    2  A    between atoms: C_3  and  O_4 
REMARK    3  A    between atoms: C_3  and  C_5 
REMARK    4  A    between atoms: N_8  and  C_10 
REMARK    5  A    between atoms: C_10  and  C_11 
ROOT
HETATM    1  C   UNL     1       7.526  28.669  57.885  1.00  0.00     0.022 C 
HETATM    2  C   UNL     1       8.228  27.664  56.957  1.00  0.00     0.035 C 
HETATM    3  C   UNL     1       7.990  27.925  55.477  1.00  0.00     0.235 C 
HETATM    4  N   UNL     1       6.514  27.974  55.191  1.00  0.00    -0.066 N 
HETATM    5  H   UNL     1       6.156  27.015  55.344  1.00  0.00     0.280 HD
HETATM    6  C   UNL     1       5.751  28.938  56.044  1.00  0.00     0.235 C 
HETATM    7  C   UNL     1       6.030  28.694  57.521  1.00  0.00     0.035 C 
ENDROOT
BRANCH   1   8
HETATM    8  C   UNL     1       8.137  30.095  57.897  1.00  0.00     0.155 C 
BRANCH   8   9
HETATM    9  C   UNL     1       8.129  30.756  59.262  1.00  0.00    -0.029 A 
HETATM   10  C   UNL     1       9.124  30.492  60.220  1.00  0.00     0.011 A 
HETATM   11  C   UNL     1       9.090  31.110  61.472  1.00  0.00     0.024 A 
HETATM   12  C   UNL     1       8.066  32.002  61.778  1.00  0.00     0.034 A 
HETATM   13  C   UNL     1       7.073  32.278  60.842  1.00  0.00     0.024 A 
HETATM   14 CL   UNL     1       8.028  32.765  63.318  1.00  0.00    -0.084 Cl
HETATM   15  C   UNL     1       7.103  31.655  59.591  1.00  0.00     0.011 A 
ENDBRANCH   8   9
BRANCH   8  16
HETATM   16  O   UNL     1       9.457  30.088  57.359  1.00  0.00    -0.391 OA
HETATM   17  H   UNL     1       9.688  31.025  57.198  1.00  0.00     0.210 HD
ENDBRANCH   8  16
ENDBRANCH   1   8
BRANCH   4  18
HETATM   18  C   UNL     1       6.239  28.191  53.711  1.00  0.00     0.295 C 
BRANCH  18  19
HETATM   19  C   UNL     1       5.648  26.971  53.077  1.00  0.00     0.081 A 
HETATM   20  N   UNL     1       5.100  27.063  51.853  1.00  0.00    -0.178 NA
HETATM   21  N   UNL     1       4.683  25.803  51.594  1.00  0.00    -0.289 N 
HETATM   22  H   UNL     1       4.241  25.604  50.701  1.00  0.00     0.188 HD
HETATM   23  C   UNL     1       4.922  24.940  52.623  1.00  0.00     0.111 A 
HETATM   24  C   UNL     1       5.553  25.665  53.603  1.00  0.00     0.049 A 
ENDBRANCH  18  19
ENDBRANCH   4  18
TORSDOF 5
ENDMDL
