MODEL 1
REMARK VINA RESULT:     -10.2      0.000      0.000
REMARK  3 active torsions:
REMARK  status: ('A' for Active; 'I' for Inactive)
REMARK    1  A    between atoms: C_2  and  C_3 
REMARK    2  A    between atoms: C_18  and  C_19 
REMARK    3  A    between atoms: C_22  and  O_23 
ROOT
HETATM    1  C   UNL     1       4.518  28.509  54.728  1.00  0.00     0.060 C 
HETATM    2  C   UNL     1       5.884  28.029  54.144  1.00  0.00     0.210 C 
HETATM    3  N   UNL     1       6.318  28.922  53.037  1.00  0.00     0.110 N 
HETATM    4  C   UNL     1       5.368  29.241  51.963  1.00  0.00     0.367 C 
HETATM    5  C   UNL     1       5.039  28.003  51.137  1.00  0.00     0.230 C 
HETATM    6  O   UNL     1       5.550  27.772  50.045  1.00  0.00    -0.278 OA
HETATM    7  N   UNL     1       4.209  27.104  51.801  1.00  0.00    -0.227 NA
HETATM    8  C   UNL     1       4.933  26.167  52.579  1.00  0.00     0.024 A 
HETATM    9  C   UNL     1       5.793  26.556  53.632  1.00  0.00     0.007 A 
HETATM   10  C   UNL     1       4.828  24.837  52.163  1.00  0.00     0.025 A 
HETATM   11  C   UNL     1       5.605  23.851  52.761  1.00  0.00     0.014 A 
HETATM   12  C   UNL     1       6.533  24.179  53.755  1.00  0.00    -0.025 A 
HETATM   13  C   UNL     1       6.616  25.531  54.162  1.00  0.00     0.024 A 
HETATM   14  H   UNL     1       7.149  28.503  52.613  1.00  0.00     0.318 HD
HETATM   15  H   UNL     1       3.574  27.616  52.397  1.00  0.00     0.136 HD
ENDROOT
BRANCH  12  16
HETATM   16  C   UNL     1       7.402  23.141  54.349  1.00  0.00    -0.026 A 
HETATM   17  C   UNL     1       7.978  22.134  53.550  1.00  0.00     0.015 A 
HETATM   18  C   UNL     1       8.783  21.134  54.105  1.00  0.00     0.037 A 
HETATM   19  C   UNL     1       9.025  21.135  55.472  1.00  0.00     0.065 A 
HETATM   20  C   UNL     1       8.481  22.118  56.286  1.00  0.00     0.037 A 
HETATM   21  C   UNL     1       7.674  23.114  55.728  1.00  0.00     0.015 A 
BRANCH  19  22
HETATM   22  O   UNL     1       9.800  20.178  56.058  1.00  0.00    -0.361 OA
HETATM   23  H   UNL     1       9.486  19.306  55.768  1.00  0.00     0.217 HD
ENDBRANCH  19  22
ENDBRANCH  12  16
BRANCH   2  24
HETATM   24  C   UNL     1       6.881  28.217  55.348  1.00  0.00    -0.016 A 
HETATM   25  C   UNL     1       6.497  27.880  56.668  1.00  0.00     0.010 A 
HETATM   26  C   UNL     1       7.354  28.076  57.755  1.00  0.00     0.001 A 
HETATM   27  C   UNL     1       8.616  28.623  57.557  1.00  0.00     0.000 A 
HETATM   28  C   UNL     1       9.022  28.969  56.273  1.00  0.00     0.001 A 
HETATM   29  C   UNL     1       8.168  28.768  55.183  1.00  0.00     0.010 A 
ENDBRANCH   2  24
TORSDOF 3
ENDMDL
MODEL 2
REMARK VINA RESULT:      -9.5      9.765     12.971
REMARK  3 active torsions:
REMARK  status: ('A' for Active; 'I' for Inactive)
REMARK    1  A    between atoms: C_2  and  C_3 
REMARK    2  A    between atoms: C_18  and  C_19 
REMARK    3  A    between atoms: C_22  and  O_23 
ROOT
HETATM    1  C   UNL     1       4.268  36.957  64.120  1.00  0.00     0.060 C 
HETATM    2  C   UNL     1       3.999  35.426  63.979  1.00  0.00     0.210 C 
HETATM    3  N   UNL     1       3.004  34.979  64.991  1.00  0.00     0.110 N 
HETATM    4  C   UNL     1       3.199  35.353  66.398  1.00  0.00     0.367 C 
HETATM    5  C   UNL     1       4.433  34.674  66.980  1.00  0.00     0.230 C 
HETATM    6  O   UNL     1       4.373  33.674  67.690  1.00  0.00    -0.278 OA
HETATM    7  N   UNL     1       5.628  35.217  66.519  1.00  0.00    -0.227 NA
HETATM    8  C   UNL     1       6.081  34.604  65.325  1.00  0.00     0.024 A 
HETATM    9  C   UNL     1       5.318  34.604  64.134  1.00  0.00     0.007 A 
HETATM   10  C   UNL     1       7.284  33.902  65.433  1.00  0.00     0.025 A 
HETATM   11  C   UNL     1       7.752  33.143  64.365  1.00  0.00     0.014 A 
HETATM   12  C   UNL     1       7.008  33.036  63.186  1.00  0.00    -0.025 A 
HETATM   13  C   UNL     1       5.797  33.761  63.100  1.00  0.00     0.024 A 
HETATM   14  H   UNL     1       2.951  33.959  64.937  1.00  0.00     0.318 HD
HETATM   15  H   UNL     1       5.505  36.208  66.363  1.00  0.00     0.136 HD
ENDROOT
BRANCH  12  16
HETATM   16  C   UNL     1       7.475  32.183  62.073  1.00  0.00    -0.026 A 
HETATM   17  C   UNL     1       8.568  31.311  62.239  1.00  0.00     0.015 A 
HETATM   18  C   UNL     1       9.033  30.515  61.186  1.00  0.00     0.037 A 
HETATM   19  C   UNL     1       8.400  30.581  59.952  1.00  0.00     0.065 A 
HETATM   20  C   UNL     1       7.314  31.423  59.758  1.00  0.00     0.037 A 
HETATM   21  C   UNL     1       6.855  32.219  60.812  1.00  0.00     0.015 A 
BRANCH  19  22
HETATM   22  O   UNL     1       8.820  29.827  58.896  1.00  0.00    -0.361 OA
HETATM   23  H   UNL     1       8.321  28.994  58.893  1.00  0.00     0.217 HD
ENDBRANCH  19  22
ENDBRANCH  12  16
BRANCH   2  24
HETATM   24  C   UNL     1       3.342  35.301  62.554  1.00  0.00    -0.016 A 
HETATM   25  C   UNL     1       3.869  36.009  61.447  1.00  0.00     0.010 A 
HETATM   26  C   UNL     1       3.277  35.941  60.183  1.00  0.00     0.001 A 
HETATM   27  C   UNL     1       2.136  35.172  59.988  1.00  0.00     0.000 A 
HETATM   28  C   UNL     1       1.591  34.467  61.056  1.00  0.00     0.001 A 
HETATM   29  C   UNL     1       2.185  34.530  62.321  1.00  0.00     0.010 A 
ENDBRANCH   2  24
TORSDOF 3
ENDMDL
MODEL 3
REMARK VINA RESULT:      -9.1      2.900      6.524
REMARK  3 active torsions:
REMARK  status: ('A' for Active; 'I' for Inactive)
REMARK    1  A    between atoms: C_2  and  C_3 
REMARK    2  A    between atoms: C_18  and  C_19 
REMARK    3  A    between atoms: C_22  and  O_23 
ROOT
HETATM    1  C   UNL     1       5.621  25.087  56.790  1.00  0.00     0.060 C 
HETATM    2  C   UNL     1       6.444  25.894  55.738  1.00  0.00     0.210 C 
HETATM    3  N   UNL     1       7.560  26.621  56.399  1.00  0.00     0.110 N 
HETATM    4  C   UNL     1       7.276  27.439  57.586  1.00  0.00     0.367 C 
HETATM    5  C   UNL     1       6.406  28.638  57.229  1.00  0.00     0.230 C 
HETATM    6  O   UNL     1       6.858  29.769  57.076  1.00  0.00    -0.278 OA
HETATM    7  N   UNL     1       5.082  28.298  56.968  1.00  0.00    -0.227 NA
HETATM    8  C   UNL     1       4.863  27.969  55.607  1.00  0.00     0.024 A 
HETATM    9  C   UNL     1       5.537  26.904  54.965  1.00  0.00     0.007 A 
HETATM   10  C   UNL     1       4.017  28.837  54.912  1.00  0.00     0.025 A 
HETATM   11  C   UNL     1       3.842  28.695  53.539  1.00  0.00     0.014 A 
HETATM   12  C   UNL     1       4.540  27.712  52.829  1.00  0.00    -0.025 A 
HETATM   13  C   UNL     1       5.385  26.844  53.557  1.00  0.00     0.024 A 
HETATM   14  H   UNL     1       7.993  27.223  55.694  1.00  0.00     0.318 HD
HETATM   15  H   UNL     1       4.818  27.516  57.550  1.00  0.00     0.136 HD
ENDROOT
BRANCH  12  16
HETATM   16  C   UNL     1       4.401  27.600  51.362  1.00  0.00    -0.026 A 
HETATM   17  C   UNL     1       3.709  28.579  50.622  1.00  0.00     0.015 A 
HETATM   18  C   UNL     1       3.552  28.471  49.236  1.00  0.00     0.037 A 
HETATM   19  C   UNL     1       4.093  27.378  48.573  1.00  0.00     0.065 A 
HETATM   20  C   UNL     1       4.788  26.399  49.270  1.00  0.00     0.037 A 
HETATM   21  C   UNL     1       4.940  26.510  50.656  1.00  0.00     0.015 A 
BRANCH  19  22
HETATM   22  O   UNL     1       3.961  27.228  47.224  1.00  0.00    -0.361 OA
HETATM   23  H   UNL     1       4.054  26.286  47.007  1.00  0.00     0.217 HD
ENDBRANCH  19  22
ENDBRANCH  12  16
BRANCH   2  24
HETATM   24  C   UNL     1       7.061  24.773  54.820  1.00  0.00    -0.016 A 
HETATM   25  C   UNL     1       7.572  25.085  53.537  1.00  0.00     0.010 A 
HETATM   26  C   UNL     1       8.088  24.097  52.693  1.00  0.00     0.001 A 
HETATM   27  C   UNL     1       8.100  22.769  53.101  1.00  0.00     0.000 A 
HETATM   28  C   UNL     1       7.602  22.429  54.354  1.00  0.00     0.001 A 
HETATM   29  C   UNL     1       7.091  23.417  55.202  1.00  0.00     0.010 A 
ENDBRANCH   2  24
TORSDOF 3
ENDMDL
MODEL 4
REMARK VINA RESULT:      -8.6      2.922      6.263
REMARK  3 active torsions:
REMARK  status: ('A' for Active; 'I' for Inactive)
REMARK    1  A    between atoms: C_2  and  C_3 
REMARK    2  A    between atoms: C_18  and  C_19 
REMARK    3  A    between atoms: C_22  and  O_23 
ROOT
HETATM    1  C   UNL     1       4.619  24.965  54.056  1.00  0.00     0.060 C 
HETATM    2  C   UNL     1       5.966  25.697  53.763  1.00  0.00     0.210 C 
HETATM    3  N   UNL     1       6.706  25.006  52.674  1.00  0.00     0.110 N 
HETATM    4  C   UNL     1       6.903  23.553  52.755  1.00  0.00     0.367 C 
HETATM    5  C   UNL     1       7.819  23.187  53.917  1.00  0.00     0.230 C 
HETATM    6  O   UNL     1       9.007  22.917  53.771  1.00  0.00    -0.278 OA
HETATM    7  N   UNL     1       7.209  23.320  55.161  1.00  0.00    -0.227 NA
HETATM    8  C   UNL     1       7.350  24.623  55.700  1.00  0.00     0.024 A 
HETATM    9  C   UNL     1       6.857  25.774  55.044  1.00  0.00     0.007 A 
HETATM   10  C   UNL     1       8.107  24.705  56.872  1.00  0.00     0.025 A 
HETATM   11  C   UNL     1       8.431  25.945  57.412  1.00  0.00     0.014 A 
HETATM   12  C   UNL     1       8.042  27.126  56.770  1.00  0.00    -0.025 A 
HETATM   13  C   UNL     1       7.273  27.015  55.589  1.00  0.00     0.024 A 
HETATM   14  H   UNL     1       7.626  25.448  52.601  1.00  0.00     0.318 HD
HETATM   15  H   UNL     1       6.227  23.095  55.076  1.00  0.00     0.136 HD
ENDROOT
BRANCH  12  16
HETATM   16  C   UNL     1       8.437  28.444  57.311  1.00  0.00    -0.026 A 
HETATM   17  C   UNL     1       9.699  28.998  57.020  1.00  0.00     0.015 A 
HETATM   18  C   UNL     1      10.092  30.233  57.545  1.00  0.00     0.037 A 
HETATM   19  C   UNL     1       9.218  30.933  58.367  1.00  0.00     0.065 A 
HETATM   20  C   UNL     1       7.964  30.420  58.666  1.00  0.00     0.037 A 
HETATM   21  C   UNL     1       7.577  29.183  58.142  1.00  0.00     0.015 A 
BRANCH  19  22
HETATM   22  O   UNL     1       9.560  32.138  58.904  1.00  0.00    -0.361 OA
HETATM   23  H   UNL     1      10.452  32.371  58.600  1.00  0.00     0.217 HD
ENDBRANCH  19  22
ENDBRANCH  12  16
BRANCH   2  24
HETATM   24  C   UNL     1       5.507  27.106  53.230  1.00  0.00    -0.016 A 
HETATM   25  C   UNL     1       4.426  27.793  53.832  1.00  0.00     0.010 A 
HETATM   26  C   UNL     1       3.979  29.026  53.349  1.00  0.00     0.001 A 
HETATM   27  C   UNL     1       4.591  29.604  52.244  1.00  0.00     0.000 A 
HETATM   28  C   UNL     1       5.654  28.953  51.626  1.00  0.00     0.001 A 
HETATM   29  C   UNL     1       6.106  27.721  52.112  1.00  0.00     0.010 A 
ENDBRANCH   2  24
TORSDOF 3
ENDMDL
MODEL 5
REMARK VINA RESULT:      -8.4      2.103      4.575
REMARK  3 active torsions:
REMARK  status: ('A' for Active; 'I' for Inactive)
REMARK    1  A    between atoms: C_2  and  C_3 
REMARK    2  A    between atoms: C_18  and  C_19 
REMARK    3  A    between atoms: C_22  and  O_23 
ROOT
HETATM    1  C   UNL     1       6.562  28.719  53.267  1.00  0.00     0.060 C 
HETATM    2  C   UNL     1       5.779  27.521  53.889  1.00  0.00     0.210 C 
HETATM    3  N   UNL     1       4.536  28.001  54.550  1.00  0.00     0.110 N 
HETATM    4  C   UNL     1       4.616  29.125  55.492  1.00  0.00     0.367 C 
HETATM    5  C   UNL     1       5.400  28.739  56.741  1.00  0.00     0.230 C 
HETATM    6  O   UNL     1       4.861  28.435  57.801  1.00  0.00    -0.278 OA
HETATM    7  N   UNL     1       6.771  28.638  56.520  1.00  0.00    -0.227 NA
HETATM    8  C   UNL     1       7.160  27.342  56.099  1.00  0.00     0.024 A 
HETATM    9  C   UNL     1       6.660  26.744  54.918  1.00  0.00     0.007 A 
HETATM   10  C   UNL     1       7.987  26.649  56.987  1.00  0.00     0.025 A 
HETATM   11  C   UNL     1       8.315  25.319  56.747  1.00  0.00     0.014 A 
HETATM   12  C   UNL     1       7.792  24.644  55.639  1.00  0.00    -0.025 A 
HETATM   13  C   UNL     1       6.963  25.369  54.753  1.00  0.00     0.024 A 
HETATM   14  H   UNL     1       4.123  27.204  55.040  1.00  0.00     0.318 HD
HETATM   15  H   UNL     1       7.046  29.315  55.822  1.00  0.00     0.136 HD
ENDROOT
BRANCH  12  16
HETATM   16  C   UNL     1       8.093  23.214  55.415  1.00  0.00    -0.026 A 
HETATM   17  C   UNL     1       8.367  22.353  56.496  1.00  0.00     0.015 A 
HETATM   18  C   UNL     1       8.675  21.004  56.294  1.00  0.00     0.037 A 
HETATM   19  C   UNL     1       8.707  20.498  55.001  1.00  0.00     0.065 A 
HETATM   20  C   UNL     1       8.433  21.317  53.914  1.00  0.00     0.037 A 
HETATM   21  C   UNL     1       8.129  22.666  54.121  1.00  0.00     0.015 A 
BRANCH  19  22
HETATM   22  O   UNL     1       9.007  19.191  54.755  1.00  0.00    -0.361 OA
HETATM   23  H   UNL     1       8.241  18.647  55.000  1.00  0.00     0.217 HD
ENDBRANCH  19  22
ENDBRANCH  12  16
BRANCH   2  24
HETATM   24  C   UNL     1       5.370  26.662  52.635  1.00  0.00    -0.016 A 
HETATM   25  C   UNL     1       5.354  27.231  51.339  1.00  0.00     0.010 A 
HETATM   26  C   UNL     1       4.957  26.495  50.218  1.00  0.00     0.001 A 
HETATM   27  C   UNL     1       4.555  25.173  50.361  1.00  0.00     0.000 A 
HETATM   28  C   UNL     1       4.555  24.585  51.621  1.00  0.00     0.001 A 
HETATM   29  C   UNL     1       4.957  25.319  52.742  1.00  0.00     0.010 A 
ENDBRANCH   2  24
TORSDOF 3
ENDMDL
MODEL 6
REMARK VINA RESULT:      -8.3      1.292      1.874
REMARK  3 active torsions:
REMARK  status: ('A' for Active; 'I' for Inactive)
REMARK    1  A    between atoms: C_2  and  C_3 
REMARK    2  A    between atoms: C_18  and  C_19 
REMARK    3  A    between atoms: C_22  and  O_23 
ROOT
HETATM    1  C   UNL     1       3.357  29.120  53.290  1.00  0.00     0.060 C 
HETATM    2  C   UNL     1       4.889  28.831  53.225  1.00  0.00     0.210 C 
HETATM    3  N   UNL     1       5.575  29.854  52.393  1.00  0.00     0.110 N 
HETATM    4  C   UNL     1       5.041  30.167  51.061  1.00  0.00     0.367 C 
HETATM    5  C   UNL     1       5.185  28.977  50.119  1.00  0.00     0.230 C 
HETATM    6  O   UNL     1       6.078  28.893  49.281  1.00  0.00    -0.278 OA
HETATM    7  N   UNL     1       4.292  27.946  50.395  1.00  0.00    -0.227 NA
HETATM    8  C   UNL     1       4.801  27.023  51.343  1.00  0.00     0.024 A 
HETATM    9  C   UNL     1       5.171  27.405  52.653  1.00  0.00     0.007 A 
HETATM   10  C   UNL     1       5.017  25.730  50.859  1.00  0.00     0.025 A 
HETATM   11  C   UNL     1       5.646  24.779  51.657  1.00  0.00     0.014 A 
HETATM   12  C   UNL     1       6.107  25.113  52.935  1.00  0.00    -0.025 A 
HETATM   13  C   UNL     1       5.871  26.426  53.401  1.00  0.00     0.024 A 
HETATM   14  H   UNL     1       6.548  29.558  52.284  1.00  0.00     0.318 HD
HETATM   15  H   UNL     1       3.427  28.339  50.739  1.00  0.00     0.136 HD
ENDROOT
BRANCH  12  16
HETATM   16  C   UNL     1       6.828  24.120  53.759  1.00  0.00    -0.026 A 
HETATM   17  C   UNL     1       7.502  23.036  53.165  1.00  0.00     0.015 A 
HETATM   18  C   UNL     1       8.168  22.078  53.937  1.00  0.00     0.037 A 
HETATM   19  C   UNL     1       8.171  22.201  55.320  1.00  0.00     0.065 A 
HETATM   20  C   UNL     1       7.524  23.262  55.937  1.00  0.00     0.037 A 
HETATM   21  C   UNL     1       6.857  24.215  55.162  1.00  0.00     0.015 A 
BRANCH  19  22
HETATM   22  O   UNL     1       8.803  21.290  56.113  1.00  0.00    -0.361 OA
HETATM   23  H   UNL     1       9.728  21.221  55.828  1.00  0.00     0.217 HD
ENDBRANCH  19  22
ENDBRANCH  12  16
BRANCH   2  24
HETATM   24  C   UNL     1       5.358  29.014  54.718  1.00  0.00    -0.016 A 
HETATM   25  C   UNL     1       6.728  29.178  55.033  1.00  0.00     0.010 A 
HETATM   26  C   UNL     1       7.167  29.304  56.354  1.00  0.00     0.001 A 
HETATM   27  C   UNL     1       6.252  29.259  57.399  1.00  0.00     0.000 A 
HETATM   28  C   UNL     1       4.899  29.095  57.123  1.00  0.00     0.001 A 
HETATM   29  C   UNL     1       4.457  28.975  55.801  1.00  0.00     0.010 A 
ENDBRANCH   2  24
TORSDOF 3
ENDMDL
MODEL 7
REMARK VINA RESULT:      -8.1     12.077     15.667
REMARK  3 active torsions:
REMARK  status: ('A' for Active; 'I' for Inactive)
REMARK    1  A    between atoms: C_2  and  C_3 
REMARK    2  A    between atoms: C_18  and  C_19 
REMARK    3  A    between atoms: C_22  and  O_23 
ROOT
HETATM    1  C   UNL     1       5.677  33.062  63.193  1.00  0.00     0.060 C 
HETATM    2  C   UNL     1       4.789  34.191  63.804  1.00  0.00     0.210 C 
HETATM    3  N   UNL     1       3.352  33.817  63.733  1.00  0.00     0.110 N 
HETATM    4  C   UNL     1       2.799  33.344  62.457  1.00  0.00     0.367 C 
HETATM    5  C   UNL     1       2.794  34.458  61.416  1.00  0.00     0.230 C 
HETATM    6  O   UNL     1       1.788  35.101  61.132  1.00  0.00    -0.278 OA
HETATM    7  N   UNL     1       4.061  34.756  60.923  1.00  0.00    -0.227 NA
HETATM    8  C   UNL     1       4.730  35.735  61.698  1.00  0.00     0.024 A 
HETATM    9  C   UNL     1       5.020  35.551  63.070  1.00  0.00     0.007 A 
HETATM   10  C   UNL     1       4.985  36.943  61.043  1.00  0.00     0.025 A 
HETATM   11  C   UNL     1       5.508  38.024  61.744  1.00  0.00     0.014 A 
HETATM   12  C   UNL     1       5.745  37.935  63.120  1.00  0.00    -0.025 A 
HETATM   13  C   UNL     1       5.484  36.700  63.758  1.00  0.00     0.024 A 
HETATM   14  H   UNL     1       2.809  34.630  64.033  1.00  0.00     0.318 HD
HETATM   15  H   UNL     1       4.615  33.911  60.897  1.00  0.00     0.136 HD
ENDROOT
BRANCH  12  16
HETATM   16  C   UNL     1       6.244  39.102  63.877  1.00  0.00    -0.026 A 
HETATM   17  C   UNL     1       5.757  39.392  65.167  1.00  0.00     0.015 A 
HETATM   18  C   UNL     1       6.205  40.507  65.882  1.00  0.00     0.037 A 
HETATM   19  C   UNL     1       7.155  41.344  65.314  1.00  0.00     0.065 A 
HETATM   20  C   UNL     1       7.662  41.083  64.049  1.00  0.00     0.037 A 
HETATM   21  C   UNL     1       7.209  39.969  63.335  1.00  0.00     0.015 A 
BRANCH  19  22
HETATM   22  O   UNL     1       7.618  42.445  65.972  1.00  0.00    -0.361 OA
HETATM   23  H   UNL     1       7.777  43.149  65.323  1.00  0.00     0.217 HD
ENDBRANCH  19  22
ENDBRANCH  12  16
BRANCH   2  24
HETATM   24  C   UNL     1       5.219  34.213  65.319  1.00  0.00    -0.016 A 
HETATM   25  C   UNL     1       4.273  34.475  66.338  1.00  0.00     0.010 A 
HETATM   26  C   UNL     1       4.642  34.537  67.685  1.00  0.00     0.001 A 
HETATM   27  C   UNL     1       5.969  34.348  68.052  1.00  0.00     0.000 A 
HETATM   28  C   UNL     1       6.924  34.092  67.074  1.00  0.00     0.001 A 
HETATM   29  C   UNL     1       6.555  34.025  65.726  1.00  0.00     0.010 A 
ENDBRANCH   2  24
TORSDOF 3
ENDMDL
MODEL 8
REMARK VINA RESULT:      -7.8      6.599      8.952
REMARK  3 active torsions:
REMARK  status: ('A' for Active; 'I' for Inactive)
REMARK    1  A    between atoms: C_2  and  C_3 
REMARK    2  A    between atoms: C_18  and  C_19 
REMARK    3  A    between atoms: C_22  and  O_23 
ROOT
HETATM    1  C   UNL     1       3.684  32.115  61.849  1.00  0.00     0.060 C 
HETATM    2  C   UNL     1       4.794  32.961  61.150  1.00  0.00     0.210 C 
HETATM    3  N   UNL     1       4.344  34.369  60.981  1.00  0.00     0.110 N 
HETATM    4  C   UNL     1       3.028  34.631  60.384  1.00  0.00     0.367 C 
HETATM    5  C   UNL     1       2.994  34.206  58.921  1.00  0.00     0.230 C 
HETATM    6  O   UNL     1       3.107  35.000  57.992  1.00  0.00    -0.278 OA
HETATM    7  N   UNL     1       2.957  32.825  58.751  1.00  0.00    -0.227 NA
HETATM    8  C   UNL     1       4.250  32.248  58.697  1.00  0.00     0.024 A 
HETATM    9  C   UNL     1       5.175  32.355  59.762  1.00  0.00     0.007 A 
HETATM   10  C   UNL     1       4.592  31.661  57.476  1.00  0.00     0.025 A 
HETATM   11  C   UNL     1       5.883  31.191  57.261  1.00  0.00     0.014 A 
HETATM   12  C   UNL     1       6.868  31.335  58.244  1.00  0.00    -0.025 A 
HETATM   13  C   UNL     1       6.495  31.928  59.472  1.00  0.00     0.024 A 
HETATM   14  H   UNL     1       5.050  34.849  60.417  1.00  0.00     0.318 HD
HETATM   15  H   UNL     1       2.435  32.410  59.509  1.00  0.00     0.136 HD
ENDROOT
BRANCH  12  16
HETATM   16  C   UNL     1       8.255  30.890  57.993  1.00  0.00    -0.026 A 
HETATM   17  C   UNL     1       9.347  31.548  58.592  1.00  0.00     0.015 A 
HETATM   18  C   UNL     1      10.665  31.150  58.343  1.00  0.00     0.037 A 
HETATM   19  C   UNL     1      10.903  30.078  57.493  1.00  0.00     0.065 A 
HETATM   20  C   UNL     1       9.850  29.402  56.894  1.00  0.00     0.037 A 
HETATM   21  C   UNL     1       8.535  29.806  57.143  1.00  0.00     0.015 A 
BRANCH  19  22
HETATM   22  O   UNL     1      12.171  29.657  57.219  1.00  0.00    -0.361 OA
HETATM   23  H   UNL     1      12.237  28.714  57.436  1.00  0.00     0.217 HD
ENDBRANCH  19  22
ENDBRANCH  12  16
BRANCH   2  24
HETATM   24  C   UNL     1       5.975  32.943  62.191  1.00  0.00    -0.016 A 
HETATM   25  C   UNL     1       5.924  33.739  63.361  1.00  0.00     0.010 A 
HETATM   26  C   UNL     1       6.980  33.765  64.277  1.00  0.00     0.001 A 
HETATM   27  C   UNL     1       8.121  33.006  64.046  1.00  0.00     0.000 A 
HETATM   28  C   UNL     1       8.204  32.217  62.905  1.00  0.00     0.001 A 
HETATM   29  C   UNL     1       7.146  32.185  61.990  1.00  0.00     0.010 A 
ENDBRANCH   2  24
TORSDOF 3
ENDMDL
MODEL 9
REMARK VINA RESULT:      -7.8      7.030     10.239
REMARK  3 active torsions:
REMARK  status: ('A' for Active; 'I' for Inactive)
REMARK    1  A    between atoms: C_2  and  C_3 
REMARK    2  A    between atoms: C_18  and  C_19 
REMARK    3  A    between atoms: C_22  and  O_23 
ROOT
HETATM    1  C   UNL     1       4.707  35.592  60.857  1.00  0.00     0.060 C 
HETATM    2  C   UNL     1       4.658  34.039  60.705  1.00  0.00     0.210 C 
HETATM    3  N   UNL     1       3.604  33.465  61.583  1.00  0.00     0.110 N 
HETATM    4  C   UNL     1       3.561  33.857  62.997  1.00  0.00     0.367 C 
HETATM    5  C   UNL     1       4.784  33.342  63.747  1.00  0.00     0.230 C 
HETATM    6  O   UNL     1       4.760  32.342  64.458  1.00  0.00    -0.278 OA
HETATM    7  N   UNL     1       5.950  34.038  63.440  1.00  0.00    -0.227 NA
HETATM    8  C   UNL     1       6.632  33.491  62.324  1.00  0.00     0.024 A 
HETATM    9  C   UNL     1       6.040  33.395  61.044  1.00  0.00     0.007 A 
HETATM   10  C   UNL     1       7.891  32.950  62.601  1.00  0.00     0.025 A 
HETATM   11  C   UNL     1       8.590  32.261  61.615  1.00  0.00     0.014 A 
HETATM   12  C   UNL     1       8.028  32.062  60.349  1.00  0.00    -0.025 A 
HETATM   13  C   UNL     1       6.756  32.624  60.094  1.00  0.00     0.024 A 
HETATM   14  H   UNL     1       3.690  32.446  61.538  1.00  0.00     0.318 HD
HETATM   15  H   UNL     1       5.722  35.004  63.254  1.00  0.00     0.136 HD
ENDROOT
BRANCH  12  16
HETATM   16  C   UNL     1       8.745  31.278  59.321  1.00  0.00    -0.026 A 
HETATM   17  C   UNL     1       9.969  31.728  58.789  1.00  0.00     0.015 A 
HETATM   18  C   UNL     1      10.644  31.006  57.800  1.00  0.00     0.037 A 
HETATM   19  C   UNL     1      10.099  29.817  57.333  1.00  0.00     0.065 A 
HETATM   20  C   UNL     1       8.899  29.341  57.842  1.00  0.00     0.037 A 
HETATM   21  C   UNL     1       8.226  30.068  58.829  1.00  0.00     0.015 A 
BRANCH  19  22
HETATM   22  O   UNL     1      10.718  29.082  56.367  1.00  0.00    -0.361 OA
HETATM   23  H   UNL     1      10.363  29.345  55.502  1.00  0.00     0.217 HD
ENDBRANCH  19  22
ENDBRANCH  12  16
BRANCH   2  24
HETATM   24  C   UNL     1       4.218  33.833  59.207  1.00  0.00    -0.016 A 
HETATM   25  C   UNL     1       4.183  34.923  58.305  1.00  0.00     0.010 A 
HETATM   26  C   UNL     1       3.758  34.768  56.981  1.00  0.00     0.001 A 
HETATM   27  C   UNL     1       3.346  33.522  56.525  1.00  0.00     0.000 A 
HETATM   28  C   UNL     1       3.365  32.431  57.387  1.00  0.00     0.001 A 
HETATM   29  C   UNL     1       3.795  32.584  58.710  1.00  0.00     0.010 A 
ENDBRANCH   2  24
TORSDOF 3
ENDMDL
MODEL 10
REMARK VINA RESULT:      -7.8     10.973     14.645
REMARK  3 active torsions:
REMARK  status: ('A' for Active; 'I' for Inactive)
REMARK    1  A    between atoms: C_2  and  C_3 
REMARK    2  A    between atoms: C_18  and  C_19 
REMARK    3  A    between atoms: C_22  and  O_23 
ROOT
HETATM    1  C   UNL     1       5.331  33.400  60.549  1.00  0.00     0.060 C 
HETATM    2  C   UNL     1       4.670  34.299  61.641  1.00  0.00     0.210 C 
HETATM    3  N   UNL     1       3.271  33.863  61.894  1.00  0.00     0.110 N 
HETATM    4  C   UNL     1       2.366  33.668  60.754  1.00  0.00     0.367 C 
HETATM    5  C   UNL     1       2.068  34.990  60.058  1.00  0.00     0.230 C 
HETATM    6  O   UNL     1       1.029  35.619  60.236  1.00  0.00    -0.278 OA
HETATM    7  N   UNL     1       3.139  35.473  59.311  1.00  0.00    -0.227 NA
HETATM    8  C   UNL     1       4.014  36.284  60.076  1.00  0.00     0.024 A 
HETATM    9  C   UNL     1       4.689  35.803  61.222  1.00  0.00     0.007 A 
HETATM   10  C   UNL     1       4.078  37.625  59.686  1.00  0.00     0.025 A 
HETATM   11  C   UNL     1       4.792  38.543  60.449  1.00  0.00     0.014 A 
HETATM   12  C   UNL     1       5.419  38.150  61.636  1.00  0.00    -0.025 A 
HETATM   13  C   UNL     1       5.343  36.787  62.005  1.00  0.00     0.024 A 
HETATM   14  H   UNL     1       2.846  34.549  62.523  1.00  0.00     0.318 HD
HETATM   15  H   UNL     1       3.653  34.693  58.926  1.00  0.00     0.136 HD
ENDROOT
BRANCH  12  16
HETATM   16  C   UNL     1       6.127  39.137  62.478  1.00  0.00    -0.026 A 
HETATM   17  C   UNL     1       5.884  39.216  63.863  1.00  0.00     0.015 A 
HETATM   18  C   UNL     1       6.532  40.162  64.665  1.00  0.00     0.037 A 
HETATM   19  C   UNL     1       7.439  41.039  64.086  1.00  0.00     0.065 A 
HETATM   20  C   UNL     1       7.708  40.983  62.726  1.00  0.00     0.037 A 
HETATM   21  C   UNL     1       7.056  40.038  61.927  1.00  0.00     0.015 A 
BRANCH  19  22
HETATM   22  O   UNL     1       8.090  41.980  64.827  1.00  0.00    -0.361 OA
HETATM   23  H   UNL     1       7.429  42.531  65.277  1.00  0.00     0.217 HD
ENDBRANCH  19  22
ENDBRANCH  12  16
BRANCH   2  24
HETATM   24  C   UNL     1       5.522  33.993  62.930  1.00  0.00    -0.016 A 
HETATM   25  C   UNL     1       6.858  33.537  62.824  1.00  0.00     0.010 A 
HETATM   26  C   UNL     1       7.618  33.224  63.955  1.00  0.00     0.001 A 
HETATM   27  C   UNL     1       7.062  33.346  65.223  1.00  0.00     0.000 A 
HETATM   28  C   UNL     1       5.751  33.788  65.361  1.00  0.00     0.001 A 
HETATM   29  C   UNL     1       4.991  34.107  64.230  1.00  0.00     0.010 A 
ENDBRANCH   2  24
TORSDOF 3
ENDMDL
