MODEL 1
REMARK VINA RESULT:      -9.0      0.000      0.000
REMARK  6 active torsions:
REMARK  status: ('A' for Active; 'I' for Inactive)
REMARK    1  A    between atoms: C_3  and  C_4 
REMARK       I    between atoms: C_4  and  N_5 
REMARK    2  A    between atoms: N_5  and  C_6 
REMARK    3  A    between atoms: C_6  and  C_7 
REMARK    4  A    between atoms: C_7  and  N_8 
REMARK    5  A    between atoms: C_7  and  C_14 
REMARK    6  A    between atoms: C_21  and  C_22 
ROOT
HETATM    1  C   UNL     1       6.177  28.159  56.753  1.00  0.00     0.272 C 
HETATM    2  N   UNL     1       7.230  29.019  56.513  1.00  0.00    -0.354 N 
HETATM    3  O   UNL     1       5.282  28.464  57.543  1.00  0.00    -0.266 OA
HETATM    4  H   UNL     1       7.952  28.625  55.906  1.00  0.00     0.162 HD
ENDROOT
BRANCH   1   5
HETATM    5  C   UNL     1       6.223  26.930  55.949  1.00  0.00     0.152 A 
HETATM    6  C   UNL     1       7.109  25.817  56.074  1.00  0.00     0.003 A 
HETATM    7  C   UNL     1       8.203  25.649  57.065  1.00  0.00     0.053 C 
HETATM    8  C   UNL     1       6.722  24.941  55.071  1.00  0.00     0.069 A 
HETATM    9  N   UNL     1       5.679  25.555  54.429  1.00  0.00    -0.276 N 
HETATM   10  N   UNL     1       5.342  26.750  54.945  1.00  0.00    -0.168 NA
HETATM   11  H   UNL     1       5.168  25.208  53.624  1.00  0.00     0.189 HD
BRANCH   8  12
HETATM   12  C   UNL     1       7.236  23.643  54.646  1.00  0.00    -0.007 A 
HETATM   13  C   UNL     1       7.527  23.399  53.299  1.00  0.00     0.014 A 
HETATM   14  C   UNL     1       8.008  22.153  52.891  1.00  0.00     0.001 A 
HETATM   15  C   UNL     1       8.201  21.139  53.827  1.00  0.00     0.000 A 
HETATM   16  C   UNL     1       7.916  21.371  55.172  1.00  0.00     0.001 A 
HETATM   17  C   UNL     1       7.434  22.616  55.580  1.00  0.00     0.014 A 
ENDBRANCH   8  12
ENDBRANCH   1   5
BRANCH   2  18
HETATM   18  C   UNL     1       7.532  30.114  57.408  1.00  0.00     0.156 C 
BRANCH  18  19
HETATM   19  C   UNL     1       8.515  29.773  58.567  1.00  0.00     0.209 C 
BRANCH  19  20
HETATM   20  N   UNL     1       7.996  30.390  59.882  1.00  0.00    -0.065 N 
HETATM   21  H   UNL     1       7.292  29.703  60.226  1.00  0.00     0.280 HD
HETATM   22  C   UNL     1       7.196  31.682  59.873  1.00  0.00     0.235 C 
HETATM   23  C   UNL     1       7.938  32.606  60.820  1.00  0.00     0.029 C 
HETATM   24  C   UNL     1       8.535  31.657  61.839  1.00  0.00     0.029 C 
HETATM   25  C   UNL     1       9.010  30.488  61.000  1.00  0.00     0.235 C 
ENDBRANCH  19  20
BRANCH  19  26
HETATM   26  C   UNL     1      10.016  30.074  58.270  1.00  0.00     0.010 C 
HETATM   27  C   UNL     1      10.512  29.359  57.007  1.00  0.00     0.011 C 
HETATM   28  C   UNL     1      10.290  31.576  58.087  1.00  0.00     0.011 C 
ENDBRANCH  19  26
ENDBRANCH  18  19
ENDBRANCH   2  18
TORSDOF 6
ENDMDL
MODEL 2
REMARK VINA RESULT:      -8.8      1.533      2.086
REMARK  6 active torsions:
REMARK  status: ('A' for Active; 'I' for Inactive)
REMARK    1  A    between atoms: C_3  and  C_4 
REMARK       I    between atoms: C_4  and  N_5 
REMARK    2  A    between atoms: N_5  and  C_6 
REMARK    3  A    between atoms: C_6  and  C_7 
REMARK    4  A    between atoms: C_7  and  N_8 
REMARK    5  A    between atoms: C_7  and  C_14 
REMARK    6  A    between atoms: C_21  and  C_22 
ROOT
HETATM    1  C   UNL     1       6.812  27.437  57.339  1.00  0.00     0.272 C 
HETATM    2  N   UNL     1       7.781  28.346  57.716  1.00  0.00    -0.354 N 
HETATM    3  O   UNL     1       5.638  27.788  57.204  1.00  0.00    -0.266 OA
HETATM    4  H   UNL     1       8.698  27.924  57.877  1.00  0.00     0.162 HD
ENDROOT
BRANCH   1   5
HETATM    5  C   UNL     1       7.335  26.089  57.076  1.00  0.00     0.152 A 
HETATM    6  C   UNL     1       7.079  25.239  55.958  1.00  0.00     0.003 A 
HETATM    7  C   UNL     1       6.212  25.532  54.788  1.00  0.00     0.053 C 
HETATM    8  C   UNL     1       7.813  24.089  56.212  1.00  0.00     0.069 A 
HETATM    9  N   UNL     1       8.432  24.307  57.414  1.00  0.00    -0.276 N 
HETATM   10  N   UNL     1       8.177  25.511  57.955  1.00  0.00    -0.168 NA
HETATM   11  H   UNL     1       9.031  23.661  57.919  1.00  0.00     0.189 HD
BRANCH   8  12
HETATM   12  C   UNL     1       7.963  22.836  55.479  1.00  0.00    -0.007 A 
HETATM   13  C   UNL     1       7.820  21.608  56.135  1.00  0.00     0.014 A 
HETATM   14  C   UNL     1       7.974  20.408  55.437  1.00  0.00     0.001 A 
HETATM   15  C   UNL     1       8.274  20.426  54.077  1.00  0.00     0.000 A 
HETATM   16  C   UNL     1       8.417  21.643  53.412  1.00  0.00     0.001 A 
HETATM   17  C   UNL     1       8.264  22.843  54.110  1.00  0.00     0.014 A 
ENDBRANCH   8  12
ENDBRANCH   1   5
BRANCH   2  18
HETATM   18  C   UNL     1       7.436  29.618  58.310  1.00  0.00     0.156 C 
BRANCH  18  19
HETATM   19  C   UNL     1       8.507  30.214  59.272  1.00  0.00     0.209 C 
BRANCH  19  20
HETATM   20  N   UNL     1       7.827  30.678  60.577  1.00  0.00    -0.065 N 
HETATM   21  H   UNL     1       7.087  29.964  60.747  1.00  0.00     0.280 HD
HETATM   22  C   UNL     1       7.031  31.972  60.622  1.00  0.00     0.235 C 
HETATM   23  C   UNL     1       7.647  32.768  61.757  1.00  0.00     0.029 C 
HETATM   24  C   UNL     1       8.116  31.698  62.722  1.00  0.00     0.029 C 
HETATM   25  C   UNL     1       8.694  30.630  61.815  1.00  0.00     0.235 C 
ENDBRANCH  19  20
BRANCH  19  26
HETATM   26  C   UNL     1       9.451  31.277  58.632  1.00  0.00     0.010 C 
HETATM   27  C   UNL     1      10.394  31.911  59.662  1.00  0.00     0.011 C 
HETATM   28  C   UNL     1      10.322  30.691  57.509  1.00  0.00     0.011 C 
ENDBRANCH  19  26
ENDBRANCH  18  19
ENDBRANCH   2  18
TORSDOF 6
ENDMDL
MODEL 3
REMARK VINA RESULT:      -8.6      1.729      8.752
REMARK  6 active torsions:
REMARK  status: ('A' for Active; 'I' for Inactive)
REMARK    1  A    between atoms: C_3  and  C_4 
REMARK       I    between atoms: C_4  and  N_5 
REMARK    2  A    between atoms: N_5  and  C_6 
REMARK    3  A    between atoms: C_6  and  C_7 
REMARK    4  A    between atoms: C_7  and  N_8 
REMARK    5  A    between atoms: C_7  and  C_14 
REMARK    6  A    between atoms: C_21  and  C_22 
ROOT
HETATM    1  C   UNL     1       7.832  28.091  55.273  1.00  0.00     0.272 C 
HETATM    2  N   UNL     1       7.422  26.772  55.297  1.00  0.00    -0.354 N 
HETATM    3  O   UNL     1       8.345  28.573  54.261  1.00  0.00    -0.266 OA
HETATM    4  H   UNL     1       7.090  26.463  56.213  1.00  0.00     0.162 HD
ENDROOT
BRANCH   1   5
HETATM    5  C   UNL     1       7.544  28.823  56.514  1.00  0.00     0.152 A 
HETATM    6  C   UNL     1       8.454  29.509  57.374  1.00  0.00     0.003 A 
HETATM    7  C   UNL     1       9.924  29.642  57.201  1.00  0.00     0.053 C 
HETATM    8  C   UNL     1       7.664  30.016  58.395  1.00  0.00     0.069 A 
HETATM    9  N   UNL     1       6.387  29.615  58.104  1.00  0.00    -0.276 N 
HETATM   10  N   UNL     1       6.278  28.907  56.966  1.00  0.00    -0.168 NA
HETATM   11  H   UNL     1       5.552  29.788  58.654  1.00  0.00     0.189 HD
BRANCH   8  12
HETATM   12  C   UNL     1       7.980  30.785  59.594  1.00  0.00    -0.007 A 
HETATM   13  C   UNL     1       9.040  30.404  60.425  1.00  0.00     0.014 A 
HETATM   14  C   UNL     1       9.334  31.134  61.579  1.00  0.00     0.001 A 
HETATM   15  C   UNL     1       8.571  32.250  61.912  1.00  0.00     0.000 A 
HETATM   16  C   UNL     1       7.514  32.640  61.092  1.00  0.00     0.001 A 
HETATM   17  C   UNL     1       7.218  31.911  59.938  1.00  0.00     0.014 A 
ENDBRANCH   8  12
ENDBRANCH   1   5
BRANCH   2  18
HETATM   18  C   UNL     1       7.884  25.818  54.314  1.00  0.00     0.156 C 
BRANCH  18  19
HETATM   19  C   UNL     1       7.002  24.542  54.162  1.00  0.00     0.209 C 
BRANCH  19  20
HETATM   20  N   UNL     1       7.876  23.286  54.351  1.00  0.00    -0.065 N 
HETATM   21  H   UNL     1       8.802  23.661  54.647  1.00  0.00     0.280 HD
HETATM   22  C   UNL     1       8.255  22.415  53.164  1.00  0.00     0.235 C 
HETATM   23  C   UNL     1       7.802  21.019  53.545  1.00  0.00     0.029 C 
HETATM   24  C   UNL     1       7.955  20.999  55.052  1.00  0.00     0.029 C 
HETATM   25  C   UNL     1       7.459  22.367  55.477  1.00  0.00     0.235 C 
ENDBRANCH  19  20
BRANCH  19  26
HETATM   26  C   UNL     1       6.104  24.509  52.888  1.00  0.00     0.010 C 
HETATM   27  C   UNL     1       4.671  24.974  53.176  1.00  0.00     0.011 C 
HETATM   28  C   UNL     1       6.655  25.391  51.755  1.00  0.00     0.011 C 
ENDBRANCH  19  26
ENDBRANCH  18  19
ENDBRANCH   2  18
TORSDOF 6
ENDMDL
MODEL 4
REMARK VINA RESULT:      -8.6      5.528      8.084
REMARK  6 active torsions:
REMARK  status: ('A' for Active; 'I' for Inactive)
REMARK    1  A    between atoms: C_3  and  C_4 
REMARK       I    between atoms: C_4  and  N_5 
REMARK    2  A    between atoms: N_5  and  C_6 
REMARK    3  A    between atoms: C_6  and  C_7 
REMARK    4  A    between atoms: C_7  and  N_8 
REMARK    5  A    between atoms: C_7  and  C_14 
REMARK    6  A    between atoms: C_21  and  C_22 
ROOT
HETATM    1  C   UNL     1       5.658  27.274  52.749  1.00  0.00     0.272 C 
HETATM    2  N   UNL     1       4.470  27.265  52.045  1.00  0.00    -0.354 N 
HETATM    3  O   UNL     1       6.049  28.299  53.311  1.00  0.00    -0.266 OA
HETATM    4  H   UNL     1       4.292  26.387  51.553  1.00  0.00     0.162 HD
ENDROOT
BRANCH   1   5
HETATM    5  C   UNL     1       6.331  25.969  52.791  1.00  0.00     0.152 A 
HETATM    6  C   UNL     1       6.325  24.999  53.839  1.00  0.00     0.003 A 
HETATM    7  C   UNL     1       5.622  25.093  55.144  1.00  0.00     0.053 C 
HETATM    8  C   UNL     1       7.117  23.963  53.367  1.00  0.00     0.069 A 
HETATM    9  N   UNL     1       7.538  24.358  52.125  1.00  0.00    -0.276 N 
HETATM   10  N   UNL     1       7.068  25.557  51.741  1.00  0.00    -0.168 NA
HETATM   11  H   UNL     1       8.157  23.852  51.500  1.00  0.00     0.189 HD
BRANCH   8  12
HETATM   12  C   UNL     1       7.533  22.694  53.958  1.00  0.00    -0.007 A 
HETATM   13  C   UNL     1       7.598  22.544  55.348  1.00  0.00     0.014 A 
HETATM   14  C   UNL     1       8.006  21.334  55.913  1.00  0.00     0.001 A 
HETATM   15  C   UNL     1       8.355  20.264  55.092  1.00  0.00     0.000 A 
HETATM   16  C   UNL     1       8.293  20.401  53.706  1.00  0.00     0.001 A 
HETATM   17  C   UNL     1       7.885  21.611  53.141  1.00  0.00     0.014 A 
ENDBRANCH   8  12
ENDBRANCH   1   5
BRANCH   2  18
HETATM   18  C   UNL     1       3.827  28.491  51.629  1.00  0.00     0.156 C 
BRANCH  18  19
HETATM   19  C   UNL     1       3.692  28.680  50.088  1.00  0.00     0.209 C 
BRANCH  19  20
HETATM   20  N   UNL     1       3.091  27.405  49.462  1.00  0.00    -0.065 N 
HETATM   21  H   UNL     1       2.733  26.865  50.278  1.00  0.00     0.280 HD
HETATM   22  C   UNL     1       3.980  26.382  48.774  1.00  0.00     0.235 C 
HETATM   23  C   UNL     1       3.386  26.220  47.388  1.00  0.00     0.029 C 
HETATM   24  C   UNL     1       1.907  26.460  47.610  1.00  0.00     0.029 C 
HETATM   25  C   UNL     1       1.878  27.620  48.585  1.00  0.00     0.235 C 
ENDBRANCH  19  20
BRANCH  19  26
HETATM   26  C   UNL     1       4.977  29.198  49.372  1.00  0.00     0.010 C 
HETATM   27  C   UNL     1       4.658  29.910  48.051  1.00  0.00     0.011 C 
HETATM   28  C   UNL     1       5.781  30.179  50.240  1.00  0.00     0.011 C 
ENDBRANCH  19  26
ENDBRANCH  18  19
ENDBRANCH   2  18
TORSDOF 6
ENDMDL
MODEL 5
REMARK VINA RESULT:      -8.5      1.790      2.225
REMARK  6 active torsions:
REMARK  status: ('A' for Active; 'I' for Inactive)
REMARK    1  A    between atoms: C_3  and  C_4 
REMARK       I    between atoms: C_4  and  N_5 
REMARK    2  A    between atoms: N_5  and  C_6 
REMARK    3  A    between atoms: C_6  and  C_7 
REMARK    4  A    between atoms: C_7  and  N_8 
REMARK    5  A    between atoms: C_7  and  C_14 
REMARK    6  A    between atoms: C_21  and  C_22 
ROOT
HETATM    1  C   UNL     1       7.461  28.529  57.006  1.00  0.00     0.272 C 
HETATM    2  N   UNL     1       7.712  29.056  58.257  1.00  0.00    -0.354 N 
HETATM    3  O   UNL     1       7.183  29.264  56.057  1.00  0.00    -0.266 OA
HETATM    4  H   UNL     1       7.848  28.348  58.981  1.00  0.00     0.162 HD
ENDROOT
BRANCH   1   5
HETATM    5  C   UNL     1       7.617  27.069  56.937  1.00  0.00     0.152 A 
HETATM    6  C   UNL     1       7.605  26.227  55.784  1.00  0.00     0.003 A 
HETATM    7  C   UNL     1       7.431  26.645  54.369  1.00  0.00     0.053 C 
HETATM    8  C   UNL     1       7.787  24.944  56.280  1.00  0.00     0.069 A 
HETATM    9  N   UNL     1       7.886  25.087  57.639  1.00  0.00    -0.276 N 
HETATM   10  N   UNL     1       7.803  26.359  58.067  1.00  0.00    -0.168 NA
HETATM   11  H   UNL     1       7.999  24.347  58.325  1.00  0.00     0.189 HD
BRANCH   8  12
HETATM   12  C   UNL     1       7.844  23.638  55.633  1.00  0.00    -0.007 A 
HETATM   13  C   UNL     1       7.615  23.515  54.258  1.00  0.00     0.014 A 
HETATM   14  C   UNL     1       7.658  22.263  53.640  1.00  0.00     0.001 A 
HETATM   15  C   UNL     1       7.930  21.122  54.394  1.00  0.00     0.000 A 
HETATM   16  C   UNL     1       8.160  21.233  55.764  1.00  0.00     0.001 A 
HETATM   17  C   UNL     1       8.117  22.484  56.382  1.00  0.00     0.014 A 
ENDBRANCH   8  12
ENDBRANCH   1   5
BRANCH   2  18
HETATM   18  C   UNL     1       7.318  30.404  58.603  1.00  0.00     0.156 C 
BRANCH  18  19
HETATM   19  C   UNL     1       7.916  30.949  59.936  1.00  0.00     0.209 C 
BRANCH  19  20
HETATM   20  N   UNL     1       6.775  31.456  60.843  1.00  0.00    -0.065 N 
HETATM   21  H   UNL     1       5.993  30.792  60.663  1.00  0.00     0.280 HD
HETATM   22  C   UNL     1       6.115  32.800  60.584  1.00  0.00     0.235 C 
HETATM   23  C   UNL     1       6.238  33.553  61.895  1.00  0.00     0.029 C 
HETATM   24  C   UNL     1       6.188  32.453  62.937  1.00  0.00     0.029 C 
HETATM   25  C   UNL     1       7.032  31.350  62.329  1.00  0.00     0.235 C 
ENDBRANCH  19  20
BRANCH  19  26
HETATM   26  C   UNL     1       9.093  31.956  59.767  1.00  0.00     0.010 C 
HETATM   27  C   UNL     1       9.964  32.046  61.027  1.00  0.00     0.011 C 
HETATM   28  C   UNL     1      10.017  31.591  58.593  1.00  0.00     0.011 C 
ENDBRANCH  19  26
ENDBRANCH  18  19
ENDBRANCH   2  18
TORSDOF 6
ENDMDL
MODEL 6
REMARK VINA RESULT:      -8.3      5.086      7.633
REMARK  6 active torsions:
REMARK  status: ('A' for Active; 'I' for Inactive)
REMARK    1  A    between atoms: C_3  and  C_4 
REMARK       I    between atoms: C_4  and  N_5 
REMARK    2  A    between atoms: N_5  and  C_6 
REMARK    3  A    between atoms: C_6  and  C_7 
REMARK    4  A    between atoms: C_7  and  N_8 
REMARK    5  A    between atoms: C_7  and  C_14 
REMARK    6  A    between atoms: C_21  and  C_22 
ROOT
HETATM    1  C   UNL     1       6.176  27.342  53.375  1.00  0.00     0.272 C 
HETATM    2  N   UNL     1       5.446  27.350  52.202  1.00  0.00    -0.354 N 
HETATM    3  O   UNL     1       6.537  28.396  53.899  1.00  0.00    -0.266 OA
HETATM    4  H   UNL     1       5.276  26.418  51.819  1.00  0.00     0.162 HD
ENDROOT
BRANCH   1   5
HETATM    5  C   UNL     1       6.403  25.996  53.921  1.00  0.00     0.152 A 
HETATM    6  C   UNL     1       7.224  24.951  53.398  1.00  0.00     0.003 A 
HETATM    7  C   UNL     1       8.049  24.991  52.163  1.00  0.00     0.053 C 
HETATM    8  C   UNL     1       7.075  23.902  54.293  1.00  0.00     0.069 A 
HETATM    9  N   UNL     1       6.209  24.357  55.251  1.00  0.00    -0.276 N 
HETATM   10  N   UNL     1       5.797  25.624  55.065  1.00  0.00    -0.168 NA
HETATM   11  H   UNL     1       5.855  23.841  56.050  1.00  0.00     0.189 HD
BRANCH   8  12
HETATM   12  C   UNL     1       7.620  22.549  54.322  1.00  0.00    -0.007 A 
HETATM   13  C   UNL     1       7.888  21.916  55.542  1.00  0.00     0.014 A 
HETATM   14  C   UNL     1       8.421  20.626  55.570  1.00  0.00     0.001 A 
HETATM   15  C   UNL     1       8.691  19.956  54.378  1.00  0.00     0.000 A 
HETATM   16  C   UNL     1       8.427  20.575  53.157  1.00  0.00     0.001 A 
HETATM   17  C   UNL     1       7.895  21.867  53.129  1.00  0.00     0.014 A 
ENDBRANCH   8  12
ENDBRANCH   1   5
BRANCH   2  18
HETATM   18  C   UNL     1       5.384  28.522  51.358  1.00  0.00     0.156 C 
BRANCH  18  19
HETATM   19  C   UNL     1       3.983  28.826  50.747  1.00  0.00     0.209 C 
BRANCH  19  20
HETATM   20  N   UNL     1       3.998  28.503  49.238  1.00  0.00    -0.065 N 
HETATM   21  H   UNL     1       3.305  29.164  48.829  1.00  0.00     0.280 HD
HETATM   22  C   UNL     1       3.497  27.164  48.724  1.00  0.00     0.235 C 
HETATM   23  C   UNL     1       4.647  26.606  47.906  1.00  0.00     0.029 C 
HETATM   24  C   UNL     1       5.318  27.847  47.354  1.00  0.00     0.029 C 
HETATM   25  C   UNL     1       5.292  28.814  48.520  1.00  0.00     0.235 C 
ENDBRANCH  19  20
BRANCH  19  26
HETATM   26  C   UNL     1       3.403  30.231  51.093  1.00  0.00     0.010 C 
HETATM   27  C   UNL     1       2.009  30.448  50.488  1.00  0.00     0.011 C 
HETATM   28  C   UNL     1       3.288  30.464  52.608  1.00  0.00     0.011 C 
ENDBRANCH  19  26
ENDBRANCH  18  19
ENDBRANCH   2  18
TORSDOF 6
ENDMDL
MODEL 7
REMARK VINA RESULT:      -8.2      1.963      3.339
REMARK  6 active torsions:
REMARK  status: ('A' for Active; 'I' for Inactive)
REMARK    1  A    between atoms: C_3  and  C_4 
REMARK       I    between atoms: C_4  and  N_5 
REMARK    2  A    between atoms: N_5  and  C_6 
REMARK    3  A    between atoms: C_6  and  C_7 
REMARK    4  A    between atoms: C_7  and  N_8 
REMARK    5  A    between atoms: C_7  and  C_14 
REMARK    6  A    between atoms: C_21  and  C_22 
ROOT
HETATM    1  C   UNL     1       7.755  29.704  57.551  1.00  0.00     0.272 C 
HETATM    2  N   UNL     1       6.581  30.182  58.097  1.00  0.00    -0.354 N 
HETATM    3  O   UNL     1       8.717  30.452  57.372  1.00  0.00    -0.266 OA
HETATM    4  H   UNL     1       5.828  29.491  58.120  1.00  0.00     0.162 HD
ENDROOT
BRANCH   1   5
HETATM    5  C   UNL     1       7.737  28.259  57.281  1.00  0.00     0.152 A 
HETATM    6  C   UNL     1       7.753  27.590  56.019  1.00  0.00     0.003 A 
HETATM    7  C   UNL     1       7.796  28.216  54.673  1.00  0.00     0.053 C 
HETATM    8  C   UNL     1       7.719  26.240  56.334  1.00  0.00     0.069 A 
HETATM    9  N   UNL     1       7.679  26.182  57.702  1.00  0.00    -0.276 N 
HETATM   10  N   UNL     1       7.705  27.384  58.304  1.00  0.00    -0.168 NA
HETATM   11  H   UNL     1       7.621  25.348  58.278  1.00  0.00     0.189 HD
BRANCH   8  12
HETATM   12  C   UNL     1       7.688  25.037  55.508  1.00  0.00    -0.007 A 
HETATM   13  C   UNL     1       6.810  24.942  54.422  1.00  0.00     0.014 A 
HETATM   14  C   UNL     1       6.773  23.787  53.638  1.00  0.00     0.001 A 
HETATM   15  C   UNL     1       7.613  22.716  53.934  1.00  0.00     0.000 A 
HETATM   16  C   UNL     1       8.492  22.799  55.013  1.00  0.00     0.001 A 
HETATM   17  C   UNL     1       8.530  23.954  55.797  1.00  0.00     0.014 A 
ENDBRANCH   8  12
ENDBRANCH   1   5
BRANCH   2  18
HETATM   18  C   UNL     1       6.289  31.597  58.145  1.00  0.00     0.156 C 
BRANCH  18  19
HETATM   19  C   UNL     1       6.423  32.256  59.551  1.00  0.00     0.209 C 
BRANCH  19  20
HETATM   20  N   UNL     1       7.590  31.601  60.318  1.00  0.00    -0.065 N 
HETATM   21  H   UNL     1       7.697  30.667  59.870  1.00  0.00     0.280 HD
HETATM   22  C   UNL     1       7.448  31.233  61.785  1.00  0.00     0.235 C 
HETATM   23  C   UNL     1       8.608  31.924  62.475  1.00  0.00     0.029 C 
HETATM   24  C   UNL     1       9.690  31.934  61.415  1.00  0.00     0.029 C 
HETATM   25  C   UNL     1       8.937  32.265  60.142  1.00  0.00     0.235 C 
ENDBRANCH  19  20
BRANCH  19  26
HETATM   26  C   UNL     1       5.096  32.348  60.365  1.00  0.00     0.010 C 
HETATM   27  C   UNL     1       4.893  33.736  60.987  1.00  0.00     0.011 C 
HETATM   28  C   UNL     1       3.857  32.041  59.508  1.00  0.00     0.011 C 
ENDBRANCH  19  26
ENDBRANCH  18  19
ENDBRANCH   2  18
TORSDOF 6
ENDMDL
MODEL 8
REMARK VINA RESULT:      -8.2      2.181      3.238
REMARK  6 active torsions:
REMARK  status: ('A' for Active; 'I' for Inactive)
REMARK    1  A    between atoms: C_3  and  C_4 
REMARK       I    between atoms: C_4  and  N_5 
REMARK    2  A    between atoms: N_5  and  C_6 
REMARK    3  A    between atoms: C_6  and  C_7 
REMARK    4  A    between atoms: C_7  and  N_8 
REMARK    5  A    between atoms: C_7  and  C_14 
REMARK    6  A    between atoms: C_21  and  C_22 
ROOT
HETATM    1  C   UNL     1       8.344  29.322  57.904  1.00  0.00     0.272 C 
HETATM    2  N   UNL     1       7.357  29.808  58.739  1.00  0.00    -0.354 N 
HETATM    3  O   UNL     1       9.380  29.962  57.715  1.00  0.00    -0.266 OA
HETATM    4  H   UNL     1       6.512  29.233  58.753  1.00  0.00     0.162 HD
ENDROOT
BRANCH   1   5
HETATM    5  C   UNL     1       8.049  27.994  57.349  1.00  0.00     0.152 A 
HETATM    6  C   UNL     1       7.942  27.607  55.979  1.00  0.00     0.003 A 
HETATM    7  C   UNL     1       8.111  28.475  54.785  1.00  0.00     0.053 C 
HETATM    8  C   UNL     1       7.645  26.252  56.016  1.00  0.00     0.069 A 
HETATM    9  N   UNL     1       7.588  25.925  57.345  1.00  0.00    -0.276 N 
HETATM   10  N   UNL     1       7.843  26.950  58.176  1.00  0.00    -0.168 NA
HETATM   11  H   UNL     1       7.367  25.017  57.742  1.00  0.00     0.189 HD
BRANCH   8  12
HETATM   12  C   UNL     1       7.387  25.272  54.966  1.00  0.00    -0.007 A 
HETATM   13  C   UNL     1       6.306  25.435  54.091  1.00  0.00     0.014 A 
HETATM   14  C   UNL     1       6.052  24.492  53.093  1.00  0.00     0.001 A 
HETATM   15  C   UNL     1       6.877  23.377  52.962  1.00  0.00     0.000 A 
HETATM   16  C   UNL     1       7.957  23.204  53.826  1.00  0.00     0.001 A 
HETATM   17  C   UNL     1       8.211  24.147  54.824  1.00  0.00     0.014 A 
ENDBRANCH   8  12
ENDBRANCH   1   5
BRANCH   2  18
HETATM   18  C   UNL     1       7.314  31.199  59.129  1.00  0.00     0.156 C 
BRANCH  18  19
HETATM   19  C   UNL     1       7.300  31.458  60.666  1.00  0.00     0.209 C 
BRANCH  19  20
HETATM   20  N   UNL     1       6.259  32.547  60.997  1.00  0.00    -0.065 N 
HETATM   21  H   UNL     1       6.832  33.388  61.221  1.00  0.00     0.280 HD
HETATM   22  C   UNL     1       5.375  32.431  62.228  1.00  0.00     0.235 C 
HETATM   23  C   UNL     1       3.958  32.548  61.702  1.00  0.00     0.029 C 
HETATM   24  C   UNL     1       4.104  33.460  60.501  1.00  0.00     0.029 C 
HETATM   25  C   UNL     1       5.382  32.979  59.843  1.00  0.00     0.235 C 
ENDBRANCH  19  20
BRANCH  19  26
HETATM   26  C   UNL     1       8.701  31.698  61.308  1.00  0.00     0.010 C 
HETATM   27  C   UNL     1       9.268  30.429  61.956  1.00  0.00     0.011 C 
HETATM   28  C   UNL     1       9.738  32.196  60.287  1.00  0.00     0.011 C 
ENDBRANCH  19  26
ENDBRANCH  18  19
ENDBRANCH   2  18
TORSDOF 6
ENDMDL
MODEL 9
REMARK VINA RESULT:      -8.2      1.939      3.192
REMARK  6 active torsions:
REMARK  status: ('A' for Active; 'I' for Inactive)
REMARK    1  A    between atoms: C_3  and  C_4 
REMARK       I    between atoms: C_4  and  N_5 
REMARK    2  A    between atoms: N_5  and  C_6 
REMARK    3  A    between atoms: C_6  and  C_7 
REMARK    4  A    between atoms: C_7  and  N_8 
REMARK    5  A    between atoms: C_7  and  C_14 
REMARK    6  A    between atoms: C_21  and  C_22 
ROOT
HETATM    1  C   UNL     1       6.562  30.395  57.967  1.00  0.00     0.272 C 
HETATM    2  N   UNL     1       7.217  30.519  59.176  1.00  0.00    -0.354 N 
HETATM    3  O   UNL     1       6.113  31.386  57.389  1.00  0.00    -0.266 OA
HETATM    4  H   UNL     1       7.470  29.624  59.600  1.00  0.00     0.162 HD
ENDROOT
BRANCH   1   5
HETATM    5  C   UNL     1       6.520  29.018  57.456  1.00  0.00     0.152 A 
HETATM    6  C   UNL     1       7.608  28.181  57.065  1.00  0.00     0.003 A 
HETATM    7  C   UNL     1       9.055  28.520  57.090  1.00  0.00     0.053 C 
HETATM    8  C   UNL     1       7.015  26.995  56.658  1.00  0.00     0.069 A 
HETATM    9  N   UNL     1       5.668  27.185  56.816  1.00  0.00    -0.276 N 
HETATM   10  N   UNL     1       5.336  28.390  57.311  1.00  0.00    -0.168 NA
HETATM   11  H   UNL     1       4.927  26.529  56.590  1.00  0.00     0.189 HD
BRANCH   8  12
HETATM   12  C   UNL     1       7.564  25.753  56.124  1.00  0.00    -0.007 A 
HETATM   13  C   UNL     1       7.402  25.427  54.772  1.00  0.00     0.014 A 
HETATM   14  C   UNL     1       7.917  24.233  54.263  1.00  0.00     0.001 A 
HETATM   15  C   UNL     1       8.598  23.353  55.102  1.00  0.00     0.000 A 
HETATM   16  C   UNL     1       8.767  23.668  56.450  1.00  0.00     0.001 A 
HETATM   17  C   UNL     1       8.252  24.861  56.959  1.00  0.00     0.014 A 
ENDBRANCH   8  12
ENDBRANCH   1   5
BRANCH   2  18
HETATM   18  C   UNL     1       7.098  31.713  59.983  1.00  0.00     0.156 C 
BRANCH  18  19
HETATM   19  C   UNL     1       7.355  31.513  61.507  1.00  0.00     0.209 C 
BRANCH  19  20
HETATM   20  N   UNL     1       6.432  32.451  62.313  1.00  0.00    -0.065 N 
HETATM   21  H   UNL     1       5.650  31.835  62.622  1.00  0.00     0.280 HD
HETATM   22  C   UNL     1       5.687  33.585  61.629  1.00  0.00     0.235 C 
HETATM   23  C   UNL     1       6.078  34.830  62.403  1.00  0.00     0.029 C 
HETATM   24  C   UNL     1       6.298  34.312  63.810  1.00  0.00     0.029 C 
HETATM   25  C   UNL     1       7.019  32.996  63.595  1.00  0.00     0.235 C 
ENDBRANCH  19  20
BRANCH  19  26
HETATM   26  C   UNL     1       8.852  31.567  61.937  1.00  0.00     0.010 C 
HETATM   27  C   UNL     1       9.428  30.172  62.213  1.00  0.00     0.011 C 
HETATM   28  C   UNL     1       9.745  32.232  60.877  1.00  0.00     0.011 C 
ENDBRANCH  19  26
ENDBRANCH  18  19
ENDBRANCH   2  18
TORSDOF 6
ENDMDL
MODEL 10
REMARK VINA RESULT:      -8.2      1.711      2.681
REMARK  6 active torsions:
REMARK  status: ('A' for Active; 'I' for Inactive)
REMARK    1  A    between atoms: C_3  and  C_4 
REMARK       I    between atoms: C_4  and  N_5 
REMARK    2  A    between atoms: N_5  and  C_6 
REMARK    3  A    between atoms: C_6  and  C_7 
REMARK    4  A    between atoms: C_7  and  N_8 
REMARK    5  A    between atoms: C_7  and  C_14 
REMARK    6  A    between atoms: C_21  and  C_22 
ROOT
HETATM    1  C   UNL     1       7.871  27.513  56.924  1.00  0.00     0.272 C 
HETATM    2  N   UNL     1       7.735  28.724  56.275  1.00  0.00    -0.354 N 
HETATM    3  O   UNL     1       8.117  27.469  58.131  1.00  0.00    -0.266 OA
HETATM    4  H   UNL     1       7.616  28.635  55.263  1.00  0.00     0.162 HD
ENDROOT
BRANCH   1   5
HETATM    5  C   UNL     1       7.639  26.348  56.059  1.00  0.00     0.152 A 
HETATM    6  C   UNL     1       8.124  25.014  56.214  1.00  0.00     0.003 A 
HETATM    7  C   UNL     1       8.985  24.494  57.308  1.00  0.00     0.053 C 
HETATM    8  C   UNL     1       7.616  24.323  55.124  1.00  0.00     0.069 A 
HETATM    9  N   UNL     1       6.896  25.243  54.409  1.00  0.00    -0.276 N 
HETATM   10  N   UNL     1       6.877  26.471  54.955  1.00  0.00    -0.168 NA
HETATM   11  H   UNL     1       6.407  25.089  53.533  1.00  0.00     0.189 HD
BRANCH   8  12
HETATM   12  C   UNL     1       7.760  22.939  54.682  1.00  0.00    -0.007 A 
HETATM   13  C   UNL     1       7.654  21.886  55.597  1.00  0.00     0.014 A 
HETATM   14  C   UNL     1       7.803  20.563  55.176  1.00  0.00     0.001 A 
HETATM   15  C   UNL     1       8.059  20.281  53.836  1.00  0.00     0.000 A 
HETATM   16  C   UNL     1       8.165  21.322  52.915  1.00  0.00     0.001 A 
HETATM   17  C   UNL     1       8.017  22.646  53.335  1.00  0.00     0.014 A 
ENDBRANCH   8  12
ENDBRANCH   1   5
BRANCH   2  18
HETATM   18  C   UNL     1       8.218  29.954  56.860  1.00  0.00     0.156 C 
BRANCH  18  19
HETATM   19  C   UNL     1       7.447  30.435  58.126  1.00  0.00     0.209 C 
BRANCH  19  20
HETATM   20  N   UNL     1       6.109  31.075  57.703  1.00  0.00    -0.065 N 
HETATM   21  H   UNL     1       6.292  31.439  56.744  1.00  0.00     0.280 HD
HETATM   22  C   UNL     1       5.577  32.309  58.413  1.00  0.00     0.235 C 
HETATM   23  C   UNL     1       4.182  31.927  58.867  1.00  0.00     0.029 C 
HETATM   24  C   UNL     1       3.721  30.952  57.802  1.00  0.00     0.029 C 
HETATM   25  C   UNL     1       4.954  30.113  57.531  1.00  0.00     0.235 C 
ENDBRANCH  19  20
BRANCH  19  26
HETATM   26  C   UNL     1       8.282  31.300  59.119  1.00  0.00     0.010 C 
HETATM   27  C   UNL     1       8.361  30.667  60.514  1.00  0.00     0.011 C 
HETATM   28  C   UNL     1       9.723  31.526  58.634  1.00  0.00     0.011 C 
ENDBRANCH  19  26
ENDBRANCH  18  19
ENDBRANCH   2  18
TORSDOF 6
ENDMDL
