MODEL 1
REMARK VINA RESULT:      -8.1      0.000      0.000
REMARK  5 active torsions:
REMARK  status: ('A' for Active; 'I' for Inactive)
REMARK    1  A    between atoms: C_2  and  C_3 
REMARK    2  A    between atoms: C_3  and  N_4 
REMARK    3  A    between atoms: C_10  and  C_11 
REMARK       I    between atoms: C_11  and  N_12 
REMARK    4  A    between atoms: N_12  and  C_13 
REMARK    5  A    between atoms: C_14  and  O_15 
ROOT
HETATM    1  C   UNL     1       8.380  31.145  61.483  1.00  0.00     0.256 C 
HETATM    2  N   UNL     1       8.092  31.301  60.145  1.00  0.00    -0.320 N 
HETATM    3  O   UNL     1       9.300  30.461  61.924  1.00  0.00    -0.267 OA
HETATM    4  H   UNL     1       7.405  31.997  59.898  1.00  0.00     0.169 HD
ENDROOT
BRANCH   1   5
HETATM    5  C   UNL     1       7.511  31.863  62.476  1.00  0.00     0.032 A 
HETATM    6  C   UNL     1       6.115  31.766  62.521  1.00  0.00     0.017 A 
HETATM    7  C   UNL     1       5.386  32.429  63.522  1.00  0.00     0.010 A 
HETATM    8  C   UNL     1       6.037  33.185  64.508  1.00  0.00    -0.033 A 
HETATM    9  C   UNL     1       7.433  33.287  64.459  1.00  0.00     0.010 A 
HETATM   10  C   UNL     1       8.156  32.637  63.455  1.00  0.00     0.017 A 
BRANCH   8  11
HETATM   11  C   UNL     1       5.261  33.874  65.592  1.00  0.00     0.268 C 
BRANCH  11  12
HETATM   12  N   UNL     1       6.016  33.908  66.864  1.00  0.00    -0.075 N 
HETATM   13  H   UNL     1       6.691  34.683  66.870  1.00  0.00     0.274 HD
HETATM   14  H   UNL     1       5.382  34.052  67.660  1.00  0.00     0.274 HD
HETATM   15  H   UNL     1       6.533  33.036  67.019  1.00  0.00     0.274 HD
ENDBRANCH  11  12
ENDBRANCH   8  11
ENDBRANCH   1   5
BRANCH   2  16
HETATM   16  C   UNL     1       8.650  30.628  59.020  1.00  0.00     0.069 A 
HETATM   17  C   UNL     1       9.795  30.981  58.288  1.00  0.00     0.092 A 
HETATM   18  C   UNL     1      10.245  30.183  57.228  1.00  0.00     0.040 A 
HETATM   19  C   UNL     1       9.565  29.021  56.873  1.00  0.00     0.022 A 
HETATM   20  C   UNL     1       8.430  28.662  57.583  1.00  0.00     0.013 A 
HETATM   21 BR   UNL     1       7.493  27.085  57.122  1.00  0.00    -0.051 Br
HETATM   22  C   UNL     1       7.975  29.452  58.644  1.00  0.00     0.051 A 
BRANCH  17  23
HETATM   23  O   UNL     1      10.583  32.072  58.510  1.00  0.00    -0.358 OA
HETATM   24  H   UNL     1      11.521  31.819  58.385  1.00  0.00     0.218 HD
ENDBRANCH  17  23
ENDBRANCH   2  16
TORSDOF 5
ENDMDL
MODEL 2
REMARK VINA RESULT:      -7.9     10.694     11.900
REMARK  5 active torsions:
REMARK  status: ('A' for Active; 'I' for Inactive)
REMARK    1  A    between atoms: C_2  and  C_3 
REMARK    2  A    between atoms: C_3  and  N_4 
REMARK    3  A    between atoms: C_10  and  C_11 
REMARK       I    between atoms: C_11  and  N_12 
REMARK    4  A    between atoms: N_12  and  C_13 
REMARK    5  A    between atoms: C_14  and  O_15 
ROOT
HETATM    1  C   UNL     1       7.333  24.971  52.554  1.00  0.00     0.256 C 
HETATM    2  N   UNL     1       6.069  25.499  52.416  1.00  0.00    -0.320 N 
HETATM    3  O   UNL     1       8.344  25.436  52.036  1.00  0.00    -0.267 OA
HETATM    4  H   UNL     1       5.341  25.117  53.001  1.00  0.00     0.169 HD
ENDROOT
BRANCH   1   5
HETATM    5  C   UNL     1       7.490  23.738  53.399  1.00  0.00     0.032 A 
HETATM    6  C   UNL     1       7.850  22.480  52.903  1.00  0.00     0.017 A 
HETATM    7  C   UNL     1       8.029  21.394  53.775  1.00  0.00     0.010 A 
HETATM    8  C   UNL     1       7.872  21.548  55.161  1.00  0.00    -0.033 A 
HETATM    9  C   UNL     1       7.507  22.806  55.657  1.00  0.00     0.010 A 
HETATM   10  C   UNL     1       7.316  23.882  54.786  1.00  0.00     0.017 A 
BRANCH   8  11
HETATM   11  C   UNL     1       8.088  20.394  56.097  1.00  0.00     0.268 C 
BRANCH  11  12
HETATM   12  N   UNL     1       9.506  19.976  56.127  1.00  0.00    -0.075 N 
HETATM   13  H   UNL     1      10.051  20.568  56.765  1.00  0.00     0.274 HD
HETATM   14  H   UNL     1       9.593  19.008  56.462  1.00  0.00     0.274 HD
HETATM   15  H   UNL     1       9.936  20.033  55.197  1.00  0.00     0.274 HD
ENDBRANCH  11  12
ENDBRANCH   8  11
ENDBRANCH   1   5
BRANCH   2  16
HETATM   16  C   UNL     1       5.622  26.553  51.569  1.00  0.00     0.069 A 
HETATM   17  C   UNL     1       5.765  27.935  51.766  1.00  0.00     0.092 A 
HETATM   18  C   UNL     1       5.309  28.850  50.807  1.00  0.00     0.040 A 
HETATM   19  C   UNL     1       4.698  28.409  49.636  1.00  0.00     0.022 A 
HETATM   20  C   UNL     1       4.544  27.046  49.430  1.00  0.00     0.013 A 
HETATM   21 BR   UNL     1       3.722  26.424  47.844  1.00  0.00    -0.051 Br
HETATM   22  C   UNL     1       4.999  26.127  50.380  1.00  0.00     0.051 A 
BRANCH  17  23
HETATM   23  O   UNL     1       6.349  28.535  52.843  1.00  0.00    -0.358 OA
HETATM   24  H   UNL     1       7.124  29.051  52.540  1.00  0.00     0.218 HD
ENDBRANCH  17  23
ENDBRANCH   2  16
TORSDOF 5
ENDMDL
MODEL 3
REMARK VINA RESULT:      -7.7      6.378     10.673
REMARK  5 active torsions:
REMARK  status: ('A' for Active; 'I' for Inactive)
REMARK    1  A    between atoms: C_2  and  C_3 
REMARK    2  A    between atoms: C_3  and  N_4 
REMARK    3  A    between atoms: C_10  and  C_11 
REMARK       I    between atoms: C_11  and  N_12 
REMARK    4  A    between atoms: N_12  and  C_13 
REMARK    5  A    between atoms: C_14  and  O_15 
ROOT
HETATM    1  C   UNL     1       6.723  25.682  54.788  1.00  0.00     0.256 C 
HETATM    2  N   UNL     1       7.150  26.233  55.976  1.00  0.00    -0.320 N 
HETATM    3  O   UNL     1       6.024  26.262  53.962  1.00  0.00    -0.267 OA
HETATM    4  H   UNL     1       7.834  25.715  56.506  1.00  0.00     0.169 HD
ENDROOT
BRANCH   1   5
HETATM    5  C   UNL     1       7.143  24.273  54.477  1.00  0.00     0.032 A 
HETATM    6  C   UNL     1       7.365  23.782  53.185  1.00  0.00     0.017 A 
HETATM    7  C   UNL     1       7.810  22.464  52.990  1.00  0.00     0.010 A 
HETATM    8  C   UNL     1       8.062  21.619  54.081  1.00  0.00    -0.033 A 
HETATM    9  C   UNL     1       7.834  22.108  55.373  1.00  0.00     0.010 A 
HETATM   10  C   UNL     1       7.378  23.416  55.564  1.00  0.00     0.017 A 
BRANCH   8  11
HETATM   11  C   UNL     1       8.563  20.219  53.875  1.00  0.00     0.268 C 
BRANCH  11  12
HETATM   12  N   UNL     1       9.019  19.612  55.144  1.00  0.00    -0.075 N 
HETATM   13  H   UNL     1       9.399  18.670  54.986  1.00  0.00     0.274 HD
HETATM   14  H   UNL     1       9.768  20.173  55.568  1.00  0.00     0.274 HD
HETATM   15  H   UNL     1       8.253  19.535  55.822  1.00  0.00     0.274 HD
ENDBRANCH  11  12
ENDBRANCH   8  11
ENDBRANCH   1   5
BRANCH   2  16
HETATM   16  C   UNL     1       6.783  27.470  56.577  1.00  0.00     0.069 A 
HETATM   17  C   UNL     1       5.490  27.978  56.780  1.00  0.00     0.092 A 
HETATM   18  C   UNL     1       5.291  29.201  57.435  1.00  0.00     0.040 A 
HETATM   19  C   UNL     1       6.373  29.944  57.898  1.00  0.00     0.022 A 
HETATM   20  C   UNL     1       7.657  29.459  57.701  1.00  0.00     0.013 A 
HETATM   21 BR   UNL     1       9.142  30.448  58.326  1.00  0.00    -0.051 Br
HETATM   22  C   UNL     1       7.863  28.238  57.050  1.00  0.00     0.051 A 
BRANCH  17  23
HETATM   23  O   UNL     1       4.325  27.376  56.404  1.00  0.00    -0.358 OA
HETATM   24  H   UNL     1       4.000  27.796  55.581  1.00  0.00     0.218 HD
ENDBRANCH  17  23
ENDBRANCH   2  16
TORSDOF 5
ENDMDL
MODEL 4
REMARK VINA RESULT:      -7.7      5.778     10.047
REMARK  5 active torsions:
REMARK  status: ('A' for Active; 'I' for Inactive)
REMARK    1  A    between atoms: C_2  and  C_3 
REMARK    2  A    between atoms: C_3  and  N_4 
REMARK    3  A    between atoms: C_10  and  C_11 
REMARK       I    between atoms: C_11  and  N_12 
REMARK    4  A    between atoms: N_12  and  C_13 
REMARK    5  A    between atoms: C_14  and  O_15 
ROOT
HETATM    1  C   UNL     1       5.786  34.127  66.671  1.00  0.00     0.256 C 
HETATM    2  N   UNL     1       6.786  34.244  67.610  1.00  0.00    -0.320 N 
HETATM    3  O   UNL     1       4.606  34.399  66.870  1.00  0.00    -0.267 OA
HETATM    4  H   UNL     1       7.736  34.129  67.292  1.00  0.00     0.169 HD
ENDROOT
BRANCH   1   5
HETATM    5  C   UNL     1       6.163  33.635  65.302  1.00  0.00     0.032 A 
HETATM    6  C   UNL     1       7.480  33.476  64.854  1.00  0.00     0.017 A 
HETATM    7  C   UNL     1       7.740  32.955  63.577  1.00  0.00     0.010 A 
HETATM    8  C   UNL     1       6.693  32.565  62.729  1.00  0.00    -0.033 A 
HETATM    9  C   UNL     1       5.375  32.729  63.175  1.00  0.00     0.010 A 
HETATM   10  C   UNL     1       5.118  33.260  64.442  1.00  0.00     0.017 A 
BRANCH   8  11
HETATM   11  C   UNL     1       6.970  31.984  61.373  1.00  0.00     0.268 C 
BRANCH  11  12
HETATM   12  N   UNL     1       7.814  30.773  61.461  1.00  0.00    -0.075 N 
HETATM   13  H   UNL     1       8.414  30.682  60.633  1.00  0.00     0.274 HD
HETATM   14  H   UNL     1       8.433  30.819  62.281  1.00  0.00     0.274 HD
HETATM   15  H   UNL     1       7.245  29.922  61.536  1.00  0.00     0.274 HD
ENDBRANCH  11  12
ENDBRANCH   8  11
ENDBRANCH   1   5
BRANCH   2  16
HETATM   16  C   UNL     1       6.684  34.538  69.001  1.00  0.00     0.069 A 
HETATM   17  C   UNL     1       6.051  33.777  69.996  1.00  0.00     0.092 A 
HETATM   18  C   UNL     1       6.080  34.181  71.338  1.00  0.00     0.040 A 
HETATM   19  C   UNL     1       6.735  35.350  71.716  1.00  0.00     0.022 A 
HETATM   20  C   UNL     1       7.360  36.115  70.742  1.00  0.00     0.013 A 
HETATM   21 BR   UNL     1       8.261  37.704  71.232  1.00  0.00    -0.051 Br
HETATM   22  C   UNL     1       7.338  35.717  69.402  1.00  0.00     0.051 A 
BRANCH  17  23
HETATM   23  O   UNL     1       5.379  32.606  69.804  1.00  0.00    -0.358 OA
HETATM   24  H   UNL     1       4.498  32.802  69.425  1.00  0.00     0.218 HD
ENDBRANCH  17  23
ENDBRANCH   2  16
TORSDOF 5
ENDMDL
MODEL 5
REMARK VINA RESULT:      -7.5      6.106     10.364
REMARK  5 active torsions:
REMARK  status: ('A' for Active; 'I' for Inactive)
REMARK    1  A    between atoms: C_2  and  C_3 
REMARK    2  A    between atoms: C_3  and  N_4 
REMARK    3  A    between atoms: C_10  and  C_11 
REMARK       I    between atoms: C_11  and  N_12 
REMARK    4  A    between atoms: N_12  and  C_13 
REMARK    5  A    between atoms: C_14  and  O_15 
ROOT
HETATM    1  C   UNL     1       7.149  25.221  56.657  1.00  0.00     0.256 C 
HETATM    2  N   UNL     1       7.680  26.413  56.219  1.00  0.00    -0.320 N 
HETATM    3  O   UNL     1       6.320  25.114  57.557  1.00  0.00    -0.267 OA
HETATM    4  H   UNL     1       8.242  26.389  55.382  1.00  0.00     0.169 HD
ENDROOT
BRANCH   1   5
HETATM    5  C   UNL     1       7.610  23.958  55.987  1.00  0.00     0.032 A 
HETATM    6  C   UNL     1       8.164  22.862  56.659  1.00  0.00     0.017 A 
HETATM    7  C   UNL     1       8.516  21.698  55.957  1.00  0.00     0.010 A 
HETATM    8  C   UNL     1       8.305  21.597  54.574  1.00  0.00    -0.033 A 
HETATM    9  C   UNL     1       7.756  22.696  53.900  1.00  0.00     0.010 A 
HETATM   10  C   UNL     1       7.418  23.858  54.598  1.00  0.00     0.017 A 
BRANCH   8  11
HETATM   11  C   UNL     1       8.657  20.345  53.827  1.00  0.00     0.268 C 
BRANCH  11  12
HETATM   12  N   UNL     1       7.978  20.284  52.514  1.00  0.00    -0.075 N 
HETATM   13  H   UNL     1       7.019  20.645  52.580  1.00  0.00     0.274 HD
HETATM   14  H   UNL     1       8.473  20.860  51.822  1.00  0.00     0.274 HD
HETATM   15  H   UNL     1       7.932  19.323  52.158  1.00  0.00     0.274 HD
ENDBRANCH  11  12
ENDBRANCH   8  11
ENDBRANCH   1   5
BRANCH   2  16
HETATM   16  C   UNL     1       7.534  27.719  56.769  1.00  0.00     0.069 A 
HETATM   17  C   UNL     1       6.352  28.347  57.190  1.00  0.00     0.092 A 
HETATM   18  C   UNL     1       6.380  29.629  57.757  1.00  0.00     0.040 A 
HETATM   19  C   UNL     1       7.584  30.311  57.914  1.00  0.00     0.022 A 
HETATM   20  C   UNL     1       8.760  29.705  57.497  1.00  0.00     0.013 A 
HETATM   21 BR   UNL     1      10.407  30.611  57.705  1.00  0.00    -0.051 Br
HETATM   22  C   UNL     1       8.740  28.426  56.933  1.00  0.00     0.051 A 
BRANCH  17  23
HETATM   23  O   UNL     1       5.096  27.819  57.123  1.00  0.00    -0.358 OA
HETATM   24  H   UNL     1       5.107  26.919  57.509  1.00  0.00     0.218 HD
ENDBRANCH  17  23
ENDBRANCH   2  16
TORSDOF 5
ENDMDL
MODEL 6
REMARK VINA RESULT:      -7.4      5.350      7.640
REMARK  5 active torsions:
REMARK  status: ('A' for Active; 'I' for Inactive)
REMARK    1  A    between atoms: C_2  and  C_3 
REMARK    2  A    between atoms: C_3  and  N_4 
REMARK    3  A    between atoms: C_10  and  C_11 
REMARK       I    between atoms: C_11  and  N_12 
REMARK    4  A    between atoms: N_12  and  C_13 
REMARK    5  A    between atoms: C_14  and  O_15 
ROOT
HETATM    1  C   UNL     1       6.697  26.658  55.547  1.00  0.00     0.256 C 
HETATM    2  N   UNL     1       7.590  25.617  55.664  1.00  0.00    -0.320 N 
HETATM    3  O   UNL     1       5.741  26.675  54.776  1.00  0.00    -0.267 OA
HETATM    4  H   UNL     1       8.248  25.655  56.428  1.00  0.00     0.169 HD
ENDROOT
BRANCH   1   5
HETATM    5  C   UNL     1       6.902  27.861  56.424  1.00  0.00     0.032 A 
HETATM    6  C   UNL     1       5.886  28.746  56.802  1.00  0.00     0.017 A 
HETATM    7  C   UNL     1       6.157  29.814  57.673  1.00  0.00     0.010 A 
HETATM    8  C   UNL     1       7.443  30.007  58.199  1.00  0.00    -0.033 A 
HETATM    9  C   UNL     1       8.462  29.125  57.816  1.00  0.00     0.010 A 
HETATM   10  C   UNL     1       8.192  28.071  56.939  1.00  0.00     0.017 A 
BRANCH   8  11
HETATM   11  C   UNL     1       7.729  31.133  59.149  1.00  0.00     0.268 C 
BRANCH  11  12
HETATM   12  N   UNL     1       7.881  30.648  60.538  1.00  0.00    -0.075 N 
HETATM   13  H   UNL     1       8.200  29.671  60.554  1.00  0.00     0.274 HD
HETATM   14  H   UNL     1       8.582  31.204  61.043  1.00  0.00     0.274 HD
HETATM   15  H   UNL     1       6.996  30.701  61.055  1.00  0.00     0.274 HD
ENDBRANCH  11  12
ENDBRANCH   8  11
ENDBRANCH   1   5
BRANCH   2  16
HETATM   16  C   UNL     1       7.715  24.445  54.865  1.00  0.00     0.069 A 
HETATM   17  C   UNL     1       7.852  24.365  53.470  1.00  0.00     0.092 A 
HETATM   18  C   UNL     1       8.014  23.128  52.832  1.00  0.00     0.040 A 
HETATM   19  C   UNL     1       8.040  21.946  53.567  1.00  0.00     0.022 A 
HETATM   20  C   UNL     1       7.901  22.008  54.946  1.00  0.00     0.013 A 
HETATM   21 BR   UNL     1       7.939  20.415  55.966  1.00  0.00    -0.051 Br
HETATM   22  C   UNL     1       7.742  23.239  55.590  1.00  0.00     0.051 A 
BRANCH  17  23
HETATM   23  O   UNL     1       7.862  25.420  52.605  1.00  0.00    -0.358 OA
HETATM   24  H   UNL     1       7.761  25.083  51.691  1.00  0.00     0.218 HD
ENDBRANCH  17  23
ENDBRANCH   2  16
TORSDOF 5
ENDMDL
MODEL 7
REMARK VINA RESULT:      -7.0      9.964     13.363
REMARK  5 active torsions:
REMARK  status: ('A' for Active; 'I' for Inactive)
REMARK    1  A    between atoms: C_2  and  C_3 
REMARK    2  A    between atoms: C_3  and  N_4 
REMARK    3  A    between atoms: C_10  and  C_11 
REMARK       I    between atoms: C_11  and  N_12 
REMARK    4  A    between atoms: N_12  and  C_13 
REMARK    5  A    between atoms: C_14  and  O_15 
ROOT
HETATM    1  C   UNL     1       4.909  26.640  50.716  1.00  0.00     0.256 C 
HETATM    2  N   UNL     1       4.811  25.520  51.510  1.00  0.00    -0.320 N 
HETATM    3  O   UNL     1       5.741  27.531  50.864  1.00  0.00    -0.267 OA
HETATM    4  H   UNL     1       4.184  24.791  51.207  1.00  0.00     0.169 HD
ENDROOT
BRANCH   1   5
HETATM    5  C   UNL     1       3.931  26.785  49.584  1.00  0.00     0.032 A 
HETATM    6  C   UNL     1       3.632  25.774  48.663  1.00  0.00     0.017 A 
HETATM    7  C   UNL     1       2.662  25.980  47.669  1.00  0.00     0.010 A 
HETATM    8  C   UNL     1       1.957  27.190  47.587  1.00  0.00    -0.033 A 
HETATM    9  C   UNL     1       2.260  28.204  48.505  1.00  0.00     0.010 A 
HETATM   10  C   UNL     1       3.236  28.002  49.485  1.00  0.00     0.017 A 
BRANCH   8  11
HETATM   11  C   UNL     1       0.902  27.402  46.541  1.00  0.00     0.268 C 
BRANCH  11  12
HETATM   12  N   UNL     1       0.816  28.820  46.133  1.00  0.00    -0.075 N 
HETATM   13  H   UNL     1       1.461  29.020  45.359  1.00  0.00     0.274 HD
HETATM   14  H   UNL     1      -0.131  29.048  45.805  1.00  0.00     0.274 HD
HETATM   15  H   UNL     1       1.047  29.451  46.910  1.00  0.00     0.274 HD
ENDBRANCH  11  12
ENDBRANCH   8  11
ENDBRANCH   1   5
BRANCH   2  16
HETATM   16  C   UNL     1       5.500  25.211  52.718  1.00  0.00     0.069 A 
HETATM   17  C   UNL     1       5.340  25.809  53.977  1.00  0.00     0.092 A 
HETATM   18  C   UNL     1       6.066  25.356  55.088  1.00  0.00     0.040 A 
HETATM   19  C   UNL     1       6.966  24.301  54.967  1.00  0.00     0.022 A 
HETATM   20  C   UNL     1       7.139  23.703  53.728  1.00  0.00     0.013 A 
HETATM   21 BR   UNL     1       8.354  22.265  53.541  1.00  0.00    -0.051 Br
HETATM   22  C   UNL     1       6.418  24.148  52.616  1.00  0.00     0.051 A 
BRANCH  17  23
HETATM   23  O   UNL     1       4.495  26.838  54.274  1.00  0.00    -0.358 OA
HETATM   24  H   UNL     1       4.876  27.364  55.007  1.00  0.00     0.218 HD
ENDBRANCH  17  23
ENDBRANCH   2  16
TORSDOF 5
ENDMDL
MODEL 8
REMARK VINA RESULT:      -6.9      9.348     11.359
REMARK  5 active torsions:
REMARK  status: ('A' for Active; 'I' for Inactive)
REMARK    1  A    between atoms: C_2  and  C_3 
REMARK    2  A    between atoms: C_3  and  N_4 
REMARK    3  A    between atoms: C_10  and  C_11 
REMARK       I    between atoms: C_11  and  N_12 
REMARK    4  A    between atoms: N_12  and  C_13 
REMARK    5  A    between atoms: C_14  and  O_15 
ROOT
HETATM    1  C   UNL     1       5.841  25.159  53.221  1.00  0.00     0.256 C 
HETATM    2  N   UNL     1       6.129  26.453  53.591  1.00  0.00    -0.320 N 
HETATM    3  O   UNL     1       4.927  24.835  52.467  1.00  0.00    -0.267 OA
HETATM    4  H   UNL     1       6.987  26.609  54.098  1.00  0.00     0.169 HD
ENDROOT
BRANCH   1   5
HETATM    5  C   UNL     1       6.705  24.061  53.774  1.00  0.00     0.032 A 
HETATM    6  C   UNL     1       6.883  23.807  55.139  1.00  0.00     0.017 A 
HETATM    7  C   UNL     1       7.666  22.722  55.566  1.00  0.00     0.010 A 
HETATM    8  C   UNL     1       8.270  21.859  54.640  1.00  0.00    -0.033 A 
HETATM    9  C   UNL     1       8.097  22.116  53.274  1.00  0.00     0.010 A 
HETATM   10  C   UNL     1       7.328  23.204  52.851  1.00  0.00     0.017 A 
BRANCH   8  11
HETATM   11  C   UNL     1       9.086  20.684  55.095  1.00  0.00     0.268 C 
BRANCH  11  12
HETATM   12  N   UNL     1       9.012  20.504  56.561  1.00  0.00    -0.075 N 
HETATM   13  H   UNL     1       8.632  19.580  56.799  1.00  0.00     0.274 HD
HETATM   14  H   UNL     1       9.946  20.567  56.984  1.00  0.00     0.274 HD
HETATM   15  H   UNL     1       8.414  21.215  56.998  1.00  0.00     0.274 HD
ENDBRANCH  11  12
ENDBRANCH   8  11
ENDBRANCH   1   5
BRANCH   2  16
HETATM   16  C   UNL     1       5.394  27.646  53.338  1.00  0.00     0.069 A 
HETATM   17  C   UNL     1       4.460  28.275  54.176  1.00  0.00     0.092 A 
HETATM   18  C   UNL     1       3.852  29.481  53.799  1.00  0.00     0.040 A 
HETATM   19  C   UNL     1       4.158  30.082  52.582  1.00  0.00     0.022 A 
HETATM   20  C   UNL     1       5.075  29.470  51.740  1.00  0.00     0.013 A 
HETATM   21 BR   UNL     1       5.510  30.271  50.083  1.00  0.00    -0.051 Br
HETATM   22  C   UNL     1       5.688  28.268  52.110  1.00  0.00     0.051 A 
BRANCH  17  23
HETATM   23  O   UNL     1       4.058  27.832  55.402  1.00  0.00    -0.358 OA
HETATM   24  H   UNL     1       3.167  28.191  55.594  1.00  0.00     0.218 HD
ENDBRANCH  17  23
ENDBRANCH   2  16
TORSDOF 5
ENDMDL
MODEL 9
REMARK VINA RESULT:      -6.8     11.050     12.648
REMARK  5 active torsions:
REMARK  status: ('A' for Active; 'I' for Inactive)
REMARK    1  A    between atoms: C_2  and  C_3 
REMARK    2  A    between atoms: C_3  and  N_4 
REMARK    3  A    between atoms: C_10  and  C_11 
REMARK       I    between atoms: C_11  and  N_12 
REMARK    4  A    between atoms: N_12  and  C_13 
REMARK    5  A    between atoms: C_14  and  O_15 
ROOT
HETATM    1  C   UNL     1       5.617  26.861  51.544  1.00  0.00     0.256 C 
HETATM    2  N   UNL     1       4.792  26.509  50.499  1.00  0.00    -0.320 N 
HETATM    3  O   UNL     1       5.906  28.016  51.846  1.00  0.00    -0.267 OA
HETATM    4  H   UNL     1       4.513  25.542  50.435  1.00  0.00     0.169 HD
ENDROOT
BRANCH   1   5
HETATM    5  C   UNL     1       6.204  25.757  52.377  1.00  0.00     0.032 A 
HETATM    6  C   UNL     1       5.659  25.302  53.584  1.00  0.00     0.017 A 
HETATM    7  C   UNL     1       6.244  24.225  54.269  1.00  0.00     0.010 A 
HETATM    8  C   UNL     1       7.372  23.569  53.754  1.00  0.00    -0.033 A 
HETATM    9  C   UNL     1       7.921  24.028  52.550  1.00  0.00     0.010 A 
HETATM   10  C   UNL     1       7.345  25.109  51.876  1.00  0.00     0.017 A 
BRANCH   8  11
HETATM   11  C   UNL     1       7.984  22.402  54.472  1.00  0.00     0.268 C 
BRANCH  11  12
HETATM   12  N   UNL     1       9.121  21.833  53.717  1.00  0.00    -0.075 N 
HETATM   13  H   UNL     1       9.695  22.576  53.301  1.00  0.00     0.274 HD
HETATM   14  H   UNL     1       9.733  21.288  54.337  1.00  0.00     0.274 HD
HETATM   15  H   UNL     1       8.801  21.217  52.961  1.00  0.00     0.274 HD
ENDBRANCH  11  12
ENDBRANCH   8  11
ENDBRANCH   1   5
BRANCH   2  16
HETATM   16  C   UNL     1       4.233  27.330  49.478  1.00  0.00     0.069 A 
HETATM   17  C   UNL     1       4.522  27.312  48.105  1.00  0.00     0.092 A 
HETATM   18  C   UNL     1       3.845  28.158  47.215  1.00  0.00     0.040 A 
HETATM   19  C   UNL     1       2.872  29.042  47.674  1.00  0.00     0.022 A 
HETATM   20  C   UNL     1       2.579  29.076  49.029  1.00  0.00     0.013 A 
HETATM   21 BR   UNL     1       1.257  30.264  49.675  1.00  0.00    -0.051 Br
HETATM   22  C   UNL     1       3.248  28.232  49.923  1.00  0.00     0.051 A 
BRANCH  17  23
HETATM   23  O   UNL     1       5.431  26.503  47.488  1.00  0.00    -0.358 OA
HETATM   24  H   UNL     1       5.564  26.815  46.570  1.00  0.00     0.218 HD
ENDBRANCH  17  23
ENDBRANCH   2  16
TORSDOF 5
ENDMDL
MODEL 10
REMARK VINA RESULT:      -6.6      4.729      8.837
REMARK  5 active torsions:
REMARK  status: ('A' for Active; 'I' for Inactive)
REMARK    1  A    between atoms: C_2  and  C_3 
REMARK    2  A    between atoms: C_3  and  N_4 
REMARK    3  A    between atoms: C_10  and  C_11 
REMARK       I    between atoms: C_11  and  N_12 
REMARK    4  A    between atoms: N_12  and  C_13 
REMARK    5  A    between atoms: C_14  and  O_15 
ROOT
HETATM    1  C   UNL     1       6.523  27.633  57.158  1.00  0.00     0.256 C 
HETATM    2  N   UNL     1       7.492  28.551  57.494  1.00  0.00    -0.320 N 
HETATM    3  O   UNL     1       5.315  27.818  57.276  1.00  0.00    -0.267 OA
HETATM    4  H   UNL     1       8.440  28.345  57.221  1.00  0.00     0.169 HD
ENDROOT
BRANCH   1   5
HETATM    5  C   UNL     1       6.971  26.311  56.603  1.00  0.00     0.032 A 
HETATM    6  C   UNL     1       8.057  25.575  57.093  1.00  0.00     0.017 A 
HETATM    7  C   UNL     1       8.370  24.319  56.548  1.00  0.00     0.010 A 
HETATM    8  C   UNL     1       7.596  23.764  55.519  1.00  0.00    -0.033 A 
HETATM    9  C   UNL     1       6.513  24.503  55.024  1.00  0.00     0.010 A 
HETATM   10  C   UNL     1       6.210  25.759  55.558  1.00  0.00     0.017 A 
BRANCH   8  11
HETATM   11  C   UNL     1       7.914  22.411  54.953  1.00  0.00     0.268 C 
BRANCH  11  12
HETATM   12  N   UNL     1       9.134  21.839  55.563  1.00  0.00    -0.075 N 
HETATM   13  H   UNL     1       9.644  21.256  54.889  1.00  0.00     0.274 HD
HETATM   14  H   UNL     1       9.774  22.585  55.864  1.00  0.00     0.274 HD
HETATM   15  H   UNL     1       8.911  21.259  56.380  1.00  0.00     0.274 HD
ENDBRANCH  11  12
ENDBRANCH   8  11
ENDBRANCH   1   5
BRANCH   2  16
HETATM   16  C   UNL     1       7.354  29.799  58.167  1.00  0.00     0.069 A 
HETATM   17  C   UNL     1       6.421  30.816  57.911  1.00  0.00     0.092 A 
HETATM   18  C   UNL     1       6.383  31.974  58.700  1.00  0.00     0.040 A 
HETATM   19  C   UNL     1       7.275  32.145  59.756  1.00  0.00     0.022 A 
HETATM   20  C   UNL     1       8.206  31.152  60.018  1.00  0.00     0.013 A 
HETATM   21 BR   UNL     1       9.423  31.360  61.450  1.00  0.00    -0.051 Br
HETATM   22  C   UNL     1       8.248  29.992  59.237  1.00  0.00     0.051 A 
BRANCH  17  23
HETATM   23  O   UNL     1       5.472  30.805  56.931  1.00  0.00    -0.358 OA
HETATM   24  H   UNL     1       5.783  31.352  56.180  1.00  0.00     0.218 HD
ENDBRANCH  17  23
ENDBRANCH   2  16
TORSDOF 5
ENDMDL
