MODEL 1
REMARK VINA RESULT:     -10.0      0.000      0.000
REMARK  6 active torsions:
REMARK  status: ('A' for Active; 'I' for Inactive)
REMARK    1  A    between atoms: C_5  and  C_6 
REMARK    2  A    between atoms: C_12  and  C_13 
REMARK       I    between atoms: C_13  and  N_14 
REMARK    3  A    between atoms: N_14  and  C_15 
REMARK    4  A    between atoms: C_18  and  C_19 
REMARK    5  A    between atoms: C_19  and  O_20 
REMARK    6  A    between atoms: C_25  and  C_26 
ROOT
HETATM    1  C   UNL     1       5.162  28.377  48.774  1.00  0.00     0.118 C 
HETATM    2  N   UNL     1       5.413  27.362  49.812  1.00  0.00    -0.365 N 
HETATM    3  C   UNL     1       5.188  27.655  51.127  1.00  0.00     0.138 A 
HETATM    4  N   UNL     1       4.891  28.937  51.532  1.00  0.00    -0.240 N 
HETATM    5  N   UNL     1       4.808  29.081  52.863  1.00  0.00    -0.181 NA
HETATM    6  C   UNL     1       4.981  27.839  53.317  1.00  0.00     0.160 A 
HETATM    7  C   UNL     1       5.233  26.898  52.286  1.00  0.00     0.096 A 
HETATM    8  C   UNL     1       4.890  30.103  50.667  1.00  0.00     0.221 C 
HETATM    9  C   UNL     1       5.539  29.767  49.313  1.00  0.00     0.066 C 
HETATM   10  H   UNL     1       6.238  26.801  49.593  1.00  0.00     0.161 HD
ENDROOT
BRANCH   7  11
HETATM   11  C   UNL     1       5.502  25.480  52.491  1.00  0.00     0.261 C 
HETATM   12  N   UNL     1       6.749  25.208  53.021  1.00  0.00    -0.323 N 
HETATM   13  H   UNL     1       7.372  26.004  53.093  1.00  0.00     0.169 HD
HETATM   14  O   UNL     1       4.643  24.648  52.220  1.00  0.00    -0.267 OA
BRANCH  12  15
HETATM   15  C   UNL     1       7.216  23.979  53.528  1.00  0.00     0.035 A 
HETATM   16  C   UNL     1       7.699  22.941  52.732  1.00  0.00     0.030 A 
HETATM   17  C   UNL     1       8.082  21.721  53.301  1.00  0.00     0.012 A 
HETATM   18  C   UNL     1       7.982  21.510  54.681  1.00  0.00    -0.030 A 
HETATM   19  C   UNL     1       7.504  22.557  55.481  1.00  0.00     0.012 A 
HETATM   20  C   UNL     1       7.142  23.784  54.912  1.00  0.00     0.030 A 
BRANCH  18  21
HETATM   21  C   UNL     1       8.334  20.158  55.263  1.00  0.00     0.147 C 
HETATM   22  C   UNL     1       9.073  20.287  56.588  1.00  0.00     0.044 C 
BRANCH  21  23
HETATM   23  O   UNL     1       9.140  19.410  54.357  1.00  0.00    -0.391 OA
HETATM   24  H   UNL     1       9.065  19.849  53.491  1.00  0.00     0.210 HD
ENDBRANCH  21  23
ENDBRANCH  18  21
ENDBRANCH  12  15
ENDBRANCH   7  11
BRANCH   1  25
HETATM   25  C   UNL     1       3.768  28.296  48.173  1.00  0.00    -0.035 A 
HETATM   26  C   UNL     1       3.269  29.239  47.262  1.00  0.00     0.010 A 
HETATM   27  C   UNL     1       2.001  29.087  46.687  1.00  0.00     0.007 A 
HETATM   28  C   UNL     1       1.195  27.997  47.018  1.00  0.00    -0.062 A 
HETATM   29  C   UNL     1      -0.150  27.808  46.383  1.00  0.00     0.048 C 
HETATM   30  C   UNL     1       1.659  27.079  47.963  1.00  0.00     0.007 A 
HETATM   31  C   UNL     1       2.926  27.228  48.534  1.00  0.00     0.010 A 
ENDBRANCH   1  25
BRANCH   8  32
HETATM   32  C   UNL     1       3.500  30.695  50.575  1.00  0.00     0.409 C 
HETATM   33  F   UNL     1       2.510  29.787  50.607  1.00  0.00    -0.169 F 
HETATM   34  F   UNL     1       3.265  31.583  51.569  1.00  0.00    -0.169 F 
HETATM   35  F   UNL     1       3.371  31.393  49.415  1.00  0.00    -0.169 F 
ENDBRANCH   8  32
TORSDOF 6
ENDMDL
MODEL 2
REMARK VINA RESULT:      -9.9      3.249      9.095
REMARK  6 active torsions:
REMARK  status: ('A' for Active; 'I' for Inactive)
REMARK    1  A    between atoms: C_5  and  C_6 
REMARK    2  A    between atoms: C_12  and  C_13 
REMARK       I    between atoms: C_13  and  N_14 
REMARK    3  A    between atoms: N_14  and  C_15 
REMARK    4  A    between atoms: C_18  and  C_19 
REMARK    5  A    between atoms: C_19  and  O_20 
REMARK    6  A    between atoms: C_25  and  C_26 
ROOT
HETATM    1  C   UNL     1       4.928  25.759  54.152  1.00  0.00     0.118 C 
HETATM    2  N   UNL     1       4.438  26.192  52.831  1.00  0.00    -0.365 N 
HETATM    3  C   UNL     1       4.966  27.302  52.234  1.00  0.00     0.138 A 
HETATM    4  N   UNL     1       5.830  28.133  52.911  1.00  0.00    -0.240 N 
HETATM    5  N   UNL     1       6.170  29.236  52.226  1.00  0.00    -0.181 NA
HETATM    6  C   UNL     1       5.565  29.065  51.050  1.00  0.00     0.160 A 
HETATM    7  C   UNL     1       4.787  27.881  50.989  1.00  0.00     0.096 A 
HETATM    8  C   UNL     1       6.186  28.002  54.311  1.00  0.00     0.221 C 
HETATM    9  C   UNL     1       5.255  26.994  55.008  1.00  0.00     0.066 C 
HETATM   10  H   UNL     1       3.431  26.046  52.741  1.00  0.00     0.161 HD
ENDROOT
BRANCH   7  11
HETATM   11  C   UNL     1       3.984  27.462  49.847  1.00  0.00     0.261 C 
HETATM   12  N   UNL     1       2.789  28.142  49.711  1.00  0.00    -0.323 N 
HETATM   13  H   UNL     1       2.553  28.761  50.477  1.00  0.00     0.169 HD
HETATM   14  O   UNL     1       4.402  26.590  49.091  1.00  0.00    -0.267 OA
BRANCH  12  15
HETATM   15  C   UNL     1       1.911  28.121  48.609  1.00  0.00     0.035 A 
HETATM   16  C   UNL     1       1.583  26.968  47.896  1.00  0.00     0.030 A 
HETATM   17  C   UNL     1       0.756  27.034  46.768  1.00  0.00     0.012 A 
HETATM   18  C   UNL     1       0.247  28.259  46.323  1.00  0.00    -0.030 A 
HETATM   19  C   UNL     1       0.571  29.416  47.044  1.00  0.00     0.012 A 
HETATM   20  C   UNL     1       1.380  29.345  48.185  1.00  0.00     0.030 A 
BRANCH  18  21
HETATM   21  C   UNL     1      -0.584  28.314  45.059  1.00  0.00     0.147 C 
HETATM   22  C   UNL     1      -1.833  29.166  45.239  1.00  0.00     0.044 C 
BRANCH  21  23
HETATM   23  O   UNL     1      -0.975  27.005  44.652  1.00  0.00    -0.391 OA
HETATM   24  H   UNL     1      -0.653  26.394  45.337  1.00  0.00     0.210 HD
ENDBRANCH  21  23
ENDBRANCH  18  21
ENDBRANCH  12  15
ENDBRANCH   7  11
BRANCH   1  25
HETATM   25  C   UNL     1       6.049  24.735  54.076  1.00  0.00    -0.035 A 
HETATM   26  C   UNL     1       6.637  24.155  55.210  1.00  0.00     0.010 A 
HETATM   27  C   UNL     1       7.623  23.168  55.088  1.00  0.00     0.007 A 
HETATM   28  C   UNL     1       8.057  22.748  53.829  1.00  0.00    -0.062 A 
HETATM   29  C   UNL     1       9.089  21.669  53.688  1.00  0.00     0.048 C 
HETATM   30  C   UNL     1       7.517  23.355  52.693  1.00  0.00     0.007 A 
HETATM   31  C   UNL     1       6.530  24.337  52.815  1.00  0.00     0.010 A 
ENDBRANCH   1  25
BRANCH   8  32
HETATM   32  C   UNL     1       7.663  27.709  54.460  1.00  0.00     0.409 C 
HETATM   33  F   UNL     1       8.189  26.996  53.450  1.00  0.00    -0.169 F 
HETATM   34  F   UNL     1       8.391  28.845  54.574  1.00  0.00    -0.169 F 
HETATM   35  F   UNL     1       7.883  27.009  55.605  1.00  0.00    -0.169 F 
ENDBRANCH   8  32
TORSDOF 6
ENDMDL
MODEL 3
REMARK VINA RESULT:      -9.5      5.507      8.874
REMARK  6 active torsions:
REMARK  status: ('A' for Active; 'I' for Inactive)
REMARK    1  A    between atoms: C_5  and  C_6 
REMARK    2  A    between atoms: C_12  and  C_13 
REMARK       I    between atoms: C_13  and  N_14 
REMARK    3  A    between atoms: N_14  and  C_15 
REMARK    4  A    between atoms: C_18  and  C_19 
REMARK    5  A    between atoms: C_19  and  O_20 
REMARK    6  A    between atoms: C_25  and  C_26 
ROOT
HETATM    1  C   UNL     1       7.986  25.708  52.921  1.00  0.00     0.118 C 
HETATM    2  N   UNL     1       7.936  26.874  53.821  1.00  0.00    -0.365 N 
HETATM    3  C   UNL     1       6.733  27.417  54.174  1.00  0.00     0.138 A 
HETATM    4  N   UNL     1       5.562  27.008  53.575  1.00  0.00    -0.240 N 
HETATM    5  N   UNL     1       4.485  27.714  53.950  1.00  0.00    -0.181 NA
HETATM    6  C   UNL     1       4.971  28.546  54.874  1.00  0.00     0.160 A 
HETATM    7  C   UNL     1       6.371  28.421  55.057  1.00  0.00     0.096 A 
HETATM    8  C   UNL     1       5.476  26.075  52.467  1.00  0.00     0.221 C 
HETATM    9  C   UNL     1       6.871  25.824  51.868  1.00  0.00     0.066 C 
HETATM   10  H   UNL     1       8.704  27.521  53.635  1.00  0.00     0.161 HD
ENDROOT
BRANCH   7  11
HETATM   11  C   UNL     1       7.175  29.229  55.965  1.00  0.00     0.261 C 
HETATM   12  N   UNL     1       6.456  29.822  56.986  1.00  0.00    -0.323 N 
HETATM   13  H   UNL     1       5.450  29.728  56.919  1.00  0.00     0.169 HD
HETATM   14  O   UNL     1       8.386  29.316  55.799  1.00  0.00    -0.267 OA
BRANCH  12  15
HETATM   15  C   UNL     1       6.966  30.472  58.129  1.00  0.00     0.035 A 
HETATM   16  C   UNL     1       8.019  29.980  58.899  1.00  0.00     0.030 A 
HETATM   17  C   UNL     1       8.427  30.645  60.061  1.00  0.00     0.012 A 
HETATM   18  C   UNL     1       7.784  31.814  60.483  1.00  0.00    -0.030 A 
HETATM   19  C   UNL     1       6.730  32.312  59.703  1.00  0.00     0.012 A 
HETATM   20  C   UNL     1       6.337  31.656  58.529  1.00  0.00     0.030 A 
BRANCH  18  21
HETATM   21  C   UNL     1       8.195  32.474  61.781  1.00  0.00     0.147 C 
HETATM   22  C   UNL     1       8.361  31.459  62.904  1.00  0.00     0.044 C 
BRANCH  21  23
HETATM   23  O   UNL     1       7.236  33.450  62.180  1.00  0.00    -0.391 OA
HETATM   24  H   UNL     1       7.539  34.302  61.818  1.00  0.00     0.210 HD
ENDBRANCH  21  23
ENDBRANCH  18  21
ENDBRANCH  12  15
ENDBRANCH   7  11
BRANCH   1  25
HETATM   25  C   UNL     1       8.017  24.378  53.656  1.00  0.00    -0.035 A 
HETATM   26  C   UNL     1       8.042  24.275  55.055  1.00  0.00     0.010 A 
HETATM   27  C   UNL     1       8.006  23.027  55.689  1.00  0.00     0.007 A 
HETATM   28  C   UNL     1       7.959  21.850  54.939  1.00  0.00    -0.062 A 
HETATM   29  C   UNL     1       7.887  20.509  55.609  1.00  0.00     0.048 C 
HETATM   30  C   UNL     1       7.986  21.937  53.546  1.00  0.00     0.007 A 
HETATM   31  C   UNL     1       8.018  23.183  52.913  1.00  0.00     0.010 A 
ENDBRANCH   1  25
BRANCH   8  32
HETATM   32  C   UNL     1       4.730  24.825  52.883  1.00  0.00     0.409 C 
HETATM   33  F   UNL     1       3.393  24.960  52.899  1.00  0.00    -0.169 F 
HETATM   34  F   UNL     1       5.021  23.776  52.078  1.00  0.00    -0.169 F 
HETATM   35  F   UNL     1       5.113  24.452  54.133  1.00  0.00    -0.169 F 
ENDBRANCH   8  32
TORSDOF 6
ENDMDL
MODEL 4
REMARK VINA RESULT:      -9.2      3.815      8.783
REMARK  6 active torsions:
REMARK  status: ('A' for Active; 'I' for Inactive)
REMARK    1  A    between atoms: C_5  and  C_6 
REMARK    2  A    between atoms: C_12  and  C_13 
REMARK       I    between atoms: C_13  and  N_14 
REMARK    3  A    between atoms: N_14  and  C_15 
REMARK    4  A    between atoms: C_18  and  C_19 
REMARK    5  A    between atoms: C_19  and  O_20 
REMARK    6  A    between atoms: C_25  and  C_26 
ROOT
HETATM    1  C   UNL     1       5.454  24.852  56.062  1.00  0.00     0.118 C 
HETATM    2  N   UNL     1       4.886  25.811  55.098  1.00  0.00    -0.365 N 
HETATM    3  C   UNL     1       5.374  27.085  55.029  1.00  0.00     0.138 A 
HETATM    4  N   UNL     1       6.275  27.555  55.959  1.00  0.00    -0.240 N 
HETATM    5  N   UNL     1       6.570  28.856  55.819  1.00  0.00    -0.181 NA
HETATM    6  C   UNL     1       5.897  29.207  54.721  1.00  0.00     0.160 A 
HETATM    7  C   UNL     1       5.120  28.151  54.181  1.00  0.00     0.096 A 
HETATM    8  C   UNL     1       6.712  26.828  57.135  1.00  0.00     0.221 C 
HETATM    9  C   UNL     1       5.828  25.589  57.359  1.00  0.00     0.066 C 
HETATM   10  H   UNL     1       3.876  25.691  55.005  1.00  0.00     0.161 HD
ENDROOT
BRANCH   7  11
HETATM   11  C   UNL     1       4.253  28.257  53.015  1.00  0.00     0.261 C 
HETATM   12  N   UNL     1       4.890  28.031  51.809  1.00  0.00    -0.323 N 
HETATM   13  H   UNL     1       5.897  27.937  51.863  1.00  0.00     0.169 HD
HETATM   14  O   UNL     1       3.061  28.504  53.158  1.00  0.00    -0.267 OA
BRANCH  12  15
HETATM   15  C   UNL     1       4.295  27.849  50.545  1.00  0.00     0.035 A 
HETATM   16  C   UNL     1       3.414  28.759  49.962  1.00  0.00     0.030 A 
HETATM   17  C   UNL     1       2.806  28.479  48.732  1.00  0.00     0.012 A 
HETATM   18  C   UNL     1       3.061  27.277  48.062  1.00  0.00    -0.030 A 
HETATM   19  C   UNL     1       3.953  26.366  48.646  1.00  0.00     0.012 A 
HETATM   20  C   UNL     1       4.576  26.658  49.866  1.00  0.00     0.030 A 
BRANCH  18  21
HETATM   21  C   UNL     1       2.336  26.966  46.771  1.00  0.00     0.147 C 
HETATM   22  C   UNL     1       0.830  27.136  46.912  1.00  0.00     0.044 C 
BRANCH  21  23
HETATM   23  O   UNL     1       2.612  25.634  46.343  1.00  0.00    -0.391 OA
HETATM   24  H   UNL     1       2.225  25.542  45.454  1.00  0.00     0.210 HD
ENDBRANCH  21  23
ENDBRANCH  18  21
ENDBRANCH  12  15
ENDBRANCH   7  11
BRANCH   1  25
HETATM   25  C   UNL     1       6.572  24.001  55.482  1.00  0.00    -0.035 A 
HETATM   26  C   UNL     1       7.374  23.152  56.260  1.00  0.00     0.010 A 
HETATM   27  C   UNL     1       8.350  22.339  55.671  1.00  0.00     0.007 A 
HETATM   28  C   UNL     1       8.559  22.365  54.291  1.00  0.00    -0.062 A 
HETATM   29  C   UNL     1       9.579  21.473  53.646  1.00  0.00     0.048 C 
HETATM   30  C   UNL     1       7.803  23.243  53.511  1.00  0.00     0.007 A 
HETATM   31  C   UNL     1       6.826  24.052  54.099  1.00  0.00     0.010 A 
ENDBRANCH   1  25
BRANCH   8  32
HETATM   32  C   UNL     1       8.197  26.542  57.062  1.00  0.00     0.409 C 
HETATM   33  F   UNL     1       8.630  26.176  55.843  1.00  0.00    -0.169 F 
HETATM   34  F   UNL     1       8.933  27.611  57.448  1.00  0.00    -0.169 F 
HETATM   35  F   UNL     1       8.518  25.539  57.922  1.00  0.00    -0.169 F 
ENDBRANCH   8  32
TORSDOF 6
ENDMDL
MODEL 5
REMARK VINA RESULT:      -8.8      7.863     10.196
REMARK  6 active torsions:
REMARK  status: ('A' for Active; 'I' for Inactive)
REMARK    1  A    between atoms: C_5  and  C_6 
REMARK    2  A    between atoms: C_12  and  C_13 
REMARK       I    between atoms: C_13  and  N_14 
REMARK    3  A    between atoms: N_14  and  C_15 
REMARK    4  A    between atoms: C_18  and  C_19 
REMARK    5  A    between atoms: C_19  and  O_20 
REMARK    6  A    between atoms: C_25  and  C_26 
ROOT
HETATM    1  C   UNL     1       4.908  28.625  56.948  1.00  0.00     0.118 C 
HETATM    2  N   UNL     1       5.779  29.476  57.780  1.00  0.00    -0.365 N 
HETATM    3  C   UNL     1       7.137  29.382  57.670  1.00  0.00     0.138 A 
HETATM    4  N   UNL     1       7.725  28.388  56.921  1.00  0.00    -0.240 N 
HETATM    5  N   UNL     1       9.064  28.365  57.005  1.00  0.00    -0.181 NA
HETATM    6  C   UNL     1       9.341  29.423  57.769  1.00  0.00     0.160 A 
HETATM    7  C   UNL     1       8.183  30.099  58.228  1.00  0.00     0.096 A 
HETATM    8  C   UNL     1       7.013  27.301  56.276  1.00  0.00     0.221 C 
HETATM    9  C   UNL     1       5.558  27.242  56.773  1.00  0.00     0.066 C 
HETATM   10  H   UNL     1       5.392  29.599  58.717  1.00  0.00     0.161 HD
ENDROOT
BRANCH   7  11
HETATM   11  C   UNL     1       8.181  31.259  59.111  1.00  0.00     0.261 C 
HETATM   12  N   UNL     1       7.281  31.177  60.156  1.00  0.00    -0.323 N 
HETATM   13  H   UNL     1       6.648  30.387  60.122  1.00  0.00     0.169 HD
HETATM   14  O   UNL     1       8.957  32.186  58.906  1.00  0.00    -0.267 OA
BRANCH  12  15
HETATM   15  C   UNL     1       7.195  32.020  61.283  1.00  0.00     0.035 A 
HETATM   16  C   UNL     1       7.942  31.842  62.447  1.00  0.00     0.030 A 
HETATM   17  C   UNL     1       7.753  32.679  63.553  1.00  0.00     0.012 A 
HETATM   18  C   UNL     1       6.806  33.709  63.521  1.00  0.00    -0.030 A 
HETATM   19  C   UNL     1       6.062  33.892  62.347  1.00  0.00     0.012 A 
HETATM   20  C   UNL     1       6.267  33.066  61.234  1.00  0.00     0.030 A 
BRANCH  18  21
HETATM   21  C   UNL     1       6.570  34.554  64.754  1.00  0.00     0.147 C 
HETATM   22  C   UNL     1       6.907  33.797  66.031  1.00  0.00     0.044 C 
BRANCH  21  23
HETATM   23  O   UNL     1       5.214  34.987  64.819  1.00  0.00    -0.391 OA
HETATM   24  H   UNL     1       5.192  35.888  64.451  1.00  0.00     0.210 HD
ENDBRANCH  21  23
ENDBRANCH  18  21
ENDBRANCH  12  15
ENDBRANCH   7  11
BRANCH   1  25
HETATM   25  C   UNL     1       4.481  29.285  55.648  1.00  0.00    -0.035 A 
HETATM   26  C   UNL     1       3.912  28.577  54.578  1.00  0.00     0.010 A 
HETATM   27  C   UNL     1       3.475  29.239  53.424  1.00  0.00     0.007 A 
HETATM   28  C   UNL     1       3.611  30.624  53.304  1.00  0.00    -0.062 A 
HETATM   29  C   UNL     1       3.117  31.346  52.086  1.00  0.00     0.048 C 
HETATM   30  C   UNL     1       4.223  31.333  54.339  1.00  0.00     0.007 A 
HETATM   31  C   UNL     1       4.655  30.673  55.493  1.00  0.00     0.010 A 
ENDBRANCH   1  25
BRANCH   8  32
HETATM   32  C   UNL     1       7.167  27.383  54.772  1.00  0.00     0.409 C 
HETATM   33  F   UNL     1       6.140  26.859  54.083  1.00  0.00    -0.169 F 
HETATM   34  F   UNL     1       7.325  28.660  54.353  1.00  0.00    -0.169 F 
HETATM   35  F   UNL     1       8.291  26.723  54.385  1.00  0.00    -0.169 F 
ENDBRANCH   8  32
TORSDOF 6
ENDMDL
MODEL 6
REMARK VINA RESULT:      -8.7      2.201      3.914
REMARK  6 active torsions:
REMARK  status: ('A' for Active; 'I' for Inactive)
REMARK    1  A    between atoms: C_5  and  C_6 
REMARK    2  A    between atoms: C_12  and  C_13 
REMARK       I    between atoms: C_13  and  N_14 
REMARK    3  A    between atoms: N_14  and  C_15 
REMARK    4  A    between atoms: C_18  and  C_19 
REMARK    5  A    between atoms: C_19  and  O_20 
REMARK    6  A    between atoms: C_25  and  C_26 
ROOT
HETATM    1  C   UNL     1       3.387  30.375  50.777  1.00  0.00     0.118 C 
HETATM    2  N   UNL     1       4.086  29.228  51.382  1.00  0.00    -0.365 N 
HETATM    3  C   UNL     1       4.229  28.064  50.682  1.00  0.00     0.138 A 
HETATM    4  N   UNL     1       3.585  27.871  49.480  1.00  0.00    -0.240 N 
HETATM    5  N   UNL     1       3.737  26.638  48.974  1.00  0.00    -0.181 NA
HETATM    6  C   UNL     1       4.565  26.052  49.841  1.00  0.00     0.160 A 
HETATM    7  C   UNL     1       4.905  26.882  50.938  1.00  0.00     0.096 A 
HETATM    8  C   UNL     1       2.633  28.793  48.889  1.00  0.00     0.221 C 
HETATM    9  C   UNL     1       2.222  29.868  49.911  1.00  0.00     0.066 C 
HETATM   10  H   UNL     1       3.881  29.151  52.380  1.00  0.00     0.161 HD
ENDROOT
BRANCH   7  11
HETATM   11  C   UNL     1       5.753  26.491  52.057  1.00  0.00     0.261 C 
HETATM   12  N   UNL     1       5.567  25.190  52.484  1.00  0.00    -0.323 N 
HETATM   13  H   UNL     1       4.789  24.701  52.058  1.00  0.00     0.169 HD
HETATM   14  O   UNL     1       6.563  27.287  52.519  1.00  0.00    -0.267 OA
BRANCH  12  15
HETATM   15  C   UNL     1       6.370  24.458  53.382  1.00  0.00     0.035 A 
HETATM   16  C   UNL     1       7.309  23.506  52.987  1.00  0.00     0.030 A 
HETATM   17  C   UNL     1       8.024  22.769  53.939  1.00  0.00     0.012 A 
HETATM   18  C   UNL     1       7.807  22.962  55.308  1.00  0.00    -0.030 A 
HETATM   19  C   UNL     1       6.869  23.926  55.703  1.00  0.00     0.012 A 
HETATM   20  C   UNL     1       6.171  24.677  54.750  1.00  0.00     0.030 A 
BRANCH  18  21
HETATM   21  C   UNL     1       8.539  22.102  56.315  1.00  0.00     0.147 C 
HETATM   22  C   UNL     1       8.065  20.655  56.274  1.00  0.00     0.044 C 
BRANCH  21  23
HETATM   23  O   UNL     1       8.361  22.607  57.637  1.00  0.00    -0.391 OA
HETATM   24  H   UNL     1       7.557  22.185  57.989  1.00  0.00     0.210 HD
ENDBRANCH  21  23
ENDBRANCH  18  21
ENDBRANCH  12  15
ENDBRANCH   7  11
BRANCH   1  25
HETATM   25  C   UNL     1       4.318  31.345  50.068  1.00  0.00    -0.035 A 
HETATM   26  C   UNL     1       5.691  31.108  49.902  1.00  0.00     0.010 A 
HETATM   27  C   UNL     1       6.497  32.001  49.186  1.00  0.00     0.007 A 
HETATM   28  C   UNL     1       5.955  33.162  48.631  1.00  0.00    -0.062 A 
HETATM   29  C   UNL     1       6.803  34.108  47.834  1.00  0.00     0.048 C 
HETATM   30  C   UNL     1       4.600  33.435  48.833  1.00  0.00     0.007 A 
HETATM   31  C   UNL     1       3.794  32.542  49.545  1.00  0.00     0.010 A 
ENDBRANCH   1  25
BRANCH   8  32
HETATM   32  C   UNL     1       3.159  29.333  47.577  1.00  0.00     0.409 C 
HETATM   33  F   UNL     1       4.499  29.401  47.506  1.00  0.00    -0.169 F 
HETATM   34  F   UNL     1       2.736  28.595  46.524  1.00  0.00    -0.169 F 
HETATM   35  F   UNL     1       2.680  30.589  47.368  1.00  0.00    -0.169 F 
ENDBRANCH   8  32
TORSDOF 6
ENDMDL
MODEL 7
REMARK VINA RESULT:      -8.3      3.889      6.060
REMARK  6 active torsions:
REMARK  status: ('A' for Active; 'I' for Inactive)
REMARK    1  A    between atoms: C_5  and  C_6 
REMARK    2  A    between atoms: C_12  and  C_13 
REMARK       I    between atoms: C_13  and  N_14 
REMARK    3  A    between atoms: N_14  and  C_15 
REMARK    4  A    between atoms: C_18  and  C_19 
REMARK    5  A    between atoms: C_19  and  O_20 
REMARK    6  A    between atoms: C_25  and  C_26 
ROOT
HETATM    1  C   UNL     1       3.258  29.554  50.724  1.00  0.00     0.118 C 
HETATM    2  N   UNL     1       3.906  28.923  51.888  1.00  0.00    -0.365 N 
HETATM    3  C   UNL     1       4.664  27.798  51.725  1.00  0.00     0.138 A 
HETATM    4  N   UNL     1       4.702  27.132  50.520  1.00  0.00    -0.240 N 
HETATM    5  N   UNL     1       5.401  25.987  50.554  1.00  0.00    -0.181 NA
HETATM    6  C   UNL     1       5.886  25.961  51.797  1.00  0.00     0.160 A 
HETATM    7  C   UNL     1       5.457  27.058  52.587  1.00  0.00     0.096 A 
HETATM    8  C   UNL     1       3.895  27.463  49.361  1.00  0.00     0.221 C 
HETATM    9  C   UNL     1       2.792  28.465  49.744  1.00  0.00     0.066 C 
HETATM   10  H   UNL     1       3.311  28.970  52.717  1.00  0.00     0.161 HD
ENDROOT
BRANCH   7  11
HETATM   11  C   UNL     1       5.793  27.265  53.990  1.00  0.00     0.261 C 
HETATM   12  N   UNL     1       6.592  28.368  54.226  1.00  0.00    -0.323 N 
HETATM   13  H   UNL     1       6.947  28.831  53.398  1.00  0.00     0.169 HD
HETATM   14  O   UNL     1       5.352  26.504  54.844  1.00  0.00    -0.267 OA
BRANCH  12  15
HETATM   15  C   UNL     1       6.903  28.950  55.472  1.00  0.00     0.035 A 
HETATM   16  C   UNL     1       6.054  29.817  56.159  1.00  0.00     0.030 A 
HETATM   17  C   UNL     1       6.458  30.412  57.360  1.00  0.00     0.012 A 
HETATM   18  C   UNL     1       7.727  30.159  57.895  1.00  0.00    -0.030 A 
HETATM   19  C   UNL     1       8.576  29.282  57.206  1.00  0.00     0.012 A 
HETATM   20  C   UNL     1       8.161  28.671  56.016  1.00  0.00     0.030 A 
BRANCH  18  21
HETATM   21  C   UNL     1       8.168  30.871  59.155  1.00  0.00     0.147 C 
HETATM   22  C   UNL     1       9.489  31.603  58.959  1.00  0.00     0.044 C 
BRANCH  21  23
HETATM   23  O   UNL     1       8.307  29.951  60.235  1.00  0.00    -0.391 OA
HETATM   24  H   UNL     1       9.132  30.186  60.696  1.00  0.00     0.210 HD
ENDBRANCH  21  23
ENDBRANCH  18  21
ENDBRANCH  12  15
ENDBRANCH   7  11
BRANCH   1  25
HETATM   25  C   UNL     1       4.094  30.653  50.089  1.00  0.00    -0.035 A 
HETATM   26  C   UNL     1       5.341  31.057  50.592  1.00  0.00     0.010 A 
HETATM   27  C   UNL     1       6.104  32.030  49.935  1.00  0.00     0.007 A 
HETATM   28  C   UNL     1       5.634  32.635  48.768  1.00  0.00    -0.062 A 
HETATM   29  C   UNL     1       6.458  33.654  48.039  1.00  0.00     0.048 C 
HETATM   30  C   UNL     1       4.372  32.279  48.286  1.00  0.00     0.007 A 
HETATM   31  C   UNL     1       3.612  31.305  48.939  1.00  0.00     0.010 A 
ENDBRANCH   1  25
BRANCH   8  32
HETATM   32  C   UNL     1       4.774  27.897  48.207  1.00  0.00     0.409 C 
HETATM   33  F   UNL     1       5.873  28.576  48.576  1.00  0.00    -0.169 F 
HETATM   34  F   UNL     1       5.181  26.843  47.462  1.00  0.00    -0.169 F 
HETATM   35  F   UNL     1       4.069  28.698  47.365  1.00  0.00    -0.169 F 
ENDBRANCH   8  32
TORSDOF 6
ENDMDL
MODEL 8
REMARK VINA RESULT:      -8.2      4.006      9.232
REMARK  6 active torsions:
REMARK  status: ('A' for Active; 'I' for Inactive)
REMARK    1  A    between atoms: C_5  and  C_6 
REMARK    2  A    between atoms: C_12  and  C_13 
REMARK       I    between atoms: C_13  and  N_14 
REMARK    3  A    between atoms: N_14  and  C_15 
REMARK    4  A    between atoms: C_18  and  C_19 
REMARK    5  A    between atoms: C_19  and  O_20 
REMARK    6  A    between atoms: C_25  and  C_26 
ROOT
HETATM    1  C   UNL     1       5.413  24.925  55.755  1.00  0.00     0.118 C 
HETATM    2  N   UNL     1       5.021  26.014  54.843  1.00  0.00    -0.365 N 
HETATM    3  C   UNL     1       5.648  27.226  54.912  1.00  0.00     0.138 A 
HETATM    4  N   UNL     1       6.528  27.517  55.930  1.00  0.00    -0.240 N 
HETATM    5  N   UNL     1       6.971  28.783  55.919  1.00  0.00    -0.181 NA
HETATM    6  C   UNL     1       6.418  29.292  54.816  1.00  0.00     0.160 A 
HETATM    7  C   UNL     1       5.570  28.376  54.143  1.00  0.00     0.096 A 
HETATM    8  C   UNL     1       6.801  26.656  57.065  1.00  0.00     0.221 C 
HETATM    9  C   UNL     1       5.774  25.512  57.130  1.00  0.00     0.066 C 
HETATM   10  H   UNL     1       4.012  26.018  54.680  1.00  0.00     0.161 HD
ENDROOT
BRANCH   7  11
HETATM   11  C   UNL     1       4.803  28.671  52.940  1.00  0.00     0.261 C 
HETATM   12  N   UNL     1       5.536  29.259  51.927  1.00  0.00    -0.323 N 
HETATM   13  H   UNL     1       6.481  29.526  52.175  1.00  0.00     0.169 HD
HETATM   14  O   UNL     1       3.614  28.373  52.883  1.00  0.00    -0.267 OA
BRANCH  12  15
HETATM   15  C   UNL     1       5.142  29.462  50.589  1.00  0.00     0.035 A 
HETATM   16  C   UNL     1       5.444  28.585  49.548  1.00  0.00     0.030 A 
HETATM   17  C   UNL     1       5.078  28.886  48.230  1.00  0.00     0.012 A 
HETATM   18  C   UNL     1       4.409  30.076  47.925  1.00  0.00    -0.030 A 
HETATM   19  C   UNL     1       4.099  30.953  48.974  1.00  0.00     0.012 A 
HETATM   20  C   UNL     1       4.447  30.640  50.294  1.00  0.00     0.030 A 
BRANCH  18  21
HETATM   21  C   UNL     1       4.090  30.413  46.484  1.00  0.00     0.147 C 
HETATM   22  C   UNL     1       4.301  31.891  46.188  1.00  0.00     0.044 C 
BRANCH  21  23
HETATM   23  O   UNL     1       2.743  30.068  46.170  1.00  0.00    -0.391 OA
HETATM   24  H   UNL     1       2.740  29.116  45.967  1.00  0.00     0.210 HD
ENDBRANCH  21  23
ENDBRANCH  18  21
ENDBRANCH  12  15
ENDBRANCH   7  11
BRANCH   1  25
HETATM   25  C   UNL     1       6.469  24.000  55.173  1.00  0.00    -0.035 A 
HETATM   26  C   UNL     1       7.165  23.052  55.939  1.00  0.00     0.010 A 
HETATM   27  C   UNL     1       8.084  22.178  55.345  1.00  0.00     0.007 A 
HETATM   28  C   UNL     1       8.341  22.238  53.974  1.00  0.00    -0.062 A 
HETATM   29  C   UNL     1       9.298  21.285  53.324  1.00  0.00     0.048 C 
HETATM   30  C   UNL     1       7.693  23.211  53.210  1.00  0.00     0.007 A 
HETATM   31  C   UNL     1       6.773  24.082  53.802  1.00  0.00     0.010 A 
ENDBRANCH   1  25
BRANCH   8  32
HETATM   32  C   UNL     1       8.247  26.210  57.058  1.00  0.00     0.409 C 
HETATM   33  F   UNL     1       8.681  25.761  55.867  1.00  0.00    -0.169 F 
HETATM   34  F   UNL     1       9.082  27.204  57.442  1.00  0.00    -0.169 F 
HETATM   35  F   UNL     1       8.426  25.205  57.956  1.00  0.00    -0.169 F 
ENDBRANCH   8  32
TORSDOF 6
ENDMDL
MODEL 9
REMARK VINA RESULT:      -7.8      2.784      4.718
REMARK  6 active torsions:
REMARK  status: ('A' for Active; 'I' for Inactive)
REMARK    1  A    between atoms: C_5  and  C_6 
REMARK    2  A    between atoms: C_12  and  C_13 
REMARK       I    between atoms: C_13  and  N_14 
REMARK    3  A    between atoms: N_14  and  C_15 
REMARK    4  A    between atoms: C_18  and  C_19 
REMARK    5  A    between atoms: C_19  and  O_20 
REMARK    6  A    between atoms: C_25  and  C_26 
ROOT
HETATM    1  C   UNL     1       3.645  32.058  49.962  1.00  0.00     0.118 C 
HETATM    2  N   UNL     1       4.070  30.785  50.572  1.00  0.00    -0.365 N 
HETATM    3  C   UNL     1       3.920  29.612  49.888  1.00  0.00     0.138 A 
HETATM    4  N   UNL     1       3.223  29.563  48.701  1.00  0.00    -0.240 N 
HETATM    5  N   UNL     1       3.070  28.323  48.213  1.00  0.00    -0.181 NA
HETATM    6  C   UNL     1       3.757  27.568  49.072  1.00  0.00     0.160 A 
HETATM    7  C   UNL     1       4.307  28.308  50.150  1.00  0.00     0.096 A 
HETATM    8  C   UNL     1       2.499  30.675  48.115  1.00  0.00     0.221 C 
HETATM    9  C   UNL     1       2.374  31.828  49.128  1.00  0.00     0.066 C 
HETATM   10  H   UNL     1       3.875  30.769  51.575  1.00  0.00     0.161 HD
ENDROOT
BRANCH   7  11
HETATM   11  C   UNL     1       5.065  27.741  51.257  1.00  0.00     0.261 C 
HETATM   12  N   UNL     1       4.940  26.371  51.390  1.00  0.00    -0.323 N 
HETATM   13  H   UNL     1       4.251  25.939  50.787  1.00  0.00     0.169 HD
HETATM   14  O   UNL     1       5.758  28.468  51.961  1.00  0.00    -0.267 OA
BRANCH  12  15
HETATM   15  C   UNL     1       5.704  25.516  52.209  1.00  0.00     0.035 A 
HETATM   16  C   UNL     1       5.314  25.104  53.483  1.00  0.00     0.030 A 
HETATM   17  C   UNL     1       6.156  24.308  54.268  1.00  0.00     0.012 A 
HETATM   18  C   UNL     1       7.414  23.913  53.798  1.00  0.00    -0.030 A 
HETATM   19  C   UNL     1       7.802  24.321  52.514  1.00  0.00     0.012 A 
HETATM   20  C   UNL     1       6.948  25.100  51.722  1.00  0.00     0.030 A 
BRANCH  18  21
HETATM   21  C   UNL     1       8.336  23.115  54.693  1.00  0.00     0.147 C 
HETATM   22  C   UNL     1       8.983  21.954  53.949  1.00  0.00     0.044 C 
BRANCH  21  23
HETATM   23  O   UNL     1       7.629  22.602  55.820  1.00  0.00    -0.391 OA
HETATM   24  H   UNL     1       8.111  21.809  56.113  1.00  0.00     0.210 HD
ENDBRANCH  21  23
ENDBRANCH  18  21
ENDBRANCH  12  15
ENDBRANCH   7  11
BRANCH   1  25
HETATM   25  C   UNL     1       4.761  32.775  49.220  1.00  0.00    -0.035 A 
HETATM   26  C   UNL     1       4.592  34.021  48.598  1.00  0.00     0.010 A 
HETATM   27  C   UNL     1       5.666  34.673  47.981  1.00  0.00     0.007 A 
HETATM   28  C   UNL     1       6.934  34.088  47.956  1.00  0.00    -0.062 A 
HETATM   29  C   UNL     1       8.099  34.792  47.326  1.00  0.00     0.048 C 
HETATM   30  C   UNL     1       7.104  32.824  48.526  1.00  0.00     0.007 A 
HETATM   31  C   UNL     1       6.032  32.176  49.146  1.00  0.00     0.010 A 
ENDBRANCH   1  25
BRANCH   8  32
HETATM   32  C   UNL     1       3.107  31.063  46.784  1.00  0.00     0.409 C 
HETATM   33  F   UNL     1       4.431  30.848  46.699  1.00  0.00    -0.169 F 
HETATM   34  F   UNL     1       2.524  30.405  45.755  1.00  0.00    -0.169 F 
HETATM   35  F   UNL     1       2.898  32.386  46.548  1.00  0.00    -0.169 F 
ENDBRANCH   8  32
TORSDOF 6
ENDMDL
MODEL 10
REMARK VINA RESULT:      -7.8      2.246      4.453
REMARK  6 active torsions:
REMARK  status: ('A' for Active; 'I' for Inactive)
REMARK    1  A    between atoms: C_5  and  C_6 
REMARK    2  A    between atoms: C_12  and  C_13 
REMARK       I    between atoms: C_13  and  N_14 
REMARK    3  A    between atoms: N_14  and  C_15 
REMARK    4  A    between atoms: C_18  and  C_19 
REMARK    5  A    between atoms: C_19  and  O_20 
REMARK    6  A    between atoms: C_25  and  C_26 
ROOT
HETATM    1  C   UNL     1       1.759  29.930  50.160  1.00  0.00     0.118 C 
HETATM    2  N   UNL     1       2.554  28.689  50.171  1.00  0.00    -0.365 N 
HETATM    3  C   UNL     1       3.578  28.522  49.282  1.00  0.00     0.138 A 
HETATM    4  N   UNL     1       3.784  29.416  48.255  1.00  0.00    -0.240 N 
HETATM    5  N   UNL     1       4.757  29.052  47.407  1.00  0.00    -0.181 NA
HETATM    6  C   UNL     1       5.237  27.933  47.951  1.00  0.00     0.160 A 
HETATM    7  C   UNL     1       4.539  27.538  49.121  1.00  0.00     0.096 A 
HETATM    8  C   UNL     1       2.914  30.533  47.937  1.00  0.00     0.221 C 
HETATM    9  C   UNL     1       1.589  30.418  48.712  1.00  0.00     0.066 C 
HETATM   10  H   UNL     1       1.970  27.875  50.370  1.00  0.00     0.161 HD
ENDROOT
BRANCH   7  11
HETATM   11  C   UNL     1       4.816  26.336  49.898  1.00  0.00     0.261 C 
HETATM   12  N   UNL     1       5.831  26.479  50.825  1.00  0.00    -0.323 N 
HETATM   13  H   UNL     1       6.342  27.352  50.777  1.00  0.00     0.169 HD
HETATM   14  O   UNL     1       4.150  25.322  49.715  1.00  0.00    -0.267 OA
BRANCH  12  15
HETATM   15  C   UNL     1       6.181  25.585  51.857  1.00  0.00     0.035 A 
HETATM   16  C   UNL     1       5.368  25.308  52.955  1.00  0.00     0.030 A 
HETATM   17  C   UNL     1       5.811  24.461  53.978  1.00  0.00     0.012 A 
HETATM   18  C   UNL     1       7.083  23.880  53.929  1.00  0.00    -0.030 A 
HETATM   19  C   UNL     1       7.896  24.154  52.821  1.00  0.00     0.012 A 
HETATM   20  C   UNL     1       7.443  24.984  51.788  1.00  0.00     0.030 A 
BRANCH  18  21
HETATM   21  C   UNL     1       7.567  23.028  55.082  1.00  0.00     0.147 C 
HETATM   22  C   UNL     1       8.945  23.458  55.564  1.00  0.00     0.044 C 
BRANCH  21  23
HETATM   23  O   UNL     1       7.617  21.653  54.709  1.00  0.00    -0.391 OA
HETATM   24  H   UNL     1       6.906  21.205  55.200  1.00  0.00     0.210 HD
ENDBRANCH  21  23
ENDBRANCH  18  21
ENDBRANCH  12  15
ENDBRANCH   7  11
BRANCH   1  25
HETATM   25  C   UNL     1       2.277  30.988  51.120  1.00  0.00    -0.035 A 
HETATM   26  C   UNL     1       1.702  32.262  51.241  1.00  0.00     0.010 A 
HETATM   27  C   UNL     1       2.174  33.182  52.186  1.00  0.00     0.007 A 
HETATM   28  C   UNL     1       3.243  32.856  53.023  1.00  0.00    -0.062 A 
HETATM   29  C   UNL     1       3.735  33.821  54.061  1.00  0.00     0.048 C 
HETATM   30  C   UNL     1       3.857  31.610  52.878  1.00  0.00     0.007 A 
HETATM   31  C   UNL     1       3.383  30.691  51.938  1.00  0.00     0.010 A 
ENDBRANCH   1  25
BRANCH   8  32
HETATM   32  C   UNL     1       3.645  31.845  48.122  1.00  0.00     0.409 C 
HETATM   33  F   UNL     1       4.541  31.843  49.123  1.00  0.00    -0.169 F 
HETATM   34  F   UNL     1       4.299  32.219  46.997  1.00  0.00    -0.169 F 
HETATM   35  F   UNL     1       2.753  32.838  48.382  1.00  0.00    -0.169 F 
ENDBRANCH   8  32
TORSDOF 6
ENDMDL
