MODEL 1
REMARK VINA RESULT:      -9.0      0.000      0.000
REMARK  11 active torsions:
REMARK  status: ('A' for Active; 'I' for Inactive)
REMARK    1  A    between atoms: O_2  and  C_3 
REMARK    2  A    between atoms: C_6  and  C_7 
REMARK    3  A    between atoms: C_7  and  N_8 
REMARK    4  A    between atoms: C_7  and  C_29 
REMARK       I    between atoms: N_8  and  C_9 
REMARK    5  A    between atoms: N_8  and  C_20 
REMARK    6  A    between atoms: C_9  and  C_10 
REMARK    7  A    between atoms: C_13  and  C_14 
REMARK       I    between atoms: C_14  and  N_15 
REMARK    8  A    between atoms: C_17  and  N_18 
REMARK    9  A    between atoms: C_20  and  C_21 
REMARK   10  A    between atoms: C_21  and  N_22 
REMARK       I    between atoms: C_29  and  N_30 
REMARK   11  A    between atoms: N_30  and  C_31 
ROOT
HETATM    1  N   UNL     1       5.378  27.163  53.845  1.00  0.00    -0.328 N 
HETATM    2  C   UNL     1       4.271  28.032  53.877  1.00  0.00     0.265 C 
HETATM    3  O   UNL     1       3.298  27.837  53.150  1.00  0.00    -0.267 OA
ENDROOT
BRANCH   1   4
HETATM    4  C   UNL     1       5.347  26.051  52.873  1.00  0.00     0.213 C 
BRANCH   4   5
HETATM    5  C   UNL     1       6.218  24.838  53.152  1.00  0.00    -0.026 A 
HETATM    6  C   UNL     1       7.168  24.358  52.240  1.00  0.00     0.012 A 
HETATM    7  C   UNL     1       8.044  23.328  52.595  1.00  0.00     0.037 A 
HETATM    8  C   UNL     1       8.016  22.774  53.874  1.00  0.00     0.068 A 
HETATM    9  C   UNL     1       7.067  23.224  54.787  1.00  0.00     0.037 A 
HETATM   10  C   UNL     1       6.182  24.248  54.431  1.00  0.00     0.012 A 
BRANCH   8  11
HETATM   11  O   UNL     1       8.953  21.808  54.107  1.00  0.00    -0.356 OA
HETATM   12  C   UNL     1       8.846  20.622  53.326  1.00  0.00     0.210 C 
ENDBRANCH   8  11
ENDBRANCH   4   5
BRANCH   4  13
HETATM   13  C   UNL     1       5.363  26.649  51.448  1.00  0.00     0.245 C 
HETATM   14  N   UNL     1       4.433  26.181  50.560  1.00  0.00    -0.354 N 
HETATM   15  H   UNL     1       4.012  25.286  50.811  1.00  0.00     0.162 HD
HETATM   16  O   UNL     1       6.280  27.425  51.154  1.00  0.00    -0.271 OA
BRANCH  14  17
HETATM   17  C   UNL     1       4.285  26.566  49.160  1.00  0.00     0.084 C 
HETATM   18  C   UNL     1       3.451  25.583  48.334  1.00  0.00     0.025 C 
HETATM   19  C   UNL     1       2.204  26.337  47.874  1.00  0.00     0.002 C 
HETATM   20  C   UNL     1       2.189  27.662  48.620  1.00  0.00     0.002 C 
HETATM   21  C   UNL     1       3.646  27.938  48.953  1.00  0.00     0.025 C 
ENDBRANCH  14  17
ENDBRANCH   4  13
ENDBRANCH   1   4
BRANCH   1  22
HETATM   22  C   UNL     1       6.575  27.301  54.696  1.00  0.00     0.155 C 
BRANCH  22  23
HETATM   23  C   UNL     1       7.617  28.343  54.224  1.00  0.00     0.255 C 
BRANCH  23  24
HETATM   24  N   UNL     1       8.221  29.168  55.337  1.00  0.00    -0.066 N 
HETATM   25  H   UNL     1       7.941  30.163  55.221  1.00  0.00     0.280 HD
HETATM   26  C   UNL     1       7.812  28.732  56.737  1.00  0.00     0.261 C 
HETATM   27  C   UNL     1       8.493  29.619  57.785  1.00  0.00     0.195 C 
HETATM   28  O   UNL     1       9.917  29.566  57.645  1.00  0.00    -0.388 OA
HETATM   29  C   UNL     1      10.330  30.057  56.365  1.00  0.00     0.195 C 
HETATM   30  C   UNL     1       9.748  29.199  55.235  1.00  0.00     0.261 C 
ENDBRANCH  23  24
ENDBRANCH  22  23
ENDBRANCH   1  22
BRANCH   2  31
HETATM   31  C   UNL     1       4.309  29.133  54.799  1.00  0.00     0.115 A 
HETATM   32  S   UNL     1       4.322  30.731  54.208  1.00  0.00     0.019 SA
HETATM   33  N   UNL     1       4.458  31.464  55.687  1.00  0.00    -0.203 NA
HETATM   34  C   UNL     1       4.392  30.532  56.651  1.00  0.00     0.155 A 
HETATM   35  C   UNL     1       4.283  29.168  56.175  1.00  0.00     0.065 A 
BRANCH  34  36
HETATM   36  C   UNL     1       4.429  30.934  58.068  1.00  0.00     0.270 C 
HETATM   37  N   UNL     1       3.416  30.446  58.844  1.00  0.00    -0.365 N 
HETATM   38  H   UNL     1       2.745  29.795  58.452  1.00  0.00     0.159 HD
HETATM   39  H   UNL     1       3.417  30.630  59.837  1.00  0.00     0.159 HD
HETATM   40  O   UNL     1       5.303  31.661  58.533  1.00  0.00    -0.266 OA
ENDBRANCH  34  36
BRANCH  35  41
HETATM   41  N   UNL     1       4.188  28.063  56.970  1.00  0.00    -0.299 NA
HETATM   42  H   UNL     1       5.048  27.807  57.479  1.00  0.00     0.124 HD
HETATM   43  H   UNL     1       3.401  28.012  57.620  1.00  0.00     0.124 HD
ENDBRANCH  35  41
ENDBRANCH   2  31
TORSDOF 11
ENDMDL
MODEL 2
REMARK VINA RESULT:      -8.6      1.838      4.858
REMARK  11 active torsions:
REMARK  status: ('A' for Active; 'I' for Inactive)
REMARK    1  A    between atoms: O_2  and  C_3 
REMARK    2  A    between atoms: C_6  and  C_7 
REMARK    3  A    between atoms: C_7  and  N_8 
REMARK    4  A    between atoms: C_7  and  C_29 
REMARK       I    between atoms: N_8  and  C_9 
REMARK    5  A    between atoms: N_8  and  C_20 
REMARK    6  A    between atoms: C_9  and  C_10 
REMARK    7  A    between atoms: C_13  and  C_14 
REMARK       I    between atoms: C_14  and  N_15 
REMARK    8  A    between atoms: C_17  and  N_18 
REMARK    9  A    between atoms: C_20  and  C_21 
REMARK   10  A    between atoms: C_21  and  N_22 
REMARK       I    between atoms: C_29  and  N_30 
REMARK   11  A    between atoms: N_30  and  C_31 
ROOT
HETATM    1  N   UNL     1       6.121  28.428  54.512  1.00  0.00    -0.328 N 
HETATM    2  C   UNL     1       4.783  28.822  54.702  1.00  0.00     0.265 C 
HETATM    3  O   UNL     1       3.869  28.241  54.120  1.00  0.00    -0.267 OA
ENDROOT
BRANCH   1   4
HETATM    4  C   UNL     1       6.383  27.336  53.552  1.00  0.00     0.213 C 
BRANCH   4   5
HETATM    5  C   UNL     1       5.769  27.445  52.166  1.00  0.00    -0.026 A 
HETATM    6  C   UNL     1       5.802  28.624  51.411  1.00  0.00     0.012 A 
HETATM    7  C   UNL     1       5.351  28.640  50.087  1.00  0.00     0.037 A 
HETATM    8  C   UNL     1       4.887  27.476  49.476  1.00  0.00     0.068 A 
HETATM    9  C   UNL     1       4.829  26.299  50.216  1.00  0.00     0.037 A 
HETATM   10  C   UNL     1       5.271  26.283  51.544  1.00  0.00     0.012 A 
BRANCH   8  11
HETATM   11  O   UNL     1       4.520  27.616  48.169  1.00  0.00    -0.356 OA
HETATM   12  C   UNL     1       3.808  26.526  47.592  1.00  0.00     0.210 C 
ENDBRANCH   8  11
ENDBRANCH   4   5
BRANCH   4  13
HETATM   13  C   UNL     1       6.262  25.989  54.300  1.00  0.00     0.245 C 
HETATM   14  N   UNL     1       7.029  24.949  53.849  1.00  0.00    -0.354 N 
HETATM   15  H   UNL     1       7.381  25.057  52.896  1.00  0.00     0.162 HD
HETATM   16  O   UNL     1       5.404  25.891  55.184  1.00  0.00    -0.271 OA
BRANCH  14  17
HETATM   17  C   UNL     1       7.051  23.586  54.369  1.00  0.00     0.084 C 
HETATM   18  C   UNL     1       7.657  22.566  53.401  1.00  0.00     0.025 C 
HETATM   19  C   UNL     1       8.920  22.019  54.066  1.00  0.00     0.002 C 
HETATM   20  C   UNL     1       9.181  22.881  55.291  1.00  0.00     0.002 C 
HETATM   21  C   UNL     1       7.818  23.429  55.680  1.00  0.00     0.025 C 
ENDBRANCH  14  17
ENDBRANCH   4  13
ENDBRANCH   1   4
BRANCH   1  22
HETATM   22  C   UNL     1       7.280  29.046  55.185  1.00  0.00     0.155 C 
BRANCH  22  23
HETATM   23  C   UNL     1       7.862  28.254  56.380  1.00  0.00     0.255 C 
BRANCH  23  24
HETATM   24  N   UNL     1       8.903  29.006  57.178  1.00  0.00    -0.066 N 
HETATM   25  H   UNL     1       9.261  28.395  57.940  1.00  0.00     0.280 HD
HETATM   26  C   UNL     1      10.098  29.479  56.364  1.00  0.00     0.261 C 
HETATM   27  C   UNL     1      11.078  30.242  57.263  1.00  0.00     0.195 C 
HETATM   28  O   UNL     1      10.430  31.356  57.888  1.00  0.00    -0.388 OA
HETATM   29  C   UNL     1       9.356  30.924  58.731  1.00  0.00     0.195 C 
HETATM   30  C   UNL     1       8.281  30.194  57.917  1.00  0.00     0.261 C 
ENDBRANCH  23  24
ENDBRANCH  22  23
ENDBRANCH   1  22
BRANCH   2  31
HETATM   31  C   UNL     1       4.526  29.904  55.611  1.00  0.00     0.115 A 
HETATM   32  S   UNL     1       4.136  31.447  55.001  1.00  0.00     0.019 SA
HETATM   33  N   UNL     1       4.060  32.204  56.472  1.00  0.00    -0.203 NA
HETATM   34  C   UNL     1       4.222  31.294  57.447  1.00  0.00     0.155 A 
HETATM   35  C   UNL     1       4.473  29.944  56.986  1.00  0.00     0.065 A 
BRANCH  34  36
HETATM   36  C   UNL     1       4.137  31.705  58.859  1.00  0.00     0.270 C 
HETATM   37  N   UNL     1       5.282  31.547  59.588  1.00  0.00    -0.365 N 
HETATM   38  H   UNL     1       6.133  31.235  59.133  1.00  0.00     0.159 HD
HETATM   39  H   UNL     1       5.311  31.870  60.544  1.00  0.00     0.159 HD
HETATM   40  O   UNL     1       3.112  32.158  59.362  1.00  0.00    -0.266 OA
ENDBRANCH  34  36
BRANCH  35  41
HETATM   41  N   UNL     1       4.655  28.859  57.793  1.00  0.00    -0.299 NA
HETATM   42  H   UNL     1       5.241  28.106  57.401  1.00  0.00     0.124 HD
HETATM   43  H   UNL     1       4.951  29.028  58.757  1.00  0.00     0.124 HD
ENDBRANCH  35  41
ENDBRANCH   2  31
TORSDOF 11
ENDMDL
MODEL 3
REMARK VINA RESULT:      -8.4      9.245     13.170
REMARK  11 active torsions:
REMARK  status: ('A' for Active; 'I' for Inactive)
REMARK    1  A    between atoms: O_2  and  C_3 
REMARK    2  A    between atoms: C_6  and  C_7 
REMARK    3  A    between atoms: C_7  and  N_8 
REMARK    4  A    between atoms: C_7  and  C_29 
REMARK       I    between atoms: N_8  and  C_9 
REMARK    5  A    between atoms: N_8  and  C_20 
REMARK    6  A    between atoms: C_9  and  C_10 
REMARK    7  A    between atoms: C_13  and  C_14 
REMARK       I    between atoms: C_14  and  N_15 
REMARK    8  A    between atoms: C_17  and  N_18 
REMARK    9  A    between atoms: C_20  and  C_21 
REMARK   10  A    between atoms: C_21  and  N_22 
REMARK       I    between atoms: C_29  and  N_30 
REMARK   11  A    between atoms: N_30  and  C_31 
ROOT
HETATM    1  N   UNL     1       4.912  33.814  63.499  1.00  0.00    -0.328 N 
HETATM    2  C   UNL     1       4.204  32.885  62.714  1.00  0.00     0.265 C 
HETATM    3  O   UNL     1       4.324  31.677  62.910  1.00  0.00    -0.267 OA
ENDROOT
BRANCH   1   4
HETATM    4  C   UNL     1       5.836  33.282  64.521  1.00  0.00     0.213 C 
BRANCH   4   5
HETATM    5  C   UNL     1       5.704  33.806  65.942  1.00  0.00    -0.026 A 
HETATM    6  C   UNL     1       4.471  33.920  66.598  1.00  0.00     0.012 A 
HETATM    7  C   UNL     1       4.409  34.272  67.950  1.00  0.00     0.037 A 
HETATM    8  C   UNL     1       5.573  34.488  68.686  1.00  0.00     0.068 A 
HETATM    9  C   UNL     1       6.806  34.397  68.048  1.00  0.00     0.037 A 
HETATM   10  C   UNL     1       6.870  34.055  66.692  1.00  0.00     0.012 A 
BRANCH   8  11
HETATM   11  O   UNL     1       5.377  34.780  70.006  1.00  0.00    -0.356 OA
HETATM   12  C   UNL     1       6.547  35.022  70.780  1.00  0.00     0.210 C 
ENDBRANCH   8  11
ENDBRANCH   4   5
BRANCH   4  13
HETATM   13  C   UNL     1       7.250  33.198  63.903  1.00  0.00     0.245 C 
HETATM   14  N   UNL     1       7.453  32.262  62.925  1.00  0.00    -0.354 N 
HETATM   15  H   UNL     1       6.759  31.514  62.897  1.00  0.00     0.162 HD
HETATM   16  O   UNL     1       8.144  33.893  64.401  1.00  0.00    -0.271 OA
BRANCH  14  17
HETATM   17  C   UNL     1       8.704  31.975  62.232  1.00  0.00     0.084 C 
HETATM   18  C   UNL     1       8.891  30.498  61.878  1.00  0.00     0.025 C 
HETATM   19  C   UNL     1       8.918  30.406  60.353  1.00  0.00     0.002 C 
HETATM   20  C   UNL     1       8.512  31.772  59.822  1.00  0.00     0.002 C 
HETATM   21  C   UNL     1       8.887  32.746  60.926  1.00  0.00     0.025 C 
ENDBRANCH  14  17
ENDBRANCH   4  13
ENDBRANCH   1   4
BRANCH   1  22
HETATM   22  C   UNL     1       4.813  35.280  63.356  1.00  0.00     0.155 C 
BRANCH  22  23
HETATM   23  C   UNL     1       5.676  35.903  62.234  1.00  0.00     0.255 C 
BRANCH  23  24
HETATM   24  N   UNL     1       5.239  37.285  61.806  1.00  0.00    -0.066 N 
HETATM   25  H   UNL     1       4.557  37.661  62.496  1.00  0.00     0.280 HD
HETATM   26  C   UNL     1       6.373  38.292  61.680  1.00  0.00     0.261 C 
HETATM   27  C   UNL     1       5.824  39.649  61.225  1.00  0.00     0.195 C 
HETATM   28  O   UNL     1       5.132  39.522  59.978  1.00  0.00    -0.388 OA
HETATM   29  C   UNL     1       4.005  38.647  60.098  1.00  0.00     0.195 C 
HETATM   30  C   UNL     1       4.449  37.234  60.495  1.00  0.00     0.261 C 
ENDBRANCH  23  24
ENDBRANCH  22  23
ENDBRANCH   1  22
BRANCH   2  31
HETATM   31  C   UNL     1       3.327  33.396  61.697  1.00  0.00     0.115 A 
HETATM   32  S   UNL     1       3.764  33.262  60.056  1.00  0.00     0.019 SA
HETATM   33  N   UNL     1       2.454  34.077  59.457  1.00  0.00    -0.203 NA
HETATM   34  C   UNL     1       1.617  34.373  60.465  1.00  0.00     0.155 A 
HETATM   35  C   UNL     1       2.080  33.973  61.779  1.00  0.00     0.065 A 
BRANCH  34  36
HETATM   36  C   UNL     1       0.339  35.050  60.187  1.00  0.00     0.270 C 
HETATM   37  N   UNL     1      -0.731  34.609  60.915  1.00  0.00    -0.365 N 
HETATM   38  H   UNL     1      -0.598  33.913  61.641  1.00  0.00     0.159 HD
HETATM   39  H   UNL     1      -1.622  35.074  60.821  1.00  0.00     0.159 HD
HETATM   40  O   UNL     1       0.225  35.948  59.358  1.00  0.00    -0.266 OA
ENDBRANCH  34  36
BRANCH  35  41
HETATM   41  N   UNL     1       1.393  34.157  62.944  1.00  0.00    -0.299 NA
HETATM   42  H   UNL     1       0.429  34.507  62.841  1.00  0.00     0.124 HD
HETATM   43  H   UNL     1       1.388  33.388  63.618  1.00  0.00     0.124 HD
ENDBRANCH  35  41
ENDBRANCH   2  31
TORSDOF 11
ENDMDL
MODEL 4
REMARK VINA RESULT:      -8.4      6.724     13.311
REMARK  11 active torsions:
REMARK  status: ('A' for Active; 'I' for Inactive)
REMARK    1  A    between atoms: O_2  and  C_3 
REMARK    2  A    between atoms: C_6  and  C_7 
REMARK    3  A    between atoms: C_7  and  N_8 
REMARK    4  A    between atoms: C_7  and  C_29 
REMARK       I    between atoms: N_8  and  C_9 
REMARK    5  A    between atoms: N_8  and  C_20 
REMARK    6  A    between atoms: C_9  and  C_10 
REMARK    7  A    between atoms: C_13  and  C_14 
REMARK       I    between atoms: C_14  and  N_15 
REMARK    8  A    between atoms: C_17  and  N_18 
REMARK    9  A    between atoms: C_20  and  C_21 
REMARK   10  A    between atoms: C_21  and  N_22 
REMARK       I    between atoms: C_29  and  N_30 
REMARK   11  A    between atoms: N_30  and  C_31 
ROOT
HETATM    1  N   UNL     1       4.486  34.581  61.665  1.00  0.00    -0.328 N 
HETATM    2  C   UNL     1       3.468  34.448  60.701  1.00  0.00     0.265 C 
HETATM    3  O   UNL     1       2.412  35.067  60.814  1.00  0.00    -0.267 OA
ENDROOT
BRANCH   1   4
HETATM    4  C   UNL     1       4.212  35.441  62.834  1.00  0.00     0.213 C 
BRANCH   4   5
HETATM    5  C   UNL     1       4.946  36.769  62.927  1.00  0.00    -0.026 A 
HETATM    6  C   UNL     1       5.097  37.470  64.131  1.00  0.00     0.012 A 
HETATM    7  C   UNL     1       5.898  38.614  64.197  1.00  0.00     0.037 A 
HETATM    8  C   UNL     1       6.592  39.067  63.075  1.00  0.00     0.068 A 
HETATM    9  C   UNL     1       6.439  38.395  61.867  1.00  0.00     0.037 A 
HETATM   10  C   UNL     1       5.630  37.255  61.796  1.00  0.00     0.012 A 
BRANCH   8  11
HETATM   11  O   UNL     1       7.374  40.166  63.284  1.00  0.00    -0.356 OA
HETATM   12  C   UNL     1       7.026  40.990  64.392  1.00  0.00     0.210 C 
ENDBRANCH   8  11
ENDBRANCH   4   5
BRANCH   4  13
HETATM   13  C   UNL     1       4.157  34.548  64.094  1.00  0.00     0.245 C 
HETATM   14  N   UNL     1       5.208  34.628  64.967  1.00  0.00    -0.354 N 
HETATM   15  H   UNL     1       6.060  35.032  64.577  1.00  0.00     0.162 HD
HETATM   16  O   UNL     1       3.232  33.733  64.188  1.00  0.00    -0.271 OA
BRANCH  14  17
HETATM   17  C   UNL     1       5.390  33.857  66.193  1.00  0.00     0.084 C 
HETATM   18  C   UNL     1       6.823  33.883  66.732  1.00  0.00     0.025 C 
HETATM   19  C   UNL     1       6.774  34.581  68.090  1.00  0.00     0.002 C 
HETATM   20  C   UNL     1       5.379  35.169  68.234  1.00  0.00     0.002 C 
HETATM   21  C   UNL     1       4.498  34.302  67.350  1.00  0.00     0.025 C 
ENDBRANCH  14  17
ENDBRANCH   4  13
ENDBRANCH   1   4
BRANCH   1  22
HETATM   22  C   UNL     1       5.794  33.900  61.601  1.00  0.00     0.155 C 
BRANCH  22  23
HETATM   23  C   UNL     1       5.848  32.491  62.236  1.00  0.00     0.255 C 
BRANCH  23  24
HETATM   24  N   UNL     1       6.823  31.545  61.573  1.00  0.00    -0.066 N 
HETATM   25  H   UNL     1       6.461  30.572  61.640  1.00  0.00     0.280 HD
HETATM   26  C   UNL     1       7.086  31.842  60.104  1.00  0.00     0.261 C 
HETATM   27  C   UNL     1       8.098  30.840  59.537  1.00  0.00     0.195 C 
HETATM   28  O   UNL     1       9.322  30.883  60.279  1.00  0.00    -0.388 OA
HETATM   29  C   UNL     1       9.112  30.519  61.648  1.00  0.00     0.195 C 
HETATM   30  C   UNL     1       8.152  31.499  62.333  1.00  0.00     0.261 C 
ENDBRANCH  23  24
ENDBRANCH  22  23
ENDBRANCH   1  22
BRANCH   2  31
HETATM   31  C   UNL     1       3.717  33.589  59.577  1.00  0.00     0.115 A 
HETATM   32  S   UNL     1       4.437  34.224  58.169  1.00  0.00     0.019 SA
HETATM   33  N   UNL     1       4.359  32.825  57.286  1.00  0.00    -0.203 NA
HETATM   34  C   UNL     1       3.888  31.836  58.063  1.00  0.00     0.155 A 
HETATM   35  C   UNL     1       3.525  32.236  59.407  1.00  0.00     0.065 A 
BRANCH  34  36
HETATM   36  C   UNL     1       3.779  30.468  57.527  1.00  0.00     0.270 C 
HETATM   37  N   UNL     1       4.593  29.540  58.113  1.00  0.00    -0.365 N 
HETATM   38  H   UNL     1       5.165  29.798  58.909  1.00  0.00     0.159 HD
HETATM   39  H   UNL     1       4.522  28.571  57.838  1.00  0.00     0.159 HD
HETATM   40  O   UNL     1       3.014  30.167  56.614  1.00  0.00    -0.266 OA
ENDBRANCH  34  36
BRANCH  35  41
HETATM   41  N   UNL     1       3.040  31.401  60.372  1.00  0.00    -0.299 NA
HETATM   42  H   UNL     1       2.444  30.632  60.034  1.00  0.00     0.124 HD
HETATM   43  H   UNL     1       3.706  31.021  61.049  1.00  0.00     0.124 HD
ENDBRANCH  35  41
ENDBRANCH   2  31
TORSDOF 11
ENDMDL
MODEL 5
REMARK VINA RESULT:      -8.3      1.440      2.056
REMARK  11 active torsions:
REMARK  status: ('A' for Active; 'I' for Inactive)
REMARK    1  A    between atoms: O_2  and  C_3 
REMARK    2  A    between atoms: C_6  and  C_7 
REMARK    3  A    between atoms: C_7  and  N_8 
REMARK    4  A    between atoms: C_7  and  C_29 
REMARK       I    between atoms: N_8  and  C_9 
REMARK    5  A    between atoms: N_8  and  C_20 
REMARK    6  A    between atoms: C_9  and  C_10 
REMARK    7  A    between atoms: C_13  and  C_14 
REMARK       I    between atoms: C_14  and  N_15 
REMARK    8  A    between atoms: C_17  and  N_18 
REMARK    9  A    between atoms: C_20  and  C_21 
REMARK   10  A    between atoms: C_21  and  N_22 
REMARK       I    between atoms: C_29  and  N_30 
REMARK   11  A    between atoms: N_30  and  C_31 
ROOT
HETATM    1  N   UNL     1       5.244  27.997  53.448  1.00  0.00    -0.328 N 
HETATM    2  C   UNL     1       4.017  28.638  53.706  1.00  0.00     0.265 C 
HETATM    3  O   UNL     1       2.967  28.190  53.251  1.00  0.00    -0.267 OA
ENDROOT
BRANCH   1   4
HETATM    4  C   UNL     1       5.223  26.809  52.571  1.00  0.00     0.213 C 
BRANCH   4   5
HETATM    5  C   UNL     1       6.185  25.675  52.886  1.00  0.00    -0.026 A 
HETATM    6  C   UNL     1       5.971  24.765  53.929  1.00  0.00     0.012 A 
HETATM    7  C   UNL     1       6.806  23.655  54.094  1.00  0.00     0.037 A 
HETATM    8  C   UNL     1       7.853  23.410  53.207  1.00  0.00     0.068 A 
HETATM    9  C   UNL     1       8.093  24.313  52.176  1.00  0.00     0.037 A 
HETATM   10  C   UNL     1       7.265  25.430  52.015  1.00  0.00     0.012 A 
BRANCH   8  11
HETATM   11  O   UNL     1       8.564  22.270  53.451  1.00  0.00    -0.356 OA
HETATM   12  C   UNL     1       9.090  22.123  54.766  1.00  0.00     0.210 C 
ENDBRANCH   8  11
ENDBRANCH   4   5
BRANCH   4  13
HETATM   13  C   UNL     1       5.113  27.286  51.105  1.00  0.00     0.245 C 
HETATM   14  N   UNL     1       4.346  26.535  50.256  1.00  0.00    -0.354 N 
HETATM   15  H   UNL     1       4.160  25.583  50.574  1.00  0.00     0.162 HD
HETATM   16  O   UNL     1       5.809  28.246  50.753  1.00  0.00    -0.271 OA
BRANCH  14  17
HETATM   17  C   UNL     1       4.130  26.768  48.832  1.00  0.00     0.084 C 
HETATM   18  C   UNL     1       3.470  25.592  48.107  1.00  0.00     0.025 C 
HETATM   19  C   UNL     1       2.112  26.084  47.608  1.00  0.00     0.002 C 
HETATM   20  C   UNL     1       1.878  27.448  48.240  1.00  0.00     0.002 C 
HETATM   21  C   UNL     1       3.268  27.990  48.521  1.00  0.00     0.025 C 
ENDBRANCH  14  17
ENDBRANCH   4  13
ENDBRANCH   1   4
BRANCH   1  22
HETATM   22  C   UNL     1       6.549  28.445  53.972  1.00  0.00     0.155 C 
BRANCH  22  23
HETATM   23  C   UNL     1       6.919  27.926  55.381  1.00  0.00     0.255 C 
BRANCH  23  24
HETATM   24  N   UNL     1       7.553  28.963  56.280  1.00  0.00    -0.066 N 
HETATM   25  H   UNL     1       7.205  29.907  56.017  1.00  0.00     0.280 HD
HETATM   26  C   UNL     1       7.275  28.763  57.763  1.00  0.00     0.261 C 
HETATM   27  C   UNL     1       7.976  29.853  58.582  1.00  0.00     0.195 C 
HETATM   28  O   UNL     1       9.386  29.843  58.335  1.00  0.00    -0.388 OA
HETATM   29  C   UNL     1       9.674  30.118  56.960  1.00  0.00     0.195 C 
HETATM   30  C   UNL     1       9.064  29.047  56.048  1.00  0.00     0.261 C 
ENDBRANCH  23  24
ENDBRANCH  22  23
ENDBRANCH   1  22
BRANCH   2  31
HETATM   31  C   UNL     1       4.035  29.812  54.534  1.00  0.00     0.115 A 
HETATM   32  S   UNL     1       3.841  29.662  56.220  1.00  0.00     0.019 SA
HETATM   33  N   UNL     1       3.861  31.286  56.545  1.00  0.00    -0.203 NA
HETATM   34  C   UNL     1       4.117  31.961  55.413  1.00  0.00     0.155 A 
HETATM   35  C   UNL     1       4.246  31.138  54.227  1.00  0.00     0.065 A 
BRANCH  34  36
HETATM   36  C   UNL     1       4.248  33.428  55.444  1.00  0.00     0.270 C 
HETATM   37  N   UNL     1       5.177  33.954  54.591  1.00  0.00    -0.365 N 
HETATM   38  H   UNL     1       5.670  33.349  53.943  1.00  0.00     0.159 HD
HETATM   39  H   UNL     1       5.272  34.956  54.515  1.00  0.00     0.159 HD
HETATM   40  O   UNL     1       3.576  34.143  56.183  1.00  0.00    -0.266 OA
ENDBRANCH  34  36
BRANCH  35  41
HETATM   41  N   UNL     1       4.518  31.602  52.973  1.00  0.00    -0.299 NA
HETATM   42  H   UNL     1       5.509  31.568  52.692  1.00  0.00     0.124 HD
HETATM   43  H   UNL     1       3.951  31.245  52.201  1.00  0.00     0.124 HD
ENDBRANCH  35  41
ENDBRANCH   2  31
TORSDOF 11
ENDMDL
MODEL 6
REMARK VINA RESULT:      -8.1      2.442      7.027
REMARK  11 active torsions:
REMARK  status: ('A' for Active; 'I' for Inactive)
REMARK    1  A    between atoms: O_2  and  C_3 
REMARK    2  A    between atoms: C_6  and  C_7 
REMARK    3  A    between atoms: C_7  and  N_8 
REMARK    4  A    between atoms: C_7  and  C_29 
REMARK       I    between atoms: N_8  and  C_9 
REMARK    5  A    between atoms: N_8  and  C_20 
REMARK    6  A    between atoms: C_9  and  C_10 
REMARK    7  A    between atoms: C_13  and  C_14 
REMARK       I    between atoms: C_14  and  N_15 
REMARK    8  A    between atoms: C_17  and  N_18 
REMARK    9  A    between atoms: C_20  and  C_21 
REMARK   10  A    between atoms: C_21  and  N_22 
REMARK       I    between atoms: C_29  and  N_30 
REMARK   11  A    between atoms: N_30  and  C_31 
ROOT
HETATM    1  N   UNL     1       5.037  27.494  53.326  1.00  0.00    -0.328 N 
HETATM    2  C   UNL     1       5.732  27.254  52.126  1.00  0.00     0.265 C 
HETATM    3  O   UNL     1       6.667  26.456  52.090  1.00  0.00    -0.267 OA
ENDROOT
BRANCH   1   4
HETATM    4  C   UNL     1       5.508  26.797  54.540  1.00  0.00     0.213 C 
BRANCH   4   5
HETATM    5  C   UNL     1       6.679  27.401  55.297  1.00  0.00    -0.026 A 
HETATM    6  C   UNL     1       7.614  28.254  54.696  1.00  0.00     0.012 A 
HETATM    7  C   UNL     1       8.591  28.899  55.461  1.00  0.00     0.037 A 
HETATM    8  C   UNL     1       8.640  28.733  56.845  1.00  0.00     0.068 A 
HETATM    9  C   UNL     1       7.732  27.875  57.457  1.00  0.00     0.037 A 
HETATM   10  C   UNL     1       6.759  27.221  56.693  1.00  0.00     0.012 A 
BRANCH   8  11
HETATM   11  O   UNL     1       9.612  29.452  57.480  1.00  0.00    -0.356 OA
HETATM   12  C   UNL     1      10.600  30.051  56.648  1.00  0.00     0.210 C 
ENDBRANCH   8  11
ENDBRANCH   4   5
BRANCH   4  13
HETATM   13  C   UNL     1       5.529  25.279  54.254  1.00  0.00     0.245 C 
HETATM   14  N   UNL     1       6.682  24.601  54.545  1.00  0.00    -0.354 N 
HETATM   15  H   UNL     1       7.512  25.187  54.640  1.00  0.00     0.162 HD
HETATM   16  O   UNL     1       4.554  24.783  53.676  1.00  0.00    -0.271 OA
BRANCH  14  17
HETATM   17  C   UNL     1       6.944  23.183  54.324  1.00  0.00     0.084 C 
HETATM   18  C   UNL     1       7.827  22.900  53.106  1.00  0.00     0.025 C 
HETATM   19  C   UNL     1       9.117  22.269  53.628  1.00  0.00     0.002 C 
HETATM   20  C   UNL     1       9.090  22.403  55.143  1.00  0.00     0.002 C 
HETATM   21  C   UNL     1       7.616  22.480  55.502  1.00  0.00     0.025 C 
ENDBRANCH  14  17
ENDBRANCH   4  13
ENDBRANCH   1   4
BRANCH   1  22
HETATM   22  C   UNL     1       3.889  28.411  53.460  1.00  0.00     0.155 C 
BRANCH  22  23
HETATM   23  C   UNL     1       4.160  29.713  54.251  1.00  0.00     0.255 C 
BRANCH  23  24
HETATM   24  N   UNL     1       3.106  30.782  54.072  1.00  0.00    -0.066 N 
HETATM   25  H   UNL     1       2.230  30.347  53.716  1.00  0.00     0.280 HD
HETATM   26  C   UNL     1       2.762  31.544  55.343  1.00  0.00     0.261 C 
HETATM   27  C   UNL     1       1.703  32.612  55.046  1.00  0.00     0.195 C 
HETATM   28  O   UNL     1       2.163  33.515  54.035  1.00  0.00    -0.388 OA
HETATM   29  C   UNL     1       2.408  32.830  52.802  1.00  0.00     0.195 C 
HETATM   30  C   UNL     1       3.502  31.770  52.972  1.00  0.00     0.261 C 
ENDBRANCH  23  24
ENDBRANCH  22  23
ENDBRANCH   1  22
BRANCH   2  31
HETATM   31  C   UNL     1       5.298  27.953  50.948  1.00  0.00     0.115 A 
HETATM   32  S   UNL     1       5.686  29.600  50.750  1.00  0.00     0.019 SA
HETATM   33  N   UNL     1       4.861  29.806  49.329  1.00  0.00    -0.203 NA
HETATM   34  C   UNL     1       4.369  28.622  48.926  1.00  0.00     0.155 A 
HETATM   35  C   UNL     1       4.621  27.518  49.830  1.00  0.00     0.065 A 
BRANCH  34  36
HETATM   36  C   UNL     1       3.641  28.524  47.650  1.00  0.00     0.270 C 
HETATM   37  N   UNL     1       3.644  29.654  46.882  1.00  0.00    -0.365 N 
HETATM   38  H   UNL     1       4.186  30.461  47.171  1.00  0.00     0.159 HD
HETATM   39  H   UNL     1       3.220  29.635  45.966  1.00  0.00     0.159 HD
HETATM   40  O   UNL     1       3.062  27.503  47.288  1.00  0.00    -0.266 OA
ENDBRANCH  34  36
BRANCH  35  41
HETATM   41  N   UNL     1       4.230  26.228  49.623  1.00  0.00    -0.299 NA
HETATM   42  H   UNL     1       3.227  26.039  49.769  1.00  0.00     0.124 HD
HETATM   43  H   UNL     1       4.519  25.778  48.751  1.00  0.00     0.124 HD
ENDBRANCH  35  41
ENDBRANCH   2  31
TORSDOF 11
ENDMDL
MODEL 7
REMARK VINA RESULT:      -8.0      2.504      3.903
REMARK  11 active torsions:
REMARK  status: ('A' for Active; 'I' for Inactive)
REMARK    1  A    between atoms: O_2  and  C_3 
REMARK    2  A    between atoms: C_6  and  C_7 
REMARK    3  A    between atoms: C_7  and  N_8 
REMARK    4  A    between atoms: C_7  and  C_29 
REMARK       I    between atoms: N_8  and  C_9 
REMARK    5  A    between atoms: N_8  and  C_20 
REMARK    6  A    between atoms: C_9  and  C_10 
REMARK    7  A    between atoms: C_13  and  C_14 
REMARK       I    between atoms: C_14  and  N_15 
REMARK    8  A    between atoms: C_17  and  N_18 
REMARK    9  A    between atoms: C_20  and  C_21 
REMARK   10  A    between atoms: C_21  and  N_22 
REMARK       I    between atoms: C_29  and  N_30 
REMARK   11  A    between atoms: N_30  and  C_31 
ROOT
HETATM    1  N   UNL     1       4.753  30.049  56.610  1.00  0.00    -0.328 N 
HETATM    2  C   UNL     1       3.652  30.581  57.307  1.00  0.00     0.265 C 
HETATM    3  O   UNL     1       2.506  30.233  57.030  1.00  0.00    -0.267 OA
ENDROOT
BRANCH   1   4
HETATM    4  C   UNL     1       4.474  29.108  55.506  1.00  0.00     0.213 C 
BRANCH   4   5
HETATM    5  C   UNL     1       5.251  27.802  55.472  1.00  0.00    -0.026 A 
HETATM    6  C   UNL     1       6.372  27.607  54.654  1.00  0.00     0.012 A 
HETATM    7  C   UNL     1       7.140  26.442  54.758  1.00  0.00     0.037 A 
HETATM    8  C   UNL     1       6.827  25.462  55.698  1.00  0.00     0.068 A 
HETATM    9  C   UNL     1       5.707  25.629  56.506  1.00  0.00     0.037 A 
HETATM   10  C   UNL     1       4.931  26.789  56.397  1.00  0.00     0.012 A 
BRANCH   8  11
HETATM   11  O   UNL     1       7.681  24.397  55.729  1.00  0.00    -0.356 OA
HETATM   12  C   UNL     1       7.295  23.254  54.971  1.00  0.00     0.210 C 
ENDBRANCH   8  11
ENDBRANCH   4   5
BRANCH   4  13
HETATM   13  C   UNL     1       4.347  29.916  54.195  1.00  0.00     0.245 C 
HETATM   14  N   UNL     1       4.141  29.211  53.040  1.00  0.00    -0.354 N 
HETATM   15  H   UNL     1       4.384  28.221  53.093  1.00  0.00     0.162 HD
HETATM   16  O   UNL     1       4.551  31.135  54.242  1.00  0.00    -0.271 OA
BRANCH  14  17
HETATM   17  C   UNL     1       4.030  29.753  51.690  1.00  0.00     0.084 C 
HETATM   18  C   UNL     1       5.369  29.858  50.955  1.00  0.00     0.025 C 
HETATM   19  C   UNL     1       5.291  28.915  49.755  1.00  0.00     0.002 C 
HETATM   20  C   UNL     1       4.023  28.093  49.922  1.00  0.00     0.002 C 
HETATM   21  C   UNL     1       3.107  28.958  50.770  1.00  0.00     0.025 C 
ENDBRANCH  14  17
ENDBRANCH   4  13
ENDBRANCH   1   4
BRANCH   1  22
HETATM   22  C   UNL     1       6.163  30.387  56.887  1.00  0.00     0.155 C 
BRANCH  22  23
HETATM   23  C   UNL     1       6.885  29.466  57.899  1.00  0.00     0.255 C 
BRANCH  23  24
HETATM   24  N   UNL     1       8.296  29.893  58.234  1.00  0.00    -0.066 N 
HETATM   25  H   UNL     1       8.645  29.333  59.039  1.00  0.00     0.280 HD
HETATM   26  C   UNL     1       9.289  29.733  57.093  1.00  0.00     0.261 C 
HETATM   27  C   UNL     1      10.678  30.211  57.532  1.00  0.00     0.195 C 
HETATM   28  O   UNL     1      10.631  31.576  57.962  1.00  0.00    -0.388 OA
HETATM   29  C   UNL     1       9.768  31.733  59.094  1.00  0.00     0.195 C 
HETATM   30  C   UNL     1       8.329  31.336  58.746  1.00  0.00     0.261 C 
ENDBRANCH  23  24
ENDBRANCH  22  23
ENDBRANCH   1  22
BRANCH   2  31
HETATM   31  C   UNL     1       3.916  31.521  58.361  1.00  0.00     0.115 A 
HETATM   32  S   UNL     1       4.702  32.992  58.006  1.00  0.00     0.019 SA
HETATM   33  N   UNL     1       4.779  33.532  59.569  1.00  0.00    -0.203 NA
HETATM   34  C   UNL     1       4.128  32.670  60.368  1.00  0.00     0.155 A 
HETATM   35  C   UNL     1       3.594  31.501  59.699  1.00  0.00     0.065 A 
BRANCH  34  36
HETATM   36  C   UNL     1       3.999  32.955  61.808  1.00  0.00     0.270 C 
HETATM   37  N   UNL     1       2.763  32.728  62.344  1.00  0.00    -0.365 N 
HETATM   38  H   UNL     1       2.030  32.321  61.774  1.00  0.00     0.159 HD
HETATM   39  H   UNL     1       2.623  32.840  63.337  1.00  0.00     0.159 HD
HETATM   40  O   UNL     1       4.930  33.371  62.492  1.00  0.00    -0.266 OA
ENDBRANCH  34  36
BRANCH  35  41
HETATM   41  N   UNL     1       2.887  30.503  60.304  1.00  0.00    -0.299 NA
HETATM   42  H   UNL     1       2.164  30.056  59.722  1.00  0.00     0.124 HD
HETATM   43  H   UNL     1       3.416  29.770  60.783  1.00  0.00     0.124 HD
ENDBRANCH  35  41
ENDBRANCH   2  31
TORSDOF 11
ENDMDL
MODEL 8
REMARK VINA RESULT:      -7.9      9.592     13.208
REMARK  11 active torsions:
REMARK  status: ('A' for Active; 'I' for Inactive)
REMARK    1  A    between atoms: O_2  and  C_3 
REMARK    2  A    between atoms: C_6  and  C_7 
REMARK    3  A    between atoms: C_7  and  N_8 
REMARK    4  A    between atoms: C_7  and  C_29 
REMARK       I    between atoms: N_8  and  C_9 
REMARK    5  A    between atoms: N_8  and  C_20 
REMARK    6  A    between atoms: C_9  and  C_10 
REMARK    7  A    between atoms: C_13  and  C_14 
REMARK       I    between atoms: C_14  and  N_15 
REMARK    8  A    between atoms: C_17  and  N_18 
REMARK    9  A    between atoms: C_20  and  C_21 
REMARK   10  A    between atoms: C_21  and  N_22 
REMARK       I    between atoms: C_29  and  N_30 
REMARK   11  A    between atoms: N_30  and  C_31 
ROOT
HETATM    1  N   UNL     1       4.651  34.557  62.913  1.00  0.00    -0.328 N 
HETATM    2  C   UNL     1       3.530  34.584  62.063  1.00  0.00     0.265 C 
HETATM    3  O   UNL     1       2.647  33.734  62.160  1.00  0.00    -0.267 OA
ENDROOT
BRANCH   1   4
HETATM    4  C   UNL     1       4.750  33.445  63.879  1.00  0.00     0.213 C 
BRANCH   4   5
HETATM    5  C   UNL     1       5.181  33.772  65.299  1.00  0.00    -0.026 A 
HETATM    6  C   UNL     1       6.521  33.758  65.709  1.00  0.00     0.012 A 
HETATM    7  C   UNL     1       6.884  34.203  66.984  1.00  0.00     0.037 A 
HETATM    8  C   UNL     1       5.927  34.699  67.868  1.00  0.00     0.068 A 
HETATM    9  C   UNL     1       4.589  34.703  67.486  1.00  0.00     0.037 A 
HETATM   10  C   UNL     1       4.221  34.249  66.214  1.00  0.00     0.012 A 
BRANCH   8  11
HETATM   11  O   UNL     1       6.417  35.143  69.063  1.00  0.00    -0.356 OA
HETATM   12  C   UNL     1       7.077  34.177  69.873  1.00  0.00     0.210 C 
ENDBRANCH   8  11
ENDBRANCH   4   5
BRANCH   4  13
HETATM   13  C   UNL     1       5.417  32.243  63.173  1.00  0.00     0.245 C 
HETATM   14  N   UNL     1       6.482  32.507  62.355  1.00  0.00    -0.354 N 
HETATM   15  H   UNL     1       6.557  33.478  62.048  1.00  0.00     0.162 HD
HETATM   16  O   UNL     1       4.887  31.132  63.292  1.00  0.00    -0.271 OA
BRANCH  14  17
HETATM   17  C   UNL     1       7.237  31.544  61.560  1.00  0.00     0.084 C 
HETATM   18  C   UNL     1       7.667  32.075  60.190  1.00  0.00     0.025 C 
HETATM   19  C   UNL     1       9.194  32.115  60.188  1.00  0.00     0.002 C 
HETATM   20  C   UNL     1       9.644  31.842  61.615  1.00  0.00     0.002 C 
HETATM   21  C   UNL     1       8.512  31.041  62.234  1.00  0.00     0.025 C 
ENDBRANCH  14  17
ENDBRANCH   4  13
ENDBRANCH   1   4
BRANCH   1  22
HETATM   22  C   UNL     1       5.746  35.547  62.888  1.00  0.00     0.155 C 
BRANCH  22  23
HETATM   23  C   UNL     1       5.559  36.776  63.809  1.00  0.00     0.255 C 
BRANCH  23  24
HETATM   24  N   UNL     1       6.431  37.959  63.455  1.00  0.00    -0.066 N 
HETATM   25  H   UNL     1       7.415  37.756  63.727  1.00  0.00     0.280 HD
HETATM   26  C   UNL     1       6.424  38.324  61.978  1.00  0.00     0.261 C 
HETATM   27  C   UNL     1       7.322  39.543  61.733  1.00  0.00     0.195 C 
HETATM   28  O   UNL     1       6.890  40.656  62.522  1.00  0.00    -0.388 OA
HETATM   29  C   UNL     1       6.973  40.363  63.921  1.00  0.00     0.195 C 
HETATM   30  C   UNL     1       6.061  39.188  64.290  1.00  0.00     0.261 C 
ENDBRANCH  23  24
ENDBRANCH  22  23
ENDBRANCH   1  22
BRANCH   2  31
HETATM   31  C   UNL     1       3.444  35.647  61.100  1.00  0.00     0.115 A 
HETATM   32  S   UNL     1       2.892  37.185  61.584  1.00  0.00     0.019 SA
HETATM   33  N   UNL     1       2.940  37.872  60.078  1.00  0.00    -0.203 NA
HETATM   34  C   UNL     1       3.467  36.995  59.208  1.00  0.00     0.155 A 
HETATM   35  C   UNL     1       3.792  35.699  59.769  1.00  0.00     0.065 A 
BRANCH  34  36
HETATM   36  C   UNL     1       3.675  37.386  57.803  1.00  0.00     0.270 C 
HETATM   37  N   UNL     1       4.917  37.123  57.297  1.00  0.00    -0.365 N 
HETATM   38  H   UNL     1       5.598  36.623  57.858  1.00  0.00     0.159 HD
HETATM   39  H   UNL     1       5.106  37.306  56.322  1.00  0.00     0.159 HD
HETATM   40  O   UNL     1       2.802  37.917  57.121  1.00  0.00    -0.266 OA
ENDBRANCH  34  36
BRANCH  35  41
HETATM   41  N   UNL     1       4.348  34.661  59.079  1.00  0.00    -0.299 NA
HETATM   42  H   UNL     1       4.515  33.803  59.626  1.00  0.00     0.124 HD
HETATM   43  H   UNL     1       3.918  34.398  58.190  1.00  0.00     0.124 HD
ENDBRANCH  35  41
ENDBRANCH   2  31
TORSDOF 11
ENDMDL
MODEL 9
REMARK VINA RESULT:      -7.8      1.581      2.316
REMARK  11 active torsions:
REMARK  status: ('A' for Active; 'I' for Inactive)
REMARK    1  A    between atoms: O_2  and  C_3 
REMARK    2  A    between atoms: C_6  and  C_7 
REMARK    3  A    between atoms: C_7  and  N_8 
REMARK    4  A    between atoms: C_7  and  C_29 
REMARK       I    between atoms: N_8  and  C_9 
REMARK    5  A    between atoms: N_8  and  C_20 
REMARK    6  A    between atoms: C_9  and  C_10 
REMARK    7  A    between atoms: C_13  and  C_14 
REMARK       I    between atoms: C_14  and  N_15 
REMARK    8  A    between atoms: C_17  and  N_18 
REMARK    9  A    between atoms: C_20  and  C_21 
REMARK   10  A    between atoms: C_21  and  N_22 
REMARK       I    between atoms: C_29  and  N_30 
REMARK   11  A    between atoms: N_30  and  C_31 
ROOT
HETATM    1  N   UNL     1       5.553  28.451  54.978  1.00  0.00    -0.328 N 
HETATM    2  C   UNL     1       4.612  29.497  55.003  1.00  0.00     0.265 C 
HETATM    3  O   UNL     1       3.665  29.509  54.218  1.00  0.00    -0.267 OA
ENDROOT
BRANCH   1   4
HETATM    4  C   UNL     1       5.390  27.409  53.944  1.00  0.00     0.213 C 
BRANCH   4   5
HETATM    5  C   UNL     1       6.270  26.173  54.035  1.00  0.00    -0.026 A 
HETATM    6  C   UNL     1       6.064  25.162  54.983  1.00  0.00     0.012 A 
HETATM    7  C   UNL     1       6.806  23.978  54.941  1.00  0.00     0.037 A 
HETATM    8  C   UNL     1       7.748  23.761  53.936  1.00  0.00     0.068 A 
HETATM    9  C   UNL     1       7.981  24.760  52.997  1.00  0.00     0.037 A 
HETATM   10  C   UNL     1       7.246  25.951  53.043  1.00  0.00     0.012 A 
BRANCH   8  11
HETATM   11  O   UNL     1       8.372  22.547  53.981  1.00  0.00    -0.356 OA
HETATM   12  C   UNL     1       7.892  21.556  53.078  1.00  0.00     0.210 C 
ENDBRANCH   8  11
ENDBRANCH   4   5
BRANCH   4  13
HETATM   13  C   UNL     1       5.246  28.102  52.571  1.00  0.00     0.245 C 
HETATM   14  N   UNL     1       4.148  27.783  51.818  1.00  0.00    -0.354 N 
HETATM   15  H   UNL     1       3.684  26.914  52.083  1.00  0.00     0.162 HD
HETATM   16  O   UNL     1       6.180  28.812  52.178  1.00  0.00    -0.271 OA
BRANCH  14  17
HETATM   17  C   UNL     1       3.826  28.279  50.484  1.00  0.00     0.084 C 
HETATM   18  C   UNL     1       3.973  29.795  50.336  1.00  0.00     0.025 C 
HETATM   19  C   UNL     1       5.087  30.035  49.318  1.00  0.00     0.002 C 
HETATM   20  C   UNL     1       5.744  28.688  49.057  1.00  0.00     0.002 C 
HETATM   21  C   UNL     1       4.667  27.663  49.368  1.00  0.00     0.025 C 
ENDBRANCH  14  17
ENDBRANCH   4  13
ENDBRANCH   1   4
BRANCH   1  22
HETATM   22  C   UNL     1       6.704  28.338  55.895  1.00  0.00     0.155 C 
BRANCH  22  23
HETATM   23  C   UNL     1       8.012  29.010  55.415  1.00  0.00     0.255 C 
BRANCH  23  24
HETATM   24  N   UNL     1       8.975  29.364  56.525  1.00  0.00    -0.066 N 
HETATM   25  H   UNL     1       9.100  28.540  57.149  1.00  0.00     0.280 HD
HETATM   26  C   UNL     1      10.354  29.796  56.047  1.00  0.00     0.261 C 
HETATM   27  C   UNL     1      11.240  30.148  57.247  1.00  0.00     0.195 C 
HETATM   28  O   UNL     1      10.640  31.183  58.034  1.00  0.00    -0.388 OA
HETATM   29  C   UNL     1       9.380  30.763  58.568  1.00  0.00     0.195 C 
HETATM   30  C   UNL     1       8.389  30.439  57.444  1.00  0.00     0.261 C 
ENDBRANCH  23  24
ENDBRANCH  22  23
ENDBRANCH   1  22
BRANCH   2  31
HETATM   31  C   UNL     1       4.783  30.530  55.986  1.00  0.00     0.115 A 
HETATM   32  S   UNL     1       5.075  32.133  55.488  1.00  0.00     0.019 SA
HETATM   33  N   UNL     1       5.260  32.760  57.009  1.00  0.00    -0.203 NA
HETATM   34  C   UNL     1       5.004  31.803  57.917  1.00  0.00     0.155 A 
HETATM   35  C   UNL     1       4.702  30.500  57.360  1.00  0.00     0.065 A 
BRANCH  34  36
HETATM   36  C   UNL     1       5.042  32.123  59.354  1.00  0.00     0.270 C 
HETATM   37  N   UNL     1       3.973  31.681  60.083  1.00  0.00    -0.365 N 
HETATM   38  H   UNL     1       3.260  31.112  59.642  1.00  0.00     0.159 HD
HETATM   39  H   UNL     1       3.967  31.810  61.084  1.00  0.00     0.159 HD
HETATM   40  O   UNL     1       5.963  32.745  59.876  1.00  0.00    -0.266 OA
ENDBRANCH  34  36
BRANCH  35  41
HETATM   41  N   UNL     1       4.398  29.386  58.088  1.00  0.00    -0.299 NA
HETATM   42  H   UNL     1       4.228  28.530  57.539  1.00  0.00     0.124 HD
HETATM   43  H   UNL     1       5.010  29.150  58.873  1.00  0.00     0.124 HD
ENDBRANCH  35  41
ENDBRANCH   2  31
TORSDOF 11
ENDMDL
MODEL 10
REMARK VINA RESULT:      -7.8      3.403      5.028
REMARK  11 active torsions:
REMARK  status: ('A' for Active; 'I' for Inactive)
REMARK    1  A    between atoms: O_2  and  C_3 
REMARK    2  A    between atoms: C_6  and  C_7 
REMARK    3  A    between atoms: C_7  and  N_8 
REMARK    4  A    between atoms: C_7  and  C_29 
REMARK       I    between atoms: N_8  and  C_9 
REMARK    5  A    between atoms: N_8  and  C_20 
REMARK    6  A    between atoms: C_9  and  C_10 
REMARK    7  A    between atoms: C_13  and  C_14 
REMARK       I    between atoms: C_14  and  N_15 
REMARK    8  A    between atoms: C_17  and  N_18 
REMARK    9  A    between atoms: C_20  and  C_21 
REMARK   10  A    between atoms: C_21  and  N_22 
REMARK       I    between atoms: C_29  and  N_30 
REMARK   11  A    between atoms: N_30  and  C_31 
ROOT
HETATM    1  N   UNL     1       4.713  30.268  56.496  1.00  0.00    -0.328 N 
HETATM    2  C   UNL     1       3.644  30.751  57.273  1.00  0.00     0.265 C 
HETATM    3  O   UNL     1       2.481  30.477  56.980  1.00  0.00    -0.267 OA
ENDROOT
BRANCH   1   4
HETATM    4  C   UNL     1       4.382  29.474  55.295  1.00  0.00     0.213 C 
BRANCH   4   5
HETATM    5  C   UNL     1       5.218  28.237  55.008  1.00  0.00    -0.026 A 
HETATM    6  C   UNL     1       6.243  28.217  54.053  1.00  0.00     0.012 A 
HETATM    7  C   UNL     1       7.078  27.103  53.921  1.00  0.00     0.037 A 
HETATM    8  C   UNL     1       6.931  25.997  54.757  1.00  0.00     0.068 A 
HETATM    9  C   UNL     1       5.907  25.990  55.699  1.00  0.00     0.037 A 
HETATM   10  C   UNL     1       5.063  27.100  55.826  1.00  0.00     0.012 A 
BRANCH   8  11
HETATM   11  O   UNL     1       7.837  24.996  54.557  1.00  0.00    -0.356 OA
HETATM   12  C   UNL     1       7.950  24.502  53.226  1.00  0.00     0.210 C 
ENDBRANCH   8  11
ENDBRANCH   4   5
BRANCH   4  13
HETATM   13  C   UNL     1       4.096  30.447  54.130  1.00  0.00     0.245 C 
HETATM   14  N   UNL     1       4.537  31.736  54.265  1.00  0.00    -0.354 N 
HETATM   15  H   UNL     1       4.745  32.020  55.223  1.00  0.00     0.162 HD
HETATM   16  O   UNL     1       3.390  30.045  53.198  1.00  0.00    -0.271 OA
BRANCH  14  17
HETATM   17  C   UNL     1       4.347  32.831  53.320  1.00  0.00     0.084 C 
HETATM   18  C   UNL     1       2.933  33.417  53.328  1.00  0.00     0.025 C 
HETATM   19  C   UNL     1       3.055  34.865  53.799  1.00  0.00     0.002 C 
HETATM   20  C   UNL     1       4.483  35.050  54.289  1.00  0.00     0.002 C 
HETATM   21  C   UNL     1       5.293  34.012  53.532  1.00  0.00     0.025 C 
ENDBRANCH  14  17
ENDBRANCH   4  13
ENDBRANCH   1   4
BRANCH   1  22
HETATM   22  C   UNL     1       6.139  30.521  56.783  1.00  0.00     0.155 C 
BRANCH  22  23
HETATM   23  C   UNL     1       6.792  29.576  57.819  1.00  0.00     0.255 C 
BRANCH  23  24
HETATM   24  N   UNL     1       8.215  29.935  58.180  1.00  0.00    -0.066 N 
HETATM   25  H   UNL     1       8.537  29.328  58.961  1.00  0.00     0.280 HD
HETATM   26  C   UNL     1       9.210  29.786  57.037  1.00  0.00     0.261 C 
HETATM   27  C   UNL     1      10.612  30.192  57.504  1.00  0.00     0.195 C 
HETATM   28  O   UNL     1      10.614  31.538  57.992  1.00  0.00    -0.388 OA
HETATM   29  C   UNL     1       9.751  31.680  59.125  1.00  0.00     0.195 C 
HETATM   30  C   UNL     1       8.300  31.352  58.753  1.00  0.00     0.261 C 
ENDBRANCH  23  24
ENDBRANCH  22  23
ENDBRANCH   1  22
BRANCH   2  31
HETATM   31  C   UNL     1       3.959  31.550  58.424  1.00  0.00     0.115 A 
HETATM   32  S   UNL     1       4.847  32.992  58.237  1.00  0.00     0.019 SA
HETATM   33  N   UNL     1       4.942  33.352  59.850  1.00  0.00    -0.203 NA
HETATM   34  C   UNL     1       4.224  32.456  60.547  1.00  0.00     0.155 A 
HETATM   35  C   UNL     1       3.620  31.406  59.751  1.00  0.00     0.065 A 
BRANCH  34  36
HETATM   36  C   UNL     1       4.098  32.590  62.008  1.00  0.00     0.270 C 
HETATM   37  N   UNL     1       2.821  32.704  62.480  1.00  0.00    -0.365 N 
HETATM   38  H   UNL     1       2.036  32.623  61.844  1.00  0.00     0.159 HD
HETATM   39  H   UNL     1       2.659  32.734  63.476  1.00  0.00     0.159 HD
HETATM   40  O   UNL     1       5.066  32.602  62.764  1.00  0.00    -0.266 OA
ENDBRANCH  34  36
BRANCH  35  41
HETATM   41  N   UNL     1       2.839  30.399  60.240  1.00  0.00    -0.299 NA
HETATM   42  H   UNL     1       1.822  30.544  60.154  1.00  0.00     0.124 HD
HETATM   43  H   UNL     1       3.056  29.445  59.944  1.00  0.00     0.124 HD
ENDBRANCH  35  41
ENDBRANCH   2  31
TORSDOF 11
ENDMDL
