MODEL 1
REMARK VINA RESULT:     -10.1      0.000      0.000
REMARK  9 active torsions:
REMARK  status: ('A' for Active; 'I' for Inactive)
REMARK    1  A    between atoms: C_2  and  O_3 
REMARK    2  A    between atoms: O_3  and  C_4 
REMARK    3  A    between atoms: C_5  and  C_6 
REMARK    4  A    between atoms: C_7  and  C_8 
REMARK       I    between atoms: C_8  and  N_9 
REMARK    5  A    between atoms: N_9  and  C_10 
REMARK    6  A    between atoms: C_20  and  S_21 
REMARK    7  A    between atoms: S_21  and  C_22 
REMARK    8  A    between atoms: C_22  and  C_23 
REMARK       I    between atoms: C_23  and  N_24 
REMARK    9  A    between atoms: N_24  and  C_25 
ROOT
HETATM    1  C   UNL     1       4.645  31.497  58.058  1.00  0.00     0.107 C 
HETATM    2  C   UNL     1       6.068  31.106  58.479  1.00  0.00     0.046 C 
HETATM    3  C   UNL     1       6.704  30.079  57.868  1.00  0.00     0.019 C 
HETATM    4  C   UNL     1       8.169  29.751  58.038  1.00  0.00     0.069 C 
HETATM    5  N   UNL     1       6.029  29.289  56.945  1.00  0.00    -0.353 N 
HETATM    6  C   UNL     1       4.804  29.611  56.381  1.00  0.00     0.087 C 
HETATM    7  C   UNL     1       4.081  30.637  56.895  1.00  0.00     0.055 C 
HETATM    8  C   UNL     1       2.949  31.273  56.106  1.00  0.00     0.019 C 
HETATM    9  N   UNL     1       2.009  31.801  55.451  1.00  0.00    -0.096 N 
HETATM   10  H   UNL     1       6.627  28.748  56.326  1.00  0.00     0.166 HD
ENDROOT
BRANCH   1  11
HETATM   11  C   UNL     1       4.495  32.994  57.724  1.00  0.00    -0.011 A 
HETATM   12  C   UNL     1       3.884  33.906  58.615  1.00  0.00     0.076 A 
HETATM   13  C   UNL     1       3.833  35.265  58.290  1.00  0.00     0.037 A 
HETATM   14  C   UNL     1       4.393  35.729  57.098  1.00  0.00     0.003 A 
HETATM   15  C   UNL     1       4.999  34.840  56.216  1.00  0.00     0.001 A 
HETATM   16  C   UNL     1       5.049  33.481  56.523  1.00  0.00     0.011 A 
BRANCH  12  17
HETATM   17  O   UNL     1       3.379  33.372  59.772  1.00  0.00    -0.351 OA
BRANCH  17  18
HETATM   18  C   UNL     1       2.219  33.985  60.329  1.00  0.00     0.171 C 
HETATM   19  C   UNL     1       2.486  34.224  61.804  1.00  0.00     0.034 C 
ENDBRANCH  17  18
ENDBRANCH  12  17
ENDBRANCH   1  11
BRANCH   6  20
HETATM   20  S   UNL     1       4.313  28.852  54.870  1.00  0.00    -0.102 SA
BRANCH  20  21
HETATM   21  C   UNL     1       5.890  28.243  54.210  1.00  0.00     0.184 C 
BRANCH  21  22
HETATM   22  C   UNL     1       5.853  26.766  53.849  1.00  0.00     0.231 C 
HETATM   23  N   UNL     1       7.040  26.102  54.105  1.00  0.00    -0.327 N 
HETATM   24  H   UNL     1       7.847  26.693  54.280  1.00  0.00     0.169 HD
HETATM   25  O   UNL     1       4.805  26.256  53.461  1.00  0.00    -0.272 OA
BRANCH  23  26
HETATM   26  C   UNL     1       7.275  24.715  54.095  1.00  0.00     0.034 A 
HETATM   27  C   UNL     1       7.183  23.905  55.228  1.00  0.00     0.030 A 
HETATM   28  C   UNL     1       7.479  22.540  55.145  1.00  0.00     0.009 A 
HETATM   29  C   UNL     1       7.874  21.966  53.933  1.00  0.00    -0.062 A 
HETATM   30  C   UNL     1       8.170  20.499  53.854  1.00  0.00     0.048 C 
HETATM   31  C   UNL     1       7.946  22.775  52.794  1.00  0.00     0.009 A 
HETATM   32  C   UNL     1       7.655  24.140  52.879  1.00  0.00     0.030 A 
ENDBRANCH  23  26
ENDBRANCH  21  22
ENDBRANCH  20  21
ENDBRANCH   6  20
BRANCH   2  33
HETATM   33  C   UNL     1       6.738  31.954  59.523  1.00  0.00     0.255 C 
HETATM   34  N   UNL     1       6.082  31.959  60.740  1.00  0.00    -0.323 N 
HETATM   35  H   UNL     1       5.246  31.394  60.818  1.00  0.00     0.169 HD
HETATM   36  O   UNL     1       7.766  32.565  59.268  1.00  0.00    -0.268 OA
BRANCH  34  37
HETATM   37  C   UNL     1       6.539  32.556  61.936  1.00  0.00     0.035 A 
HETATM   38  C   UNL     1       7.583  32.049  62.713  1.00  0.00     0.029 A 
HETATM   39  C   UNL     1       7.958  32.679  63.903  1.00  0.00     0.002 A 
HETATM   40  C   UNL     1       7.288  33.820  64.333  1.00  0.00     0.000 A 
HETATM   41  C   UNL     1       6.249  34.339  63.565  1.00  0.00     0.002 A 
HETATM   42  C   UNL     1       5.883  33.717  62.367  1.00  0.00     0.029 A 
ENDBRANCH  34  37
ENDBRANCH   2  33
TORSDOF 9
ENDMDL
MODEL 2
REMARK VINA RESULT:      -9.7      4.874      9.345
REMARK  9 active torsions:
REMARK  status: ('A' for Active; 'I' for Inactive)
REMARK    1  A    between atoms: C_2  and  O_3 
REMARK    2  A    between atoms: O_3  and  C_4 
REMARK    3  A    between atoms: C_5  and  C_6 
REMARK    4  A    between atoms: C_7  and  C_8 
REMARK       I    between atoms: C_8  and  N_9 
REMARK    5  A    between atoms: N_9  and  C_10 
REMARK    6  A    between atoms: C_20  and  S_21 
REMARK    7  A    between atoms: S_21  and  C_22 
REMARK    8  A    between atoms: C_22  and  C_23 
REMARK       I    between atoms: C_23  and  N_24 
REMARK    9  A    between atoms: N_24  and  C_25 
ROOT
HETATM    1  C   UNL     1       5.719  27.293  54.631  1.00  0.00     0.107 C 
HETATM    2  C   UNL     1       5.968  26.384  53.420  1.00  0.00     0.046 C 
HETATM    3  C   UNL     1       5.317  26.606  52.254  1.00  0.00     0.019 C 
HETATM    4  C   UNL     1       5.643  25.926  50.944  1.00  0.00     0.069 C 
HETATM    5  N   UNL     1       4.326  27.577  52.180  1.00  0.00    -0.353 N 
HETATM    6  C   UNL     1       4.101  28.547  53.145  1.00  0.00     0.087 C 
HETATM    7  C   UNL     1       4.714  28.443  54.351  1.00  0.00     0.055 C 
HETATM    8  C   UNL     1       4.817  29.637  55.285  1.00  0.00     0.019 C 
HETATM    9  N   UNL     1       4.901  30.628  56.060  1.00  0.00    -0.096 N 
HETATM   10  H   UNL     1       4.099  27.887  51.238  1.00  0.00     0.166 HD
ENDROOT
BRANCH   1  11
HETATM   11  C   UNL     1       7.014  27.865  55.243  1.00  0.00    -0.011 A 
HETATM   12  C   UNL     1       7.343  27.686  56.606  1.00  0.00     0.076 A 
HETATM   13  C   UNL     1       8.561  28.169  57.094  1.00  0.00     0.037 A 
HETATM   14  C   UNL     1       9.459  28.815  56.241  1.00  0.00     0.003 A 
HETATM   15  C   UNL     1       9.145  28.993  54.898  1.00  0.00     0.001 A 
HETATM   16  C   UNL     1       7.930  28.524  54.400  1.00  0.00     0.011 A 
BRANCH  12  17
HETATM   17  O   UNL     1       6.417  27.024  57.369  1.00  0.00    -0.351 OA
BRANCH  17  18
HETATM   18  C   UNL     1       6.447  25.599  57.353  1.00  0.00     0.171 C 
HETATM   19  C   UNL     1       5.016  25.109  57.221  1.00  0.00     0.034 C 
ENDBRANCH  17  18
ENDBRANCH  12  17
ENDBRANCH   1  11
BRANCH   6  20
HETATM   20  S   UNL     1       3.223  30.013  52.722  1.00  0.00    -0.102 SA
BRANCH  20  21
HETATM   21  C   UNL     1       4.190  30.657  51.327  1.00  0.00     0.184 C 
BRANCH  21  22
HETATM   22  C   UNL     1       3.829  30.005  50.002  1.00  0.00     0.231 C 
HETATM   23  N   UNL     1       2.529  29.533  49.951  1.00  0.00    -0.327 N 
HETATM   24  H   UNL     1       2.049  29.466  50.843  1.00  0.00     0.169 HD
HETATM   25  O   UNL     1       4.635  30.016  49.075  1.00  0.00    -0.272 OA
BRANCH  23  26
HETATM   26  C   UNL     1       1.816  29.083  48.825  1.00  0.00     0.034 A 
HETATM   27  C   UNL     1       1.140  29.929  47.946  1.00  0.00     0.030 A 
HETATM   28  C   UNL     1       0.413  29.399  46.875  1.00  0.00     0.009 A 
HETATM   29  C   UNL     1       0.348  28.018  46.668  1.00  0.00    -0.062 A 
HETATM   30  C   UNL     1      -0.419  27.464  45.505  1.00  0.00     0.048 C 
HETATM   31  C   UNL     1       1.042  27.172  47.538  1.00  0.00     0.009 A 
HETATM   32  C   UNL     1       1.765  27.701  48.611  1.00  0.00     0.030 A 
ENDBRANCH  23  26
ENDBRANCH  21  22
ENDBRANCH  20  21
ENDBRANCH   6  20
BRANCH   2  33
HETATM   33  C   UNL     1       7.007  25.309  53.564  1.00  0.00     0.255 C 
HETATM   34  N   UNL     1       6.525  24.140  54.121  1.00  0.00    -0.323 N 
HETATM   35  H   UNL     1       5.541  24.111  54.356  1.00  0.00     0.169 HD
HETATM   36  O   UNL     1       8.161  25.503  53.208  1.00  0.00    -0.268 OA
BRANCH  34  37
HETATM   37  C   UNL     1       7.231  22.924  54.261  1.00  0.00     0.035 A 
HETATM   38  C   UNL     1       7.643  22.132  53.186  1.00  0.00     0.029 A 
HETATM   39  C   UNL     1       8.311  20.924  53.405  1.00  0.00     0.002 A 
HETATM   40  C   UNL     1       8.568  20.490  54.702  1.00  0.00     0.000 A 
HETATM   41  C   UNL     1       8.168  21.273  55.782  1.00  0.00     0.002 A 
HETATM   42  C   UNL     1       7.512  22.489  55.563  1.00  0.00     0.029 A 
ENDBRANCH  34  37
ENDBRANCH   2  33
TORSDOF 9
ENDMDL
MODEL 3
REMARK VINA RESULT:      -9.2      2.954     10.630
REMARK  9 active torsions:
REMARK  status: ('A' for Active; 'I' for Inactive)
REMARK    1  A    between atoms: C_2  and  O_3 
REMARK    2  A    between atoms: O_3  and  C_4 
REMARK    3  A    between atoms: C_5  and  C_6 
REMARK    4  A    between atoms: C_7  and  C_8 
REMARK       I    between atoms: C_8  and  N_9 
REMARK    5  A    between atoms: N_9  and  C_10 
REMARK    6  A    between atoms: C_20  and  S_21 
REMARK    7  A    between atoms: S_21  and  C_22 
REMARK    8  A    between atoms: C_22  and  C_23 
REMARK       I    between atoms: C_23  and  N_24 
REMARK    9  A    between atoms: N_24  and  C_25 
ROOT
HETATM    1  C   UNL     1       4.263  27.617  54.317  1.00  0.00     0.107 C 
HETATM    2  C   UNL     1       4.033  28.888  53.488  1.00  0.00     0.046 C 
HETATM    3  C   UNL     1       4.150  30.109  54.062  1.00  0.00     0.019 C 
HETATM    4  C   UNL     1       4.168  31.417  53.306  1.00  0.00     0.069 C 
HETATM    5  N   UNL     1       4.353  30.220  55.432  1.00  0.00    -0.353 N 
HETATM    6  C   UNL     1       4.712  29.169  56.262  1.00  0.00     0.087 C 
HETATM    7  C   UNL     1       4.654  27.898  55.793  1.00  0.00     0.055 C 
HETATM    8  C   UNL     1       5.381  26.766  56.499  1.00  0.00     0.019 C 
HETATM    9  N   UNL     1       5.984  25.827  57.086  1.00  0.00    -0.096 N 
HETATM   10  H   UNL     1       4.720  31.118  55.739  1.00  0.00     0.166 HD
ENDROOT
BRANCH   1  11
HETATM   11  C   UNL     1       5.280  26.648  53.680  1.00  0.00    -0.011 A 
HETATM   12  C   UNL     1       6.640  26.993  53.509  1.00  0.00     0.076 A 
HETATM   13  C   UNL     1       7.534  26.053  52.987  1.00  0.00     0.037 A 
HETATM   14  C   UNL     1       7.093  24.773  52.645  1.00  0.00     0.003 A 
HETATM   15  C   UNL     1       5.757  24.424  52.812  1.00  0.00     0.001 A 
HETATM   16  C   UNL     1       4.854  25.354  53.324  1.00  0.00     0.011 A 
BRANCH  12  17
HETATM   17  O   UNL     1       6.994  28.262  53.889  1.00  0.00    -0.351 OA
BRANCH  17  18
HETATM   18  C   UNL     1       8.350  28.483  54.268  1.00  0.00     0.171 C 
HETATM   19  C   UNL     1       8.378  28.708  55.769  1.00  0.00     0.034 C 
ENDBRANCH  17  18
ENDBRANCH  12  17
ENDBRANCH   1  11
BRANCH   6  20
HETATM   20  S   UNL     1       5.458  29.504  57.821  1.00  0.00    -0.102 SA
BRANCH  20  21
HETATM   21  C   UNL     1       6.181  31.148  57.562  1.00  0.00     0.184 C 
BRANCH  21  22
HETATM   22  C   UNL     1       6.107  32.032  58.797  1.00  0.00     0.231 C 
HETATM   23  N   UNL     1       6.487  31.390  59.963  1.00  0.00    -0.327 N 
HETATM   24  H   UNL     1       6.549  30.378  59.909  1.00  0.00     0.169 HD
HETATM   25  O   UNL     1       5.819  33.221  58.684  1.00  0.00    -0.272 OA
BRANCH  23  26
HETATM   26  C   UNL     1       6.741  31.963  61.222  1.00  0.00     0.034 A 
HETATM   27  C   UNL     1       8.010  32.037  61.799  1.00  0.00     0.030 A 
HETATM   28  C   UNL     1       8.173  32.579  63.078  1.00  0.00     0.009 A 
HETATM   29  C   UNL     1       7.073  33.052  63.800  1.00  0.00    -0.062 A 
HETATM   30  C   UNL     1       7.264  33.648  65.162  1.00  0.00     0.048 C 
HETATM   31  C   UNL     1       5.805  32.996  63.214  1.00  0.00     0.009 A 
HETATM   32  C   UNL     1       5.642  32.449  61.937  1.00  0.00     0.030 A 
ENDBRANCH  23  26
ENDBRANCH  21  22
ENDBRANCH  20  21
ENDBRANCH   6  20
BRANCH   2  33
HETATM   33  C   UNL     1       3.758  28.717  52.021  1.00  0.00     0.255 C 
HETATM   34  N   UNL     1       4.889  28.454  51.270  1.00  0.00    -0.323 N 
HETATM   35  H   UNL     1       5.767  28.385  51.766  1.00  0.00     0.169 HD
HETATM   36  O   UNL     1       2.621  28.814  51.583  1.00  0.00    -0.268 OA
BRANCH  34  37
HETATM   37  C   UNL     1       4.924  28.124  49.897  1.00  0.00     0.035 A 
HETATM   38  C   UNL     1       5.131  29.053  48.875  1.00  0.00     0.029 A 
HETATM   39  C   UNL     1       5.121  28.655  47.535  1.00  0.00     0.002 A 
HETATM   40  C   UNL     1       4.896  27.323  47.202  1.00  0.00     0.000 A 
HETATM   41  C   UNL     1       4.695  26.385  48.211  1.00  0.00     0.002 A 
HETATM   42  C   UNL     1       4.719  26.781  49.552  1.00  0.00     0.029 A 
ENDBRANCH  34  37
ENDBRANCH   2  33
TORSDOF 9
ENDMDL
MODEL 4
REMARK VINA RESULT:      -8.9      1.814      2.701
REMARK  9 active torsions:
REMARK  status: ('A' for Active; 'I' for Inactive)
REMARK    1  A    between atoms: C_2  and  O_3 
REMARK    2  A    between atoms: O_3  and  C_4 
REMARK    3  A    between atoms: C_5  and  C_6 
REMARK    4  A    between atoms: C_7  and  C_8 
REMARK       I    between atoms: C_8  and  N_9 
REMARK    5  A    between atoms: N_9  and  C_10 
REMARK    6  A    between atoms: C_20  and  S_21 
REMARK    7  A    between atoms: S_21  and  C_22 
REMARK    8  A    between atoms: C_22  and  C_23 
REMARK       I    between atoms: C_23  and  N_24 
REMARK    9  A    between atoms: N_24  and  C_25 
ROOT
HETATM    1  C   UNL     1       4.292  32.646  59.519  1.00  0.00     0.107 C 
HETATM    2  C   UNL     1       5.460  32.722  60.511  1.00  0.00     0.046 C 
HETATM    3  C   UNL     1       6.582  31.992  60.303  1.00  0.00     0.019 C 
HETATM    4  C   UNL     1       7.869  32.153  61.078  1.00  0.00     0.069 C 
HETATM    5  N   UNL     1       6.635  31.074  59.262  1.00  0.00    -0.353 N 
HETATM    6  C   UNL     1       5.717  31.006  58.225  1.00  0.00     0.087 C 
HETATM    7  C   UNL     1       4.560  31.711  58.310  1.00  0.00     0.055 C 
HETATM    8  C   UNL     1       3.714  31.982  57.078  1.00  0.00     0.019 C 
HETATM    9  N   UNL     1       3.011  32.206  56.055  1.00  0.00    -0.096 N 
HETATM   10  H   UNL     1       7.573  30.791  58.987  1.00  0.00     0.166 HD
ENDROOT
BRANCH   1  11
HETATM   11  C   UNL     1       3.823  34.028  59.020  1.00  0.00    -0.011 A 
HETATM   12  C   UNL     1       2.623  34.623  59.472  1.00  0.00     0.076 A 
HETATM   13  C   UNL     1       2.279  35.906  59.037  1.00  0.00     0.037 A 
HETATM   14  C   UNL     1       3.118  36.608  58.169  1.00  0.00     0.003 A 
HETATM   15  C   UNL     1       4.302  36.032  57.721  1.00  0.00     0.001 A 
HETATM   16  C   UNL     1       4.654  34.750  58.140  1.00  0.00     0.011 A 
BRANCH  12  17
HETATM   17  O   UNL     1       1.868  33.875  60.338  1.00  0.00    -0.351 OA
BRANCH  17  18
HETATM   18  C   UNL     1       1.040  34.575  61.264  1.00  0.00     0.171 C 
HETATM   19  C   UNL     1      -0.363  34.618  60.688  1.00  0.00     0.034 C 
ENDBRANCH  17  18
ENDBRANCH  12  17
ENDBRANCH   1  11
BRANCH   6  20
HETATM   20  S   UNL     1       6.158  30.208  56.719  1.00  0.00    -0.102 SA
BRANCH  20  21
HETATM   21  C   UNL     1       5.087  28.742  56.727  1.00  0.00     0.184 C 
BRANCH  21  22
HETATM   22  C   UNL     1       5.381  27.785  55.583  1.00  0.00     0.231 C 
HETATM   23  N   UNL     1       6.485  26.979  55.801  1.00  0.00    -0.327 N 
HETATM   24  H   UNL     1       7.092  27.261  56.565  1.00  0.00     0.169 HD
HETATM   25  O   UNL     1       4.613  27.721  54.626  1.00  0.00    -0.272 OA
BRANCH  23  26
HETATM   26  C   UNL     1       6.896  25.856  55.061  1.00  0.00     0.034 A 
HETATM   27  C   UNL     1       7.458  25.931  53.786  1.00  0.00     0.030 A 
HETATM   28  C   UNL     1       7.798  24.763  53.096  1.00  0.00     0.009 A 
HETATM   29  C   UNL     1       7.578  23.505  53.666  1.00  0.00    -0.062 A 
HETATM   30  C   UNL     1       7.965  22.262  52.923  1.00  0.00     0.048 C 
HETATM   31  C   UNL     1       7.034  23.432  54.952  1.00  0.00     0.009 A 
HETATM   32  C   UNL     1       6.690  24.599  55.640  1.00  0.00     0.030 A 
ENDBRANCH  23  26
ENDBRANCH  21  22
ENDBRANCH  20  21
ENDBRANCH   6  20
BRANCH   2  33
HETATM   33  C   UNL     1       5.334  33.686  61.656  1.00  0.00     0.255 C 
HETATM   34  N   UNL     1       4.764  33.134  62.788  1.00  0.00    -0.323 N 
HETATM   35  H   UNL     1       4.508  32.157  62.748  1.00  0.00     0.169 HD
HETATM   36  O   UNL     1       5.715  34.843  61.544  1.00  0.00    -0.268 OA
BRANCH  34  37
HETATM   37  C   UNL     1       4.635  33.757  64.050  1.00  0.00     0.035 A 
HETATM   38  C   UNL     1       3.596  34.626  64.390  1.00  0.00     0.029 A 
HETATM   39  C   UNL     1       3.554  35.229  65.651  1.00  0.00     0.002 A 
HETATM   40  C   UNL     1       4.555  34.975  66.582  1.00  0.00     0.000 A 
HETATM   41  C   UNL     1       5.594  34.106  66.259  1.00  0.00     0.002 A 
HETATM   42  C   UNL     1       5.628  33.491  65.003  1.00  0.00     0.029 A 
ENDBRANCH  34  37
ENDBRANCH   2  33
TORSDOF 9
ENDMDL
MODEL 5
REMARK VINA RESULT:      -8.4      4.868      9.782
REMARK  9 active torsions:
REMARK  status: ('A' for Active; 'I' for Inactive)
REMARK    1  A    between atoms: C_2  and  O_3 
REMARK    2  A    between atoms: O_3  and  C_4 
REMARK    3  A    between atoms: C_5  and  C_6 
REMARK    4  A    between atoms: C_7  and  C_8 
REMARK       I    between atoms: C_8  and  N_9 
REMARK    5  A    between atoms: N_9  and  C_10 
REMARK    6  A    between atoms: C_20  and  S_21 
REMARK    7  A    between atoms: S_21  and  C_22 
REMARK    8  A    between atoms: C_22  and  C_23 
REMARK       I    between atoms: C_23  and  N_24 
REMARK    9  A    between atoms: N_24  and  C_25 
ROOT
HETATM    1  C   UNL     1       5.667  27.316  54.556  1.00  0.00     0.107 C 
HETATM    2  C   UNL     1       5.963  26.404  53.358  1.00  0.00     0.046 C 
HETATM    3  C   UNL     1       5.365  26.628  52.164  1.00  0.00     0.019 C 
HETATM    4  C   UNL     1       5.744  25.944  50.870  1.00  0.00     0.069 C 
HETATM    5  N   UNL     1       4.385  27.605  52.046  1.00  0.00    -0.353 N 
HETATM    6  C   UNL     1       4.125  28.579  52.999  1.00  0.00     0.087 C 
HETATM    7  C   UNL     1       4.684  28.473  54.230  1.00  0.00     0.055 C 
HETATM    8  C   UNL     1       4.754  29.668  55.166  1.00  0.00     0.019 C 
HETATM    9  N   UNL     1       4.811  30.660  55.943  1.00  0.00    -0.096 N 
HETATM   10  H   UNL     1       4.202  27.915  51.094  1.00  0.00     0.166 HD
ENDROOT
BRANCH   1  11
HETATM   11  C   UNL     1       6.938  27.880  55.223  1.00  0.00    -0.011 A 
HETATM   12  C   UNL     1       7.207  27.700  56.599  1.00  0.00     0.076 A 
HETATM   13  C   UNL     1       8.405  28.176  57.139  1.00  0.00     0.037 A 
HETATM   14  C   UNL     1       9.344  28.815  56.326  1.00  0.00     0.003 A 
HETATM   15  C   UNL     1       9.089  28.994  54.970  1.00  0.00     0.001 A 
HETATM   16  C   UNL     1       7.895  28.533  54.420  1.00  0.00     0.011 A 
BRANCH  12  17
HETATM   17  O   UNL     1       6.244  27.045  57.322  1.00  0.00    -0.351 OA
BRANCH  17  18
HETATM   18  C   UNL     1       6.323  25.624  57.390  1.00  0.00     0.171 C 
HETATM   19  C   UNL     1       4.921  25.074  57.203  1.00  0.00     0.034 C 
ENDBRANCH  17  18
ENDBRANCH  12  17
ENDBRANCH   1  11
BRANCH   6  20
HETATM   20  S   UNL     1       3.277  30.050  52.535  1.00  0.00    -0.102 SA
BRANCH  20  21
HETATM   21  C   UNL     1       2.507  29.575  50.961  1.00  0.00     0.184 C 
BRANCH  21  22
HETATM   22  C   UNL     1       2.648  30.640  49.885  1.00  0.00     0.231 C 
HETATM   23  N   UNL     1       3.690  31.523  50.110  1.00  0.00    -0.327 N 
HETATM   24  H   UNL     1       4.085  31.509  51.046  1.00  0.00     0.169 HD
HETATM   25  O   UNL     1       1.931  30.603  48.889  1.00  0.00    -0.272 OA
BRANCH  23  26
HETATM   26  C   UNL     1       4.226  32.472  49.222  1.00  0.00     0.034 A 
HETATM   27  C   UNL     1       3.819  33.806  49.172  1.00  0.00     0.030 A 
HETATM   28  C   UNL     1       4.368  34.677  48.226  1.00  0.00     0.009 A 
HETATM   29  C   UNL     1       5.330  34.229  47.315  1.00  0.00    -0.062 A 
HETATM   30  C   UNL     1       5.925  35.178  46.319  1.00  0.00     0.048 C 
HETATM   31  C   UNL     1       5.753  32.899  47.379  1.00  0.00     0.009 A 
HETATM   32  C   UNL     1       5.200  32.027  48.322  1.00  0.00     0.030 A 
ENDBRANCH  23  26
ENDBRANCH  21  22
ENDBRANCH  20  21
ENDBRANCH   6  20
BRANCH   2  33
HETATM   33  C   UNL     1       6.988  25.322  53.549  1.00  0.00     0.255 C 
HETATM   34  N   UNL     1       6.475  24.161  54.097  1.00  0.00    -0.323 N 
HETATM   35  H   UNL     1       5.483  24.141  54.296  1.00  0.00     0.169 HD
HETATM   36  O   UNL     1       8.155  25.504  53.235  1.00  0.00    -0.268 OA
BRANCH  34  37
HETATM   37  C   UNL     1       7.166  22.940  54.272  1.00  0.00     0.035 A 
HETATM   38  C   UNL     1       7.510  22.409  55.517  1.00  0.00     0.029 A 
HETATM   39  C   UNL     1       8.223  21.210  55.609  1.00  0.00     0.002 A 
HETATM   40  C   UNL     1       8.607  20.534  54.456  1.00  0.00     0.000 A 
HETATM   41  C   UNL     1       8.266  21.049  53.209  1.00  0.00     0.002 A 
HETATM   42  C   UNL     1       7.540  22.241  53.117  1.00  0.00     0.029 A 
ENDBRANCH  34  37
ENDBRANCH   2  33
TORSDOF 9
ENDMDL
MODEL 6
REMARK VINA RESULT:      -8.4      4.600      8.756
REMARK  9 active torsions:
REMARK  status: ('A' for Active; 'I' for Inactive)
REMARK    1  A    between atoms: C_2  and  O_3 
REMARK    2  A    between atoms: O_3  and  C_4 
REMARK    3  A    between atoms: C_5  and  C_6 
REMARK    4  A    between atoms: C_7  and  C_8 
REMARK       I    between atoms: C_8  and  N_9 
REMARK    5  A    between atoms: N_9  and  C_10 
REMARK    6  A    between atoms: C_20  and  S_21 
REMARK    7  A    between atoms: S_21  and  C_22 
REMARK    8  A    between atoms: C_22  and  C_23 
REMARK       I    between atoms: C_23  and  N_24 
REMARK    9  A    between atoms: N_24  and  C_25 
ROOT
HETATM    1  C   UNL     1       4.873  28.121  54.800  1.00  0.00     0.107 C 
HETATM    2  C   UNL     1       4.978  26.808  54.012  1.00  0.00     0.046 C 
HETATM    3  C   UNL     1       4.502  26.730  52.747  1.00  0.00     0.019 C 
HETATM    4  C   UNL     1       4.748  25.574  51.805  1.00  0.00     0.069 C 
HETATM    5  N   UNL     1       3.801  27.796  52.197  1.00  0.00    -0.353 N 
HETATM    6  C   UNL     1       3.755  29.071  52.740  1.00  0.00     0.087 C 
HETATM    7  C   UNL     1       4.222  29.279  53.997  1.00  0.00     0.055 C 
HETATM    8  C   UNL     1       4.550  30.678  54.491  1.00  0.00     0.019 C 
HETATM    9  N   UNL     1       4.821  31.839  54.902  1.00  0.00    -0.096 N 
HETATM   10  H   UNL     1       3.738  27.789  51.182  1.00  0.00     0.166 HD
ENDROOT
BRANCH   1  11
HETATM   11  C   UNL     1       6.217  28.587  55.395  1.00  0.00    -0.011 A 
HETATM   12  C   UNL     1       6.325  29.067  56.720  1.00  0.00     0.076 A 
HETATM   13  C   UNL     1       7.579  29.415  57.231  1.00  0.00     0.037 A 
HETATM   14  C   UNL     1       8.726  29.278  56.446  1.00  0.00     0.003 A 
HETATM   15  C   UNL     1       8.629  28.803  55.142  1.00  0.00     0.001 A 
HETATM   16  C   UNL     1       7.384  28.461  54.617  1.00  0.00     0.011 A 
BRANCH  12  17
HETATM   17  O   UNL     1       5.155  29.152  57.430  1.00  0.00    -0.351 OA
BRANCH  17  18
HETATM   18  C   UNL     1       4.900  30.361  58.140  1.00  0.00     0.171 C 
HETATM   19  C   UNL     1       3.409  30.635  58.063  1.00  0.00     0.034 C 
ENDBRANCH  17  18
ENDBRANCH  12  17
ENDBRANCH   1  11
BRANCH   6  20
HETATM   20  S   UNL     1       3.318  30.439  51.721  1.00  0.00    -0.102 SA
BRANCH  20  21
HETATM   21  C   UNL     1       4.533  30.327  50.378  1.00  0.00     0.184 C 
BRANCH  21  22
HETATM   22  C   UNL     1       4.013  29.571  49.166  1.00  0.00     0.231 C 
HETATM   23  N   UNL     1       2.662  29.279  49.231  1.00  0.00    -0.327 N 
HETATM   24  H   UNL     1       2.230  29.390  50.144  1.00  0.00     0.169 HD
HETATM   25  O   UNL     1       4.757  29.356  48.212  1.00  0.00    -0.272 OA
BRANCH  23  26
HETATM   26  C   UNL     1       1.831  28.794  48.205  1.00  0.00     0.034 A 
HETATM   27  C   UNL     1       1.736  27.447  47.855  1.00  0.00     0.030 A 
HETATM   28  C   UNL     1       0.921  27.050  46.789  1.00  0.00     0.009 A 
HETATM   29  C   UNL     1       0.193  27.993  46.056  1.00  0.00    -0.062 A 
HETATM   30  C   UNL     1      -0.692  27.552  44.929  1.00  0.00     0.048 C 
HETATM   31  C   UNL     1       0.272  29.340  46.421  1.00  0.00     0.009 A 
HETATM   32  C   UNL     1       1.091  29.736  47.483  1.00  0.00     0.030 A 
ENDBRANCH  23  26
ENDBRANCH  21  22
ENDBRANCH  20  21
ENDBRANCH   6  20
BRANCH   2  33
HETATM   33  C   UNL     1       5.693  25.663  54.670  1.00  0.00     0.255 C 
HETATM   34  N   UNL     1       6.624  25.047  53.854  1.00  0.00    -0.323 N 
HETATM   35  H   UNL     1       6.747  25.424  52.924  1.00  0.00     0.169 HD
HETATM   36  O   UNL     1       5.437  25.344  55.822  1.00  0.00    -0.268 OA
BRANCH  34  37
HETATM   37  C   UNL     1       7.532  24.032  54.236  1.00  0.00     0.035 A 
HETATM   38  C   UNL     1       8.298  24.068  55.403  1.00  0.00     0.029 A 
HETATM   39  C   UNL     1       9.199  23.041  55.697  1.00  0.00     0.002 A 
HETATM   40  C   UNL     1       9.350  21.970  54.822  1.00  0.00     0.000 A 
HETATM   41  C   UNL     1       8.588  21.919  53.658  1.00  0.00     0.002 A 
HETATM   42  C   UNL     1       7.676  22.939  53.371  1.00  0.00     0.029 A 
ENDBRANCH  34  37
ENDBRANCH   2  33
TORSDOF 9
ENDMDL
MODEL 7
REMARK VINA RESULT:      -8.4      4.776      7.700
REMARK  9 active torsions:
REMARK  status: ('A' for Active; 'I' for Inactive)
REMARK    1  A    between atoms: C_2  and  O_3 
REMARK    2  A    between atoms: O_3  and  C_4 
REMARK    3  A    between atoms: C_5  and  C_6 
REMARK    4  A    between atoms: C_7  and  C_8 
REMARK       I    between atoms: C_8  and  N_9 
REMARK    5  A    between atoms: N_9  and  C_10 
REMARK    6  A    between atoms: C_20  and  S_21 
REMARK    7  A    between atoms: S_21  and  C_22 
REMARK    8  A    between atoms: C_22  and  C_23 
REMARK       I    between atoms: C_23  and  N_24 
REMARK    9  A    between atoms: N_24  and  C_25 
ROOT
HETATM    1  C   UNL     1       6.637  28.443  54.762  1.00  0.00     0.107 C 
HETATM    2  C   UNL     1       5.498  29.413  55.101  1.00  0.00     0.046 C 
HETATM    3  C   UNL     1       4.622  29.801  54.144  1.00  0.00     0.019 C 
HETATM    4  C   UNL     1       3.343  30.564  54.405  1.00  0.00     0.069 C 
HETATM    5  N   UNL     1       4.821  29.426  52.821  1.00  0.00    -0.353 N 
HETATM    6  C   UNL     1       5.717  28.453  52.406  1.00  0.00     0.087 C 
HETATM    7  C   UNL     1       6.633  27.971  53.283  1.00  0.00     0.055 C 
HETATM    8  C   UNL     1       7.366  26.667  53.015  1.00  0.00     0.019 C 
HETATM    9  N   UNL     1       7.975  25.585  52.793  1.00  0.00    -0.096 N 
HETATM   10  H   UNL     1       3.997  29.493  52.228  1.00  0.00     0.166 HD
ENDROOT
BRANCH   1  11
HETATM   11  C   UNL     1       6.701  27.223  55.702  1.00  0.00    -0.011 A 
HETATM   12  C   UNL     1       7.769  27.029  56.608  1.00  0.00     0.076 A 
HETATM   13  C   UNL     1       7.745  25.939  57.484  1.00  0.00     0.037 A 
HETATM   14  C   UNL     1       6.668  25.050  57.479  1.00  0.00     0.003 A 
HETATM   15  C   UNL     1       5.612  25.235  56.592  1.00  0.00     0.001 A 
HETATM   16  C   UNL     1       5.627  26.312  55.707  1.00  0.00     0.011 A 
BRANCH  12  17
HETATM   17  O   UNL     1       8.775  27.958  56.564  1.00  0.00    -0.351 OA
BRANCH  17  18
HETATM   18  C   UNL     1       8.851  28.900  57.630  1.00  0.00     0.171 C 
HETATM   19  C   UNL     1       9.958  29.885  57.299  1.00  0.00     0.034 C 
ENDBRANCH  17  18
ENDBRANCH  12  17
ENDBRANCH   1  11
BRANCH   6  20
HETATM   20  S   UNL     1       5.509  27.688  50.834  1.00  0.00    -0.102 SA
BRANCH  20  21
HETATM   21  C   UNL     1       5.521  29.109  49.705  1.00  0.00     0.184 C 
BRANCH  21  22
HETATM   22  C   UNL     1       4.135  29.487  49.209  1.00  0.00     0.231 C 
HETATM   23  N   UNL     1       3.833  28.977  47.959  1.00  0.00    -0.327 N 
HETATM   24  H   UNL     1       4.619  28.614  47.428  1.00  0.00     0.169 HD
HETATM   25  O   UNL     1       3.372  30.111  49.943  1.00  0.00    -0.272 OA
BRANCH  23  26
HETATM   26  C   UNL     1       2.583  28.951  47.314  1.00  0.00     0.034 A 
HETATM   27  C   UNL     1       1.968  30.078  46.768  1.00  0.00     0.030 A 
HETATM   28  C   UNL     1       0.701  29.978  46.185  1.00  0.00     0.009 A 
HETATM   29  C   UNL     1       0.028  28.752  46.141  1.00  0.00    -0.062 A 
HETATM   30  C   UNL     1      -1.321  28.655  45.495  1.00  0.00     0.048 C 
HETATM   31  C   UNL     1       0.654  27.619  46.669  1.00  0.00     0.009 A 
HETATM   32  C   UNL     1       1.919  27.721  47.257  1.00  0.00     0.030 A 
ENDBRANCH  23  26
ENDBRANCH  21  22
ENDBRANCH  20  21
ENDBRANCH   6  20
BRANCH   2  33
HETATM   33  C   UNL     1       5.356  29.839  56.535  1.00  0.00     0.255 C 
HETATM   34  N   UNL     1       6.026  31.010  56.836  1.00  0.00    -0.323 N 
HETATM   35  H   UNL     1       6.521  31.467  56.082  1.00  0.00     0.169 HD
HETATM   36  O   UNL     1       4.698  29.174  57.322  1.00  0.00    -0.268 OA
BRANCH  34  37
HETATM   37  C   UNL     1       5.971  31.716  58.059  1.00  0.00     0.035 A 
HETATM   38  C   UNL     1       6.946  31.628  59.056  1.00  0.00     0.029 A 
HETATM   39  C   UNL     1       6.805  32.334  60.255  1.00  0.00     0.002 A 
HETATM   40  C   UNL     1       5.685  33.130  60.472  1.00  0.00     0.000 A 
HETATM   41  C   UNL     1       4.709  33.231  59.484  1.00  0.00     0.002 A 
HETATM   42  C   UNL     1       4.856  32.536  58.279  1.00  0.00     0.029 A 
ENDBRANCH  34  37
ENDBRANCH   2  33
TORSDOF 9
ENDMDL
MODEL 8
REMARK VINA RESULT:      -8.3      4.633      9.928
REMARK  9 active torsions:
REMARK  status: ('A' for Active; 'I' for Inactive)
REMARK    1  A    between atoms: C_2  and  O_3 
REMARK    2  A    between atoms: O_3  and  C_4 
REMARK    3  A    between atoms: C_5  and  C_6 
REMARK    4  A    between atoms: C_7  and  C_8 
REMARK       I    between atoms: C_8  and  N_9 
REMARK    5  A    between atoms: N_9  and  C_10 
REMARK    6  A    between atoms: C_20  and  S_21 
REMARK    7  A    between atoms: S_21  and  C_22 
REMARK    8  A    between atoms: C_22  and  C_23 
REMARK       I    between atoms: C_23  and  N_24 
REMARK    9  A    between atoms: N_24  and  C_25 
ROOT
HETATM    1  C   UNL     1       5.703  27.367  54.603  1.00  0.00     0.107 C 
HETATM    2  C   UNL     1       5.968  26.466  53.390  1.00  0.00     0.046 C 
HETATM    3  C   UNL     1       5.345  26.705  52.211  1.00  0.00     0.019 C 
HETATM    4  C   UNL     1       5.692  26.033  50.903  1.00  0.00     0.069 C 
HETATM    5  N   UNL     1       4.367  27.688  52.125  1.00  0.00    -0.353 N 
HETATM    6  C   UNL     1       4.133  28.652  53.093  1.00  0.00     0.087 C 
HETATM    7  C   UNL     1       4.718  28.531  54.311  1.00  0.00     0.055 C 
HETATM    8  C   UNL     1       4.814  29.716  55.257  1.00  0.00     0.019 C 
HETATM    9  N   UNL     1       4.892  30.699  56.043  1.00  0.00    -0.096 N 
HETATM   10  H   UNL     1       4.165  28.009  51.181  1.00  0.00     0.166 HD
ENDROOT
BRANCH   1  11
HETATM   11  C   UNL     1       6.990  27.919  55.248  1.00  0.00    -0.011 A 
HETATM   12  C   UNL     1       7.288  27.725  56.616  1.00  0.00     0.076 A 
HETATM   13  C   UNL     1       8.500  28.189  57.135  1.00  0.00     0.037 A 
HETATM   14  C   UNL     1       9.424  28.831  56.308  1.00  0.00     0.003 A 
HETATM   15  C   UNL     1       9.141  29.025  54.960  1.00  0.00     0.001 A 
HETATM   16  C   UNL     1       7.932  28.574  54.431  1.00  0.00     0.011 A 
BRANCH  12  17
HETATM   17  O   UNL     1       6.337  27.067  57.353  1.00  0.00    -0.351 OA
BRANCH  17  18
HETATM   18  C   UNL     1       6.412  25.645  57.408  1.00  0.00     0.171 C 
HETATM   19  C   UNL     1       5.006  25.101  57.234  1.00  0.00     0.034 C 
ENDBRANCH  17  18
ENDBRANCH  12  17
ENDBRANCH   1  11
BRANCH   6  20
HETATM   20  S   UNL     1       3.281  30.132  52.663  1.00  0.00    -0.102 SA
BRANCH  20  21
HETATM   21  C   UNL     1       4.314  30.803  51.331  1.00  0.00     0.184 C 
BRANCH  21  22
HETATM   22  C   UNL     1       4.477  32.312  51.407  1.00  0.00     0.231 C 
HETATM   23  N   UNL     1       4.176  32.841  52.650  1.00  0.00    -0.327 N 
HETATM   24  H   UNL     1       3.678  32.223  53.284  1.00  0.00     0.169 HD
HETATM   25  O   UNL     1       4.927  32.929  50.445  1.00  0.00    -0.272 OA
BRANCH  23  26
HETATM   26  C   UNL     1       4.426  34.144  53.120  1.00  0.00     0.034 A 
HETATM   27  C   UNL     1       3.506  35.189  53.034  1.00  0.00     0.030 A 
HETATM   28  C   UNL     1       3.849  36.469  53.481  1.00  0.00     0.009 A 
HETATM   29  C   UNL     1       5.115  36.725  54.017  1.00  0.00    -0.062 A 
HETATM   30  C   UNL     1       5.462  38.097  54.510  1.00  0.00     0.048 C 
HETATM   31  C   UNL     1       6.029  35.672  54.121  1.00  0.00     0.009 A 
HETATM   32  C   UNL     1       5.688  34.394  53.670  1.00  0.00     0.030 A 
ENDBRANCH  23  26
ENDBRANCH  21  22
ENDBRANCH  20  21
ENDBRANCH   6  20
BRANCH   2  33
HETATM   33  C   UNL     1       6.992  25.378  53.547  1.00  0.00     0.255 C 
HETATM   34  N   UNL     1       6.494  24.226  54.127  1.00  0.00    -0.323 N 
HETATM   35  H   UNL     1       5.512  24.216  54.368  1.00  0.00     0.169 HD
HETATM   36  O   UNL     1       8.146  25.548  53.182  1.00  0.00    -0.268 OA
BRANCH  34  37
HETATM   37  C   UNL     1       7.183  23.001  54.284  1.00  0.00     0.035 A 
HETATM   38  C   UNL     1       7.548  22.464  55.520  1.00  0.00     0.029 A 
HETATM   39  C   UNL     1       8.258  21.262  55.594  1.00  0.00     0.002 A 
HETATM   40  C   UNL     1       8.616  20.588  54.431  1.00  0.00     0.000 A 
HETATM   41  C   UNL     1       8.253  21.109  53.192  1.00  0.00     0.002 A 
HETATM   42  C   UNL     1       7.531  22.305  53.119  1.00  0.00     0.029 A 
ENDBRANCH  34  37
ENDBRANCH   2  33
TORSDOF 9
ENDMDL
MODEL 9
REMARK VINA RESULT:      -8.3      1.893      2.806
REMARK  9 active torsions:
REMARK  status: ('A' for Active; 'I' for Inactive)
REMARK    1  A    between atoms: C_2  and  O_3 
REMARK    2  A    between atoms: O_3  and  C_4 
REMARK    3  A    between atoms: C_5  and  C_6 
REMARK    4  A    between atoms: C_7  and  C_8 
REMARK       I    between atoms: C_8  and  N_9 
REMARK    5  A    between atoms: N_9  and  C_10 
REMARK    6  A    between atoms: C_20  and  S_21 
REMARK    7  A    between atoms: S_21  and  C_22 
REMARK    8  A    between atoms: C_22  and  C_23 
REMARK       I    between atoms: C_23  and  N_24 
REMARK    9  A    between atoms: N_24  and  C_25 
ROOT
HETATM    1  C   UNL     1       3.605  31.904  55.810  1.00  0.00     0.107 C 
HETATM    2  C   UNL     1       4.582  31.463  56.909  1.00  0.00     0.046 C 
HETATM    3  C   UNL     1       5.351  30.362  56.738  1.00  0.00     0.019 C 
HETATM    4  C   UNL     1       6.496  29.964  57.640  1.00  0.00     0.069 C 
HETATM    5  N   UNL     1       5.173  29.551  55.624  1.00  0.00    -0.353 N 
HETATM    6  C   UNL     1       4.434  29.903  54.505  1.00  0.00     0.087 C 
HETATM    7  C   UNL     1       3.638  31.001  54.548  1.00  0.00     0.055 C 
HETATM    8  C   UNL     1       3.119  31.645  53.274  1.00  0.00     0.019 C 
HETATM    9  N   UNL     1       2.687  32.180  52.217  1.00  0.00    -0.096 N 
HETATM   10  H   UNL     1       5.955  28.936  55.412  1.00  0.00     0.166 HD
ENDROOT
BRANCH   1  11
HETATM   11  C   UNL     1       3.771  33.382  55.402  1.00  0.00    -0.011 A 
HETATM   12  C   UNL     1       2.751  34.338  55.613  1.00  0.00     0.076 A 
HETATM   13  C   UNL     1       2.978  35.678  55.284  1.00  0.00     0.037 A 
HETATM   14  C   UNL     1       4.210  36.079  54.761  1.00  0.00     0.003 A 
HETATM   15  C   UNL     1       5.220  35.146  54.553  1.00  0.00     0.001 A 
HETATM   16  C   UNL     1       5.004  33.805  54.868  1.00  0.00     0.011 A 
BRANCH  12  17
HETATM   17  O   UNL     1       1.581  33.865  56.149  1.00  0.00    -0.351 OA
BRANCH  17  18
HETATM   18  C   UNL     1       0.360  34.317  55.569  1.00  0.00     0.171 C 
HETATM   19  C   UNL     1       0.012  33.372  54.432  1.00  0.00     0.034 C 
ENDBRANCH  17  18
ENDBRANCH  12  17
ENDBRANCH   1  11
BRANCH   6  20
HETATM   20  S   UNL     1       4.713  29.072  52.978  1.00  0.00    -0.102 SA
BRANCH  20  21
HETATM   21  C   UNL     1       6.262  28.181  53.297  1.00  0.00     0.184 C 
BRANCH  21  22
HETATM   22  C   UNL     1       6.084  26.672  53.327  1.00  0.00     0.231 C 
HETATM   23  N   UNL     1       7.261  25.977  53.542  1.00  0.00    -0.327 N 
HETATM   24  H   UNL     1       8.116  26.513  53.429  1.00  0.00     0.169 HD
HETATM   25  O   UNL     1       4.957  26.186  53.256  1.00  0.00    -0.272 OA
BRANCH  23  26
HETATM   26  C   UNL     1       7.418  24.612  53.840  1.00  0.00     0.034 A 
HETATM   27  C   UNL     1       7.324  24.083  55.128  1.00  0.00     0.030 A 
HETATM   28  C   UNL     1       7.541  22.719  55.349  1.00  0.00     0.009 A 
HETATM   29  C   UNL     1       7.858  21.864  54.288  1.00  0.00    -0.062 A 
HETATM   30  C   UNL     1       8.069  20.401  54.535  1.00  0.00     0.048 C 
HETATM   31  C   UNL     1       7.932  22.391  52.995  1.00  0.00     0.009 A 
HETATM   32  C   UNL     1       7.720  23.756  52.776  1.00  0.00     0.030 A 
ENDBRANCH  23  26
ENDBRANCH  21  22
ENDBRANCH  20  21
ENDBRANCH   6  20
BRANCH   2  33
HETATM   33  C   UNL     1       4.699  32.340  58.123  1.00  0.00     0.255 C 
HETATM   34  N   UNL     1       3.682  32.157  59.041  1.00  0.00    -0.323 N 
HETATM   35  H   UNL     1       2.984  31.458  58.825  1.00  0.00     0.169 HD
HETATM   36  O   UNL     1       5.627  33.128  58.238  1.00  0.00    -0.268 OA
BRANCH  34  37
HETATM   37  C   UNL     1       3.596  32.743  60.325  1.00  0.00     0.035 A 
HETATM   38  C   UNL     1       4.395  32.371  61.408  1.00  0.00     0.029 A 
HETATM   39  C   UNL     1       4.229  32.976  62.658  1.00  0.00     0.002 A 
HETATM   40  C   UNL     1       3.257  33.953  62.839  1.00  0.00     0.000 A 
HETATM   41  C   UNL     1       2.457  34.338  61.766  1.00  0.00     0.002 A 
HETATM   42  C   UNL     1       2.633  33.743  60.512  1.00  0.00     0.029 A 
ENDBRANCH  34  37
ENDBRANCH   2  33
TORSDOF 9
ENDMDL
MODEL 10
REMARK VINA RESULT:      -8.2      2.454      9.622
REMARK  9 active torsions:
REMARK  status: ('A' for Active; 'I' for Inactive)
REMARK    1  A    between atoms: C_2  and  O_3 
REMARK    2  A    between atoms: O_3  and  C_4 
REMARK    3  A    between atoms: C_5  and  C_6 
REMARK    4  A    between atoms: C_7  and  C_8 
REMARK       I    between atoms: C_8  and  N_9 
REMARK    5  A    between atoms: N_9  and  C_10 
REMARK    6  A    between atoms: C_20  and  S_21 
REMARK    7  A    between atoms: S_21  and  C_22 
REMARK    8  A    between atoms: C_22  and  C_23 
REMARK       I    between atoms: C_23  and  N_24 
REMARK    9  A    between atoms: N_24  and  C_25 
ROOT
HETATM    1  C   UNL     1       5.766  28.967  53.574  1.00  0.00     0.107 C 
HETATM    2  C   UNL     1       6.277  28.098  54.731  1.00  0.00     0.046 C 
HETATM    3  C   UNL     1       5.781  28.262  55.981  1.00  0.00     0.019 C 
HETATM    4  C   UNL     1       6.040  27.326  57.139  1.00  0.00     0.069 C 
HETATM    5  N   UNL     1       4.899  29.301  56.251  1.00  0.00    -0.353 N 
HETATM    6  C   UNL     1       4.258  30.061  55.285  1.00  0.00     0.087 C 
HETATM    7  C   UNL     1       4.655  29.968  53.991  1.00  0.00     0.055 C 
HETATM    8  C   UNL     1       3.768  30.463  52.861  1.00  0.00     0.019 C 
HETATM    9  N   UNL     1       3.033  30.874  51.923  1.00  0.00    -0.096 N 
HETATM   10  H   UNL     1       4.352  29.188  57.102  1.00  0.00     0.166 HD
ENDROOT
BRANCH   1  11
HETATM   11  C   UNL     1       5.302  28.148  52.353  1.00  0.00    -0.011 A 
HETATM   12  C   UNL     1       5.541  28.576  51.027  1.00  0.00     0.076 A 
HETATM   13  C   UNL     1       5.157  27.763  49.956  1.00  0.00     0.037 A 
HETATM   14  C   UNL     1       4.552  26.526  50.189  1.00  0.00     0.003 A 
HETATM   15  C   UNL     1       4.315  26.095  51.490  1.00  0.00     0.001 A 
HETATM   16  C   UNL     1       4.685  26.900  52.567  1.00  0.00     0.011 A 
BRANCH  12  17
HETATM   17  O   UNL     1       6.158  29.792  50.887  1.00  0.00    -0.351 OA
BRANCH  17  18
HETATM   18  C   UNL     1       5.913  30.521  49.687  1.00  0.00     0.171 C 
HETATM   19  C   UNL     1       5.901  31.998  50.039  1.00  0.00     0.034 C 
ENDBRANCH  17  18
ENDBRANCH  12  17
ENDBRANCH   1  11
BRANCH   6  20
HETATM   20  S   UNL     1       2.796  30.949  55.701  1.00  0.00    -0.102 SA
BRANCH  20  21
HETATM   21  C   UNL     1       3.446  32.331  56.682  1.00  0.00     0.184 C 
BRANCH  21  22
HETATM   22  C   UNL     1       4.059  31.888  58.001  1.00  0.00     0.231 C 
HETATM   23  N   UNL     1       5.130  32.665  58.405  1.00  0.00    -0.327 N 
HETATM   24  H   UNL     1       5.523  33.277  57.696  1.00  0.00     0.169 HD
HETATM   25  O   UNL     1       3.541  30.976  58.641  1.00  0.00    -0.272 OA
BRANCH  23  26
HETATM   26  C   UNL     1       5.774  32.668  59.656  1.00  0.00     0.034 A 
HETATM   27  C   UNL     1       5.294  33.351  60.774  1.00  0.00     0.030 A 
HETATM   28  C   UNL     1       6.018  33.343  61.970  1.00  0.00     0.009 A 
HETATM   29  C   UNL     1       7.233  32.658  62.067  1.00  0.00    -0.062 A 
HETATM   30  C   UNL     1       7.990  32.642  63.360  1.00  0.00     0.048 C 
HETATM   31  C   UNL     1       7.703  31.957  60.952  1.00  0.00     0.009 A 
HETATM   32  C   UNL     1       6.981  31.968  59.755  1.00  0.00     0.030 A 
ENDBRANCH  23  26
ENDBRANCH  21  22
ENDBRANCH  20  21
ENDBRANCH   6  20
BRANCH   2  33
HETATM   33  C   UNL     1       7.275  27.025  54.401  1.00  0.00     0.255 C 
HETATM   34  N   UNL     1       6.874  25.757  54.780  1.00  0.00    -0.323 N 
HETATM   35  H   UNL     1       5.965  25.670  55.215  1.00  0.00     0.169 HD
HETATM   36  O   UNL     1       8.331  27.300  53.850  1.00  0.00    -0.268 OA
BRANCH  34  37
HETATM   37  C   UNL     1       7.540  24.545  54.489  1.00  0.00     0.035 A 
HETATM   38  C   UNL     1       8.409  23.900  55.372  1.00  0.00     0.029 A 
HETATM   39  C   UNL     1       9.056  22.718  54.999  1.00  0.00     0.002 A 
HETATM   40  C   UNL     1       8.848  22.173  53.736  1.00  0.00     0.000 A 
HETATM   41  C   UNL     1       7.980  22.803  52.849  1.00  0.00     0.002 A 
HETATM   42  C   UNL     1       7.321  23.978  53.226  1.00  0.00     0.029 A 
ENDBRANCH  34  37
ENDBRANCH   2  33
TORSDOF 9
ENDMDL
