MODEL 1
REMARK VINA RESULT:      -9.9      0.000      0.000
REMARK  8 active torsions:
REMARK  status: ('A' for Active; 'I' for Inactive)
REMARK    1  A    between atoms: C_10  and  C_11 
REMARK    2  A    between atoms: C_11  and  C_12 
REMARK       I    between atoms: C_12  and  N_13 
REMARK    3  A    between atoms: N_13  and  N_14 
REMARK       I    between atoms: N_14  and  C_15 
REMARK    4  A    between atoms: C_15  and  C_16 
REMARK    5  A    between atoms: C_16  and  C_17 
REMARK    6  A    between atoms: C_17  and  C_18 
REMARK       I    between atoms: C_18  and  N_19 
REMARK    7  A    between atoms: N_19  and  C_20 
REMARK    8  A    between atoms: C_20  and  C_21 
ROOT
HETATM    1  C   UNL     1       7.756  26.877  56.613  1.00  0.00     0.240 C 
HETATM    2  N   UNL     1       8.372  28.041  56.189  1.00  0.00    -0.267 N 
HETATM    3  O   UNL     1       8.074  26.320  57.664  1.00  0.00    -0.272 OA
HETATM    4  H   UNL     1       8.011  28.607  55.421  1.00  0.00     0.190 HD
ENDROOT
BRANCH   2   5
HETATM    5  N   UNL     1       9.213  28.695  57.102  1.00  0.00    -0.268 N 
HETATM    6  C   UNL     1      10.029  29.699  56.622  1.00  0.00     0.236 C 
HETATM    7  O   UNL     1      10.175  29.927  55.422  1.00  0.00    -0.272 OA
HETATM    8  H   UNL     1       8.905  28.668  58.075  1.00  0.00     0.190 HD
BRANCH   6   9
HETATM    9  C   UNL     1      10.688  30.511  57.717  1.00  0.00     0.114 C 
BRANCH   9  10
HETATM   10  C   UNL     1       9.687  31.379  58.465  1.00  0.00     0.112 C 
BRANCH  10  11
HETATM   11  C   UNL     1       9.116  30.659  59.667  1.00  0.00     0.218 C 
HETATM   12  N   UNL     1       9.556  31.138  60.874  1.00  0.00    -0.355 N 
HETATM   13  H   UNL     1       9.946  32.082  60.895  1.00  0.00     0.162 HD
HETATM   14  O   UNL     1       8.319  29.733  59.550  1.00  0.00    -0.274 OA
BRANCH  12  15
HETATM   15  C   UNL     1       9.035  30.611  62.112  1.00  0.00     0.187 C 
BRANCH  15  16
HETATM   16  C   UNL     1       8.032  31.561  62.647  1.00  0.00     0.070 A 
HETATM   17  O   UNL     1       6.739  31.380  62.250  1.00  0.00    -0.325 OA
HETATM   18  C   UNL     1       6.001  32.352  62.845  1.00  0.00     0.142 A 
HETATM   19  C   UNL     1       6.803  33.160  63.619  1.00  0.00     0.027 A 
HETATM   20  C   UNL     1       8.117  32.649  63.491  1.00  0.00     0.036 A 
ENDBRANCH  15  16
ENDBRANCH  12  15
ENDBRANCH  10  11
ENDBRANCH   9  10
ENDBRANCH   6   9
ENDBRANCH   2   5
BRANCH   1  21
HETATM   21  C   UNL     1       6.653  26.386  55.705  1.00  0.00     0.146 C 
BRANCH  21  22
HETATM   22  C   UNL     1       6.960  25.193  54.848  1.00  0.00    -0.015 A 
HETATM   23  C   UNL     1       7.418  23.873  55.204  1.00  0.00     0.000 A 
HETATM   24  C   UNL     1       7.716  23.215  56.418  1.00  0.00     0.021 A 
HETATM   25  C   UNL     1       7.570  23.145  54.019  1.00  0.00     0.049 A 
HETATM   26  C   UNL     1       8.163  21.885  56.419  1.00  0.00    -0.061 A 
HETATM   27  C   UNL     1       8.445  21.177  57.713  1.00  0.00     0.048 C 
HETATM   28  C   UNL     1       8.293  21.200  55.210  1.00  0.00     0.015 A 
HETATM   29  C   UNL     1       8.009  21.808  53.975  1.00  0.00    -0.034 A 
HETATM   30  C   UNL     1       8.163  21.005  52.715  1.00  0.00     0.050 C 
HETATM   31  N   UNL     1       7.209  23.981  52.989  1.00  0.00    -0.358 N 
HETATM   32  H   UNL     1       7.214  23.713  52.016  1.00  0.00     0.166 HD
HETATM   33  C   UNL     1       6.847  25.212  53.462  1.00  0.00     0.013 A 
HETATM   34  C   UNL     1       6.418  26.297  52.539  1.00  0.00     0.068 C 
ENDBRANCH  21  22
ENDBRANCH   1  21
TORSDOF 8
ENDMDL
MODEL 2
REMARK VINA RESULT:      -9.7      5.888      9.638
REMARK  8 active torsions:
REMARK  status: ('A' for Active; 'I' for Inactive)
REMARK    1  A    between atoms: C_10  and  C_11 
REMARK    2  A    between atoms: C_11  and  C_12 
REMARK       I    between atoms: C_12  and  N_13 
REMARK    3  A    between atoms: N_13  and  N_14 
REMARK       I    between atoms: N_14  and  C_15 
REMARK    4  A    between atoms: C_15  and  C_16 
REMARK    5  A    between atoms: C_16  and  C_17 
REMARK    6  A    between atoms: C_17  and  C_18 
REMARK       I    between atoms: C_18  and  N_19 
REMARK    7  A    between atoms: N_19  and  C_20 
REMARK    8  A    between atoms: C_20  and  C_21 
ROOT
HETATM    1  C   UNL     1       5.624  25.802  51.423  1.00  0.00     0.240 C 
HETATM    2  N   UNL     1       5.406  26.343  50.168  1.00  0.00    -0.267 N 
HETATM    3  O   UNL     1       4.731  25.227  52.046  1.00  0.00    -0.272 OA
HETATM    4  H   UNL     1       6.165  26.666  49.568  1.00  0.00     0.190 HD
ENDROOT
BRANCH   2   5
HETATM    5  N   UNL     1       4.200  26.019  49.527  1.00  0.00    -0.268 N 
HETATM    6  C   UNL     1       4.173  26.062  48.148  1.00  0.00     0.236 C 
HETATM    7  O   UNL     1       5.090  26.527  47.473  1.00  0.00    -0.272 OA
HETATM    8  H   UNL     1       3.569  25.422  50.063  1.00  0.00     0.190 HD
BRANCH   6   9
HETATM    9  C   UNL     1       2.925  25.443  47.554  1.00  0.00     0.114 C 
BRANCH   9  10
HETATM   10  C   UNL     1       2.007  26.488  46.935  1.00  0.00     0.112 C 
BRANCH  10  11
HETATM   11  C   UNL     1       1.908  27.723  47.803  1.00  0.00     0.218 C 
HETATM   12  N   UNL     1       2.683  28.773  47.383  1.00  0.00    -0.355 N 
HETATM   13  H   UNL     1       2.995  28.772  46.410  1.00  0.00     0.162 HD
HETATM   14  O   UNL     1       1.180  27.766  48.790  1.00  0.00    -0.274 OA
BRANCH  12  15
HETATM   15  C   UNL     1       2.630  30.048  48.057  1.00  0.00     0.187 C 
BRANCH  15  16
HETATM   16  C   UNL     1       3.936  30.293  48.711  1.00  0.00     0.070 A 
HETATM   17  O   UNL     1       4.406  29.311  49.535  1.00  0.00    -0.325 OA
HETATM   18  C   UNL     1       5.597  29.742  50.026  1.00  0.00     0.142 A 
HETATM   19  C   UNL     1       5.900  30.989  49.531  1.00  0.00     0.027 A 
HETATM   20  C   UNL     1       4.826  31.347  48.681  1.00  0.00     0.036 A 
ENDBRANCH  15  16
ENDBRANCH  12  15
ENDBRANCH  10  11
ENDBRANCH   9  10
ENDBRANCH   6   9
ENDBRANCH   2   5
BRANCH   1  21
HETATM   21  C   UNL     1       7.039  25.946  51.929  1.00  0.00     0.146 C 
BRANCH  21  22
HETATM   22  C   UNL     1       7.350  25.332  53.263  1.00  0.00    -0.015 A 
HETATM   23  C   UNL     1       7.673  23.973  53.620  1.00  0.00     0.000 A 
HETATM   24  C   UNL     1       7.837  22.767  52.904  1.00  0.00     0.021 A 
HETATM   25  C   UNL     1       7.850  23.932  55.007  1.00  0.00     0.049 A 
HETATM   26  C   UNL     1       8.152  21.574  53.574  1.00  0.00    -0.061 A 
HETATM   27  C   UNL     1       8.362  20.301  52.805  1.00  0.00     0.048 C 
HETATM   28  C   UNL     1       8.325  21.587  54.959  1.00  0.00     0.015 A 
HETATM   29  C   UNL     1       8.174  22.760  55.718  1.00  0.00    -0.034 A 
HETATM   30  C   UNL     1       8.385  22.699  57.203  1.00  0.00     0.050 C 
HETATM   31  N   UNL     1       7.658  25.211  55.471  1.00  0.00    -0.358 N 
HETATM   32  H   UNL     1       7.734  25.477  56.442  1.00  0.00     0.166 HD
HETATM   33  C   UNL     1       7.351  26.063  54.446  1.00  0.00     0.013 A 
HETATM   34  C   UNL     1       7.092  27.506  54.694  1.00  0.00     0.068 C 
ENDBRANCH  21  22
ENDBRANCH   1  21
TORSDOF 8
ENDMDL
MODEL 3
REMARK VINA RESULT:      -9.7      2.016      3.220
REMARK  8 active torsions:
REMARK  status: ('A' for Active; 'I' for Inactive)
REMARK    1  A    between atoms: C_10  and  C_11 
REMARK    2  A    between atoms: C_11  and  C_12 
REMARK       I    between atoms: C_12  and  N_13 
REMARK    3  A    between atoms: N_13  and  N_14 
REMARK       I    between atoms: N_14  and  C_15 
REMARK    4  A    between atoms: C_15  and  C_16 
REMARK    5  A    between atoms: C_16  and  C_17 
REMARK    6  A    between atoms: C_17  and  C_18 
REMARK       I    between atoms: C_18  and  N_19 
REMARK    7  A    between atoms: N_19  and  C_20 
REMARK    8  A    between atoms: C_20  and  C_21 
ROOT
HETATM    1  C   UNL     1       8.030  27.968  57.704  1.00  0.00     0.240 C 
HETATM    2  N   UNL     1       7.565  28.957  58.554  1.00  0.00    -0.267 N 
HETATM    3  O   UNL     1       9.076  28.098  57.068  1.00  0.00    -0.272 OA
HETATM    4  H   UNL     1       6.803  28.801  59.214  1.00  0.00     0.190 HD
ENDROOT
BRANCH   2   5
HETATM    5  N   UNL     1       8.436  30.018  58.845  1.00  0.00    -0.268 N 
HETATM    6  C   UNL     1       7.879  31.224  59.219  1.00  0.00     0.236 C 
HETATM    7  O   UNL     1       6.673  31.456  59.146  1.00  0.00    -0.272 OA
HETATM    8  H   UNL     1       9.376  29.744  59.133  1.00  0.00     0.190 HD
BRANCH   6   9
HETATM    9  C   UNL     1       8.892  32.208  59.765  1.00  0.00     0.114 C 
BRANCH   9  10
HETATM   10  C   UNL     1       9.293  31.880  61.196  1.00  0.00     0.112 C 
BRANCH  10  11
HETATM   11  C   UNL     1       8.086  31.572  62.055  1.00  0.00     0.218 C 
HETATM   12  N   UNL     1       7.122  32.548  62.044  1.00  0.00    -0.355 N 
HETATM   13  H   UNL     1       7.126  33.210  61.266  1.00  0.00     0.162 HD
HETATM   14  O   UNL     1       7.991  30.528  62.691  1.00  0.00    -0.274 OA
BRANCH  12  15
HETATM   15  C   UNL     1       5.874  32.361  62.745  1.00  0.00     0.187 C 
BRANCH  15  16
HETATM   16  C   UNL     1       5.975  33.010  64.072  1.00  0.00     0.070 A 
HETATM   17  O   UNL     1       4.841  33.040  64.832  1.00  0.00    -0.325 OA
HETATM   18  C   UNL     1       5.155  33.678  65.989  1.00  0.00     0.142 A 
HETATM   19  C   UNL     1       6.476  34.061  65.985  1.00  0.00     0.027 A 
HETATM   20  C   UNL     1       7.008  33.630  64.746  1.00  0.00     0.036 A 
ENDBRANCH  15  16
ENDBRANCH  12  15
ENDBRANCH  10  11
ENDBRANCH   9  10
ENDBRANCH   6   9
ENDBRANCH   2   5
BRANCH   1  21
HETATM   21  C   UNL     1       7.173  26.726  57.662  1.00  0.00     0.146 C 
BRANCH  21  22
HETATM   22  C   UNL     1       6.501  26.407  56.358  1.00  0.00    -0.015 A 
HETATM   23  C   UNL     1       6.790  25.393  55.375  1.00  0.00     0.000 A 
HETATM   24  C   UNL     1       7.738  24.352  55.267  1.00  0.00     0.021 A 
HETATM   25  C   UNL     1       5.873  25.545  54.329  1.00  0.00     0.049 A 
HETATM   26  C   UNL     1       7.759  23.517  54.138  1.00  0.00    -0.061 A 
HETATM   27  C   UNL     1       8.745  22.389  54.043  1.00  0.00     0.048 C 
HETATM   28  C   UNL     1       6.819  23.707  53.124  1.00  0.00     0.015 A 
HETATM   29  C   UNL     1       5.854  24.726  53.183  1.00  0.00    -0.034 A 
HETATM   30  C   UNL     1       4.868  24.863  52.059  1.00  0.00     0.050 C 
HETATM   31  N   UNL     1       5.055  26.597  54.667  1.00  0.00    -0.358 N 
HETATM   32  H   UNL     1       4.291  26.924  54.094  1.00  0.00     0.166 HD
HETATM   33  C   UNL     1       5.417  27.131  55.872  1.00  0.00     0.013 A 
HETATM   34  C   UNL     1       4.684  28.287  56.455  1.00  0.00     0.068 C 
ENDBRANCH  21  22
ENDBRANCH   1  21
TORSDOF 8
ENDMDL
MODEL 4
REMARK VINA RESULT:      -9.5      2.148      2.883
REMARK  8 active torsions:
REMARK  status: ('A' for Active; 'I' for Inactive)
REMARK    1  A    between atoms: C_10  and  C_11 
REMARK    2  A    between atoms: C_11  and  C_12 
REMARK       I    between atoms: C_12  and  N_13 
REMARK    3  A    between atoms: N_13  and  N_14 
REMARK       I    between atoms: N_14  and  C_15 
REMARK    4  A    between atoms: C_15  and  C_16 
REMARK    5  A    between atoms: C_16  and  C_17 
REMARK    6  A    between atoms: C_17  and  C_18 
REMARK       I    between atoms: C_18  and  N_19 
REMARK    7  A    between atoms: N_19  and  C_20 
REMARK    8  A    between atoms: C_20  and  C_21 
ROOT
HETATM    1  C   UNL     1       5.295  29.256  56.250  1.00  0.00     0.240 C 
HETATM    2  N   UNL     1       5.606  29.054  57.583  1.00  0.00    -0.267 N 
HETATM    3  O   UNL     1       5.695  30.243  55.632  1.00  0.00    -0.272 OA
HETATM    4  H   UNL     1       5.434  28.169  58.060  1.00  0.00     0.190 HD
ENDROOT
BRANCH   2   5
HETATM    5  N   UNL     1       6.581  29.889  58.151  1.00  0.00    -0.268 N 
HETATM    6  C   UNL     1       7.824  29.347  58.406  1.00  0.00     0.236 C 
HETATM    7  O   UNL     1       8.061  28.144  58.318  1.00  0.00    -0.272 OA
HETATM    8  H   UNL     1       6.449  30.888  57.985  1.00  0.00     0.190 HD
BRANCH   6   9
HETATM    9  C   UNL     1       8.868  30.385  58.762  1.00  0.00     0.114 C 
BRANCH   9  10
HETATM   10  C   UNL     1       8.848  30.730  60.245  1.00  0.00     0.112 C 
BRANCH  10  11
HETATM   11  C   UNL     1       7.600  31.500  60.619  1.00  0.00     0.218 C 
HETATM   12  N   UNL     1       7.058  31.142  61.827  1.00  0.00    -0.355 N 
HETATM   13  H   UNL     1       7.662  30.658  62.493  1.00  0.00     0.162 HD
HETATM   14  O   UNL     1       7.135  32.374  59.895  1.00  0.00    -0.274 OA
BRANCH  12  15
HETATM   15  C   UNL     1       5.916  31.845  62.361  1.00  0.00     0.187 C 
BRANCH  15  16
HETATM   16  C   UNL     1       6.354  32.633  63.537  1.00  0.00     0.070 A 
HETATM   17  O   UNL     1       5.380  33.044  64.401  1.00  0.00    -0.325 OA
HETATM   18  C   UNL     1       5.994  33.745  65.388  1.00  0.00     0.142 A 
HETATM   19  C   UNL     1       7.352  33.793  65.171  1.00  0.00     0.027 A 
HETATM   20  C   UNL     1       7.586  33.075  63.974  1.00  0.00     0.036 A 
ENDBRANCH  15  16
ENDBRANCH  12  15
ENDBRANCH  10  11
ENDBRANCH   9  10
ENDBRANCH   6   9
ENDBRANCH   2   5
BRANCH   1  21
HETATM   21  C   UNL     1       4.469  28.156  55.627  1.00  0.00     0.146 C 
BRANCH  21  22
HETATM   22  C   UNL     1       5.185  27.202  54.715  1.00  0.00    -0.015 A 
HETATM   23  C   UNL     1       6.182  26.200  54.999  1.00  0.00     0.000 A 
HETATM   24  C   UNL     1       6.821  25.733  56.170  1.00  0.00     0.021 A 
HETATM   25  C   UNL     1       6.538  25.603  53.786  1.00  0.00     0.049 A 
HETATM   26  C   UNL     1       7.787  24.717  56.101  1.00  0.00    -0.061 A 
HETATM   27  C   UNL     1       8.437  24.198  57.351  1.00  0.00     0.048 C 
HETATM   28  C   UNL     1       8.102  24.149  54.865  1.00  0.00     0.015 A 
HETATM   29  C   UNL     1       7.496  24.576  53.672  1.00  0.00    -0.034 A 
HETATM   30  C   UNL     1       7.879  23.911  52.381  1.00  0.00     0.050 C 
HETATM   31  N   UNL     1       5.782  26.205  52.809  1.00  0.00    -0.358 N 
HETATM   32  H   UNL     1       5.826  25.962  51.830  1.00  0.00     0.166 HD
HETATM   33  C   UNL     1       4.971  27.168  53.342  1.00  0.00     0.013 A 
HETATM   34  C   UNL     1       4.056  27.968  52.484  1.00  0.00     0.068 C 
ENDBRANCH  21  22
ENDBRANCH   1  21
TORSDOF 8
ENDMDL
MODEL 5
REMARK VINA RESULT:      -9.2      3.003     10.746
REMARK  8 active torsions:
REMARK  status: ('A' for Active; 'I' for Inactive)
REMARK    1  A    between atoms: C_10  and  C_11 
REMARK    2  A    between atoms: C_11  and  C_12 
REMARK       I    between atoms: C_12  and  N_13 
REMARK    3  A    between atoms: N_13  and  N_14 
REMARK       I    between atoms: N_14  and  C_15 
REMARK    4  A    between atoms: C_15  and  C_16 
REMARK    5  A    between atoms: C_16  and  C_17 
REMARK    6  A    between atoms: C_17  and  C_18 
REMARK       I    between atoms: C_18  and  N_19 
REMARK    7  A    between atoms: N_19  and  C_20 
REMARK    8  A    between atoms: C_20  and  C_21 
ROOT
HETATM    1  C   UNL     1       3.787  31.705  59.355  1.00  0.00     0.240 C 
HETATM    2  N   UNL     1       4.690  31.179  58.447  1.00  0.00    -0.267 N 
HETATM    3  O   UNL     1       2.842  31.044  59.786  1.00  0.00    -0.272 OA
HETATM    4  H   UNL     1       5.568  31.643  58.213  1.00  0.00     0.190 HD
ENDROOT
BRANCH   2   5
HETATM    5  N   UNL     1       4.631  29.798  58.204  1.00  0.00    -0.268 N 
HETATM    6  C   UNL     1       5.009  29.346  56.956  1.00  0.00     0.236 C 
HETATM    7  O   UNL     1       5.229  30.100  56.010  1.00  0.00    -0.272 OA
HETATM    8  H   UNL     1       4.690  29.207  59.035  1.00  0.00     0.190 HD
BRANCH   6   9
HETATM    9  C   UNL     1       5.164  27.842  56.886  1.00  0.00     0.114 C 
BRANCH   9  10
HETATM   10  C   UNL     1       6.588  27.400  57.189  1.00  0.00     0.112 C 
BRANCH  10  11
HETATM   11  C   UNL     1       6.754  25.905  57.018  1.00  0.00     0.218 C 
HETATM   12  N   UNL     1       7.956  25.529  56.475  1.00  0.00    -0.355 N 
HETATM   13  H   UNL     1       8.728  26.196  56.526  1.00  0.00     0.162 HD
HETATM   14  O   UNL     1       5.880  25.113  57.352  1.00  0.00    -0.274 OA
BRANCH  12  15
HETATM   15  C   UNL     1       8.297  24.135  56.330  1.00  0.00     0.187 C 
BRANCH  15  16
HETATM   16  C   UNL     1       8.133  23.753  54.909  1.00  0.00     0.070 A 
HETATM   17  O   UNL     1       8.282  22.430  54.604  1.00  0.00    -0.325 OA
HETATM   18  C   UNL     1       8.100  22.308  53.265  1.00  0.00     0.142 A 
HETATM   19  C   UNL     1       7.837  23.535  52.700  1.00  0.00     0.027 A 
HETATM   20  C   UNL     1       7.859  24.470  53.762  1.00  0.00     0.036 A 
ENDBRANCH  15  16
ENDBRANCH  12  15
ENDBRANCH  10  11
ENDBRANCH   9  10
ENDBRANCH   6   9
ENDBRANCH   2   5
BRANCH   1  21
HETATM   21  C   UNL     1       4.088  33.120  59.787  1.00  0.00     0.146 C 
BRANCH  21  22
HETATM   22  C   UNL     1       4.627  33.306  61.176  1.00  0.00    -0.015 A 
HETATM   23  C   UNL     1       5.922  32.997  61.730  1.00  0.00     0.000 A 
HETATM   24  C   UNL     1       7.122  32.456  61.218  1.00  0.00     0.021 A 
HETATM   25  C   UNL     1       5.896  33.347  63.084  1.00  0.00     0.049 A 
HETATM   26  C   UNL     1       8.236  32.268  62.052  1.00  0.00    -0.061 A 
HETATM   27  C   UNL     1       9.521  31.727  61.496  1.00  0.00     0.048 C 
HETATM   28  C   UNL     1       8.160  32.640  63.395  1.00  0.00     0.015 A 
HETATM   29  C   UNL     1       6.991  33.183  63.954  1.00  0.00    -0.034 A 
HETATM   30  C   UNL     1       6.988  33.568  65.405  1.00  0.00     0.050 C 
HETATM   31  N   UNL     1       4.646  33.859  63.339  1.00  0.00    -0.358 N 
HETATM   32  H   UNL     1       4.349  34.203  64.240  1.00  0.00     0.166 HD
HETATM   33  C   UNL     1       3.869  33.837  62.214  1.00  0.00     0.013 A 
HETATM   34  C   UNL     1       2.468  34.336  62.234  1.00  0.00     0.068 C 
ENDBRANCH  21  22
ENDBRANCH   1  21
TORSDOF 8
ENDMDL
MODEL 6
REMARK VINA RESULT:      -9.1      2.632      3.581
REMARK  8 active torsions:
REMARK  status: ('A' for Active; 'I' for Inactive)
REMARK    1  A    between atoms: C_10  and  C_11 
REMARK    2  A    between atoms: C_11  and  C_12 
REMARK       I    between atoms: C_12  and  N_13 
REMARK    3  A    between atoms: N_13  and  N_14 
REMARK       I    between atoms: N_14  and  C_15 
REMARK    4  A    between atoms: C_15  and  C_16 
REMARK    5  A    between atoms: C_16  and  C_17 
REMARK    6  A    between atoms: C_17  and  C_18 
REMARK       I    between atoms: C_18  and  N_19 
REMARK    7  A    between atoms: N_19  and  C_20 
REMARK    8  A    between atoms: C_20  and  C_21 
ROOT
HETATM    1  C   UNL     1       6.258  26.796  55.701  1.00  0.00     0.240 C 
HETATM    2  N   UNL     1       6.357  27.643  56.791  1.00  0.00    -0.267 N 
HETATM    3  O   UNL     1       5.171  26.507  55.200  1.00  0.00    -0.272 OA
HETATM    4  H   UNL     1       7.246  28.030  57.109  1.00  0.00     0.190 HD
ENDROOT
BRANCH   2   5
HETATM    5  N   UNL     1       5.201  28.345  57.169  1.00  0.00    -0.268 N 
HETATM    6  C   UNL     1       5.041  29.629  56.688  1.00  0.00     0.236 C 
HETATM    7  O   UNL     1       5.929  30.237  56.093  1.00  0.00    -0.272 OA
HETATM    8  H   UNL     1       4.405  27.763  57.434  1.00  0.00     0.190 HD
BRANCH   6   9
HETATM    9  C   UNL     1       3.656  30.190  56.930  1.00  0.00     0.114 C 
BRANCH   9  10
HETATM   10  C   UNL     1       3.525  30.812  58.313  1.00  0.00     0.112 C 
BRANCH  10  11
HETATM   11  C   UNL     1       4.617  31.827  58.570  1.00  0.00     0.218 C 
HETATM   12  N   UNL     1       5.496  31.472  59.561  1.00  0.00    -0.355 N 
HETATM   13  H   UNL     1       5.552  30.483  59.812  1.00  0.00     0.162 HD
HETATM   14  O   UNL     1       4.699  32.870  57.929  1.00  0.00    -0.274 OA
BRANCH  12  15
HETATM   15  C   UNL     1       6.642  32.295  59.864  1.00  0.00     0.187 C 
BRANCH  15  16
HETATM   16  C   UNL     1       7.851  31.649  59.303  1.00  0.00     0.070 A 
HETATM   17  O   UNL     1       8.972  32.421  59.204  1.00  0.00    -0.325 OA
HETATM   18  C   UNL     1       9.944  31.641  58.666  1.00  0.00     0.142 A 
HETATM   19  C   UNL     1       9.464  30.377  58.414  1.00  0.00     0.027 A 
HETATM   20  C   UNL     1       8.110  30.381  58.826  1.00  0.00     0.036 A 
ENDBRANCH  15  16
ENDBRANCH  12  15
ENDBRANCH  10  11
ENDBRANCH   9  10
ENDBRANCH   6   9
ENDBRANCH   2   5
BRANCH   1  21
HETATM   21  C   UNL     1       7.583  26.303  55.171  1.00  0.00     0.146 C 
BRANCH  21  22
HETATM   22  C   UNL     1       7.587  24.966  54.489  1.00  0.00    -0.015 A 
HETATM   23  C   UNL     1       7.810  23.643  55.016  1.00  0.00     0.000 A 
HETATM   24  C   UNL     1       8.072  23.112  56.298  1.00  0.00     0.021 A 
HETATM   25  C   UNL     1       7.727  22.743  53.947  1.00  0.00     0.049 A 
HETATM   26  C   UNL     1       8.256  21.731  56.477  1.00  0.00    -0.061 A 
HETATM   27  C   UNL     1       8.498  21.167  57.847  1.00  0.00     0.048 C 
HETATM   28  C   UNL     1       8.156  20.875  55.380  1.00  0.00     0.015 A 
HETATM   29  C   UNL     1       7.896  21.352  54.083  1.00  0.00    -0.034 A 
HETATM   30  C   UNL     1       7.794  20.369  52.952  1.00  0.00     0.050 C 
HETATM   31  N   UNL     1       7.452  23.485  52.823  1.00  0.00    -0.358 N 
HETATM   32  H   UNL     1       7.328  23.090  51.903  1.00  0.00     0.166 HD
HETATM   33  C   UNL     1       7.371  24.816  53.123  1.00  0.00     0.013 A 
HETATM   34  C   UNL     1       7.086  25.828  52.071  1.00  0.00     0.068 C 
ENDBRANCH  21  22
ENDBRANCH   1  21
TORSDOF 8
ENDMDL
MODEL 7
REMARK VINA RESULT:      -9.0      1.761      2.768
REMARK  8 active torsions:
REMARK  status: ('A' for Active; 'I' for Inactive)
REMARK    1  A    between atoms: C_10  and  C_11 
REMARK    2  A    between atoms: C_11  and  C_12 
REMARK       I    between atoms: C_12  and  N_13 
REMARK    3  A    between atoms: N_13  and  N_14 
REMARK       I    between atoms: N_14  and  C_15 
REMARK    4  A    between atoms: C_15  and  C_16 
REMARK    5  A    between atoms: C_16  and  C_17 
REMARK    6  A    between atoms: C_17  and  C_18 
REMARK       I    between atoms: C_18  and  N_19 
REMARK    7  A    between atoms: N_19  and  C_20 
REMARK    8  A    between atoms: C_20  and  C_21 
ROOT
HETATM    1  C   UNL     1       7.063  27.277  54.612  1.00  0.00     0.240 C 
HETATM    2  N   UNL     1       6.172  28.161  55.195  1.00  0.00    -0.267 N 
HETATM    3  O   UNL     1       8.230  27.593  54.375  1.00  0.00    -0.272 OA
HETATM    4  H   UNL     1       5.263  27.869  55.554  1.00  0.00     0.190 HD
ENDROOT
BRANCH   2   5
HETATM    5  N   UNL     1       6.696  29.353  55.719  1.00  0.00    -0.268 N 
HETATM    6  C   UNL     1       6.381  29.677  57.023  1.00  0.00     0.236 C 
HETATM    7  O   UNL     1       5.539  29.066  57.680  1.00  0.00    -0.272 OA
HETATM    8  H   UNL     1       7.549  29.689  55.268  1.00  0.00     0.190 HD
BRANCH   6   9
HETATM    9  C   UNL     1       7.202  30.825  57.570  1.00  0.00     0.114 C 
BRANCH   9  10
HETATM   10  C   UNL     1       8.498  30.346  58.209  1.00  0.00     0.112 C 
BRANCH  10  11
HETATM   11  C   UNL     1       8.994  31.320  59.256  1.00  0.00     0.218 C 
HETATM   12  N   UNL     1       8.737  30.939  60.548  1.00  0.00    -0.355 N 
HETATM   13  H   UNL     1       8.543  29.951  60.721  1.00  0.00     0.162 HD
HETATM   14  O   UNL     1       9.582  32.353  58.955  1.00  0.00    -0.274 OA
BRANCH  12  15
HETATM   15  C   UNL     1       9.223  31.720  61.660  1.00  0.00     0.187 C 
BRANCH  15  16
HETATM   16  C   UNL     1       8.072  32.105  62.508  1.00  0.00     0.070 A 
HETATM   17  O   UNL     1       6.839  31.683  62.101  1.00  0.00    -0.325 OA
HETATM   18  C   UNL     1       5.942  32.148  63.008  1.00  0.00     0.142 A 
HETATM   19  C   UNL     1       6.579  32.866  63.993  1.00  0.00     0.027 A 
HETATM   20  C   UNL     1       7.957  32.840  63.670  1.00  0.00     0.036 A 
ENDBRANCH  15  16
ENDBRANCH  12  15
ENDBRANCH  10  11
ENDBRANCH   9  10
ENDBRANCH   6   9
ENDBRANCH   2   5
BRANCH   1  21
HETATM   21  C   UNL     1       6.493  25.906  54.335  1.00  0.00     0.146 C 
BRANCH  21  22
HETATM   22  C   UNL     1       6.995  24.777  55.188  1.00  0.00    -0.015 A 
HETATM   23  C   UNL     1       7.433  23.451  54.829  1.00  0.00     0.000 A 
HETATM   24  C   UNL     1       7.578  22.744  53.614  1.00  0.00     0.021 A 
HETATM   25  C   UNL     1       7.777  22.786  56.010  1.00  0.00     0.049 A 
HETATM   26  C   UNL     1       8.036  21.417  53.609  1.00  0.00    -0.061 A 
HETATM   27  C   UNL     1       8.224  20.681  52.314  1.00  0.00     0.048 C 
HETATM   28  C   UNL     1       8.372  20.800  54.815  1.00  0.00     0.015 A 
HETATM   29  C   UNL     1       8.248  21.459  56.050  1.00  0.00    -0.034 A 
HETATM   30  C   UNL     1       8.637  20.734  57.306  1.00  0.00     0.050 C 
HETATM   31  N   UNL     1       7.569  23.672  57.041  1.00  0.00    -0.358 N 
HETATM   32  H   UNL     1       7.746  23.460  58.012  1.00  0.00     0.166 HD
HETATM   33  C   UNL     1       7.096  24.865  56.572  1.00  0.00     0.013 A 
HETATM   34  C   UNL     1       6.788  25.990  57.496  1.00  0.00     0.068 C 
ENDBRANCH  21  22
ENDBRANCH   1  21
TORSDOF 8
ENDMDL
MODEL 8
REMARK VINA RESULT:      -8.9      5.563      9.976
REMARK  8 active torsions:
REMARK  status: ('A' for Active; 'I' for Inactive)
REMARK    1  A    between atoms: C_10  and  C_11 
REMARK    2  A    between atoms: C_11  and  C_12 
REMARK       I    between atoms: C_12  and  N_13 
REMARK    3  A    between atoms: N_13  and  N_14 
REMARK       I    between atoms: N_14  and  C_15 
REMARK    4  A    between atoms: C_15  and  C_16 
REMARK    5  A    between atoms: C_16  and  C_17 
REMARK    6  A    between atoms: C_17  and  C_18 
REMARK       I    between atoms: C_18  and  N_19 
REMARK    7  A    between atoms: N_19  and  C_20 
REMARK    8  A    between atoms: C_20  and  C_21 
ROOT
HETATM    1  C   UNL     1       6.199  26.207  52.829  1.00  0.00     0.240 C 
HETATM    2  N   UNL     1       5.225  26.636  53.714  1.00  0.00    -0.267 N 
HETATM    3  O   UNL     1       5.951  26.003  51.640  1.00  0.00    -0.272 OA
HETATM    4  H   UNL     1       5.443  26.974  54.651  1.00  0.00     0.190 HD
ENDROOT
BRANCH   2   5
HETATM    5  N   UNL     1       3.999  27.052  53.171  1.00  0.00    -0.268 N 
HETATM    6  C   UNL     1       3.829  28.399  52.922  1.00  0.00     0.236 C 
HETATM    7  O   UNL     1       4.622  29.256  53.305  1.00  0.00    -0.272 OA
HETATM    8  H   UNL     1       3.487  26.336  52.652  1.00  0.00     0.190 HD
BRANCH   6   9
HETATM    9  C   UNL     1       2.595  28.704  52.099  1.00  0.00     0.114 C 
BRANCH   9  10
HETATM   10  C   UNL     1       2.930  29.485  50.837  1.00  0.00     0.112 C 
BRANCH  10  11
HETATM   11  C   UNL     1       2.952  28.589  49.618  1.00  0.00     0.218 C 
HETATM   12  N   UNL     1       1.748  27.998  49.330  1.00  0.00    -0.355 N 
HETATM   13  H   UNL     1       0.906  28.422  49.723  1.00  0.00     0.162 HD
HETATM   14  O   UNL     1       3.968  28.426  48.950  1.00  0.00    -0.274 OA
BRANCH  12  15
HETATM   15  C   UNL     1       1.588  27.184  48.150  1.00  0.00     0.187 C 
BRANCH  15  16
HETATM   16  C   UNL     1       0.777  27.934  47.163  1.00  0.00     0.070 A 
HETATM   17  O   UNL     1      -0.378  27.345  46.738  1.00  0.00    -0.325 OA
HETATM   18  C   UNL     1      -0.950  28.192  45.845  1.00  0.00     0.142 A 
HETATM   19  C   UNL     1      -0.179  29.319  45.687  1.00  0.00     0.027 A 
HETATM   20  C   UNL     1       0.940  29.154  46.538  1.00  0.00     0.036 A 
ENDBRANCH  15  16
ENDBRANCH  12  15
ENDBRANCH  10  11
ENDBRANCH   9  10
ENDBRANCH   6   9
ENDBRANCH   2   5
BRANCH   1  21
HETATM   21  C   UNL     1       7.572  26.054  53.437  1.00  0.00     0.146 C 
BRANCH  21  22
HETATM   22  C   UNL     1       7.725  25.025  54.520  1.00  0.00    -0.015 A 
HETATM   23  C   UNL     1       7.892  23.596  54.441  1.00  0.00     0.000 A 
HETATM   24  C   UNL     1       7.995  22.661  53.386  1.00  0.00     0.021 A 
HETATM   25  C   UNL     1       7.963  23.106  55.749  1.00  0.00     0.049 A 
HETATM   26  C   UNL     1       8.147  21.292  53.656  1.00  0.00    -0.061 A 
HETATM   27  C   UNL     1       8.293  20.306  52.534  1.00  0.00     0.048 C 
HETATM   28  C   UNL     1       8.218  20.854  54.980  1.00  0.00     0.015 A 
HETATM   29  C   UNL     1       8.122  21.742  56.065  1.00  0.00    -0.034 A 
HETATM   30  C   UNL     1       8.217  21.200  57.462  1.00  0.00     0.050 C 
HETATM   31  N   UNL     1       7.857  24.191  56.587  1.00  0.00    -0.358 N 
HETATM   32  H   UNL     1       7.886  24.132  57.594  1.00  0.00     0.166 HD
HETATM   33  C   UNL     1       7.707  25.347  55.873  1.00  0.00     0.013 A 
HETATM   34  C   UNL     1       7.567  26.662  56.554  1.00  0.00     0.068 C 
ENDBRANCH  21  22
ENDBRANCH   1  21
TORSDOF 8
ENDMDL
MODEL 9
REMARK VINA RESULT:      -8.9      5.216      9.456
REMARK  8 active torsions:
REMARK  status: ('A' for Active; 'I' for Inactive)
REMARK    1  A    between atoms: C_10  and  C_11 
REMARK    2  A    between atoms: C_11  and  C_12 
REMARK       I    between atoms: C_12  and  N_13 
REMARK    3  A    between atoms: N_13  and  N_14 
REMARK       I    between atoms: N_14  and  C_15 
REMARK    4  A    between atoms: C_15  and  C_16 
REMARK    5  A    between atoms: C_16  and  C_17 
REMARK    6  A    between atoms: C_17  and  C_18 
REMARK       I    between atoms: C_18  and  N_19 
REMARK    7  A    between atoms: N_19  and  C_20 
REMARK    8  A    between atoms: C_20  and  C_21 
ROOT
HETATM    1  C   UNL     1       6.237  26.185  52.569  1.00  0.00     0.240 C 
HETATM    2  N   UNL     1       5.316  26.986  53.222  1.00  0.00    -0.267 N 
HETATM    3  O   UNL     1       5.974  25.633  51.500  1.00  0.00    -0.272 OA
HETATM    4  H   UNL     1       5.567  27.585  54.009  1.00  0.00     0.190 HD
ENDROOT
BRANCH   2   5
HETATM    5  N   UNL     1       4.153  27.336  52.519  1.00  0.00    -0.268 N 
HETATM    6  C   UNL     1       3.565  28.550  52.810  1.00  0.00     0.236 C 
HETATM    7  O   UNL     1       3.910  29.251  53.760  1.00  0.00    -0.272 OA
HETATM    8  H   UNL     1       4.041  26.884  51.610  1.00  0.00     0.190 HD
BRANCH   6   9
HETATM    9  C   UNL     1       2.489  28.947  51.821  1.00  0.00     0.114 C 
BRANCH   9  10
HETATM   10  C   UNL     1       2.855  30.210  51.055  1.00  0.00     0.112 C 
BRANCH  10  11
HETATM   11  C   UNL     1       3.104  29.919  49.591  1.00  0.00     0.218 C 
HETATM   12  N   UNL     1       4.227  29.170  49.348  1.00  0.00    -0.355 N 
HETATM   13  H   UNL     1       4.607  28.621  50.121  1.00  0.00     0.162 HD
HETATM   14  O   UNL     1       2.348  30.318  48.712  1.00  0.00    -0.274 OA
BRANCH  12  15
HETATM   15  C   UNL     1       4.551  28.737  48.010  1.00  0.00     0.187 C 
BRANCH  15  16
HETATM   16  C   UNL     1       3.914  27.422  47.770  1.00  0.00     0.070 A 
HETATM   17  O   UNL     1       2.798  27.411  46.983  1.00  0.00    -0.325 OA
HETATM   18  C   UNL     1       2.381  26.121  46.904  1.00  0.00     0.142 A 
HETATM   19  C   UNL     1       3.212  25.300  47.630  1.00  0.00     0.027 A 
HETATM   20  C   UNL     1       4.204  26.140  48.192  1.00  0.00     0.036 A 
ENDBRANCH  15  16
ENDBRANCH  12  15
ENDBRANCH  10  11
ENDBRANCH   9  10
ENDBRANCH   6   9
ENDBRANCH   2   5
BRANCH   1  21
HETATM   21  C   UNL     1       7.578  26.087  53.257  1.00  0.00     0.146 C 
BRANCH  21  22
HETATM   22  C   UNL     1       7.700  25.083  54.367  1.00  0.00    -0.015 A 
HETATM   23  C   UNL     1       7.872  23.653  54.325  1.00  0.00     0.000 A 
HETATM   24  C   UNL     1       8.008  22.695  53.296  1.00  0.00     0.021 A 
HETATM   25  C   UNL     1       7.904  23.193  55.646  1.00  0.00     0.049 A 
HETATM   26  C   UNL     1       8.154  21.332  53.601  1.00  0.00    -0.061 A 
HETATM   27  C   UNL     1       8.335  20.321  52.506  1.00  0.00     0.048 C 
HETATM   28  C   UNL     1       8.186  20.925  54.936  1.00  0.00     0.015 A 
HETATM   29  C   UNL     1       8.056  21.837  55.997  1.00  0.00    -0.034 A 
HETATM   30  C   UNL     1       8.110  21.327  57.408  1.00  0.00     0.050 C 
HETATM   31  N   UNL     1       7.771  24.296  56.455  1.00  0.00    -0.358 N 
HETATM   32  H   UNL     1       7.771  24.260  57.463  1.00  0.00     0.166 HD
HETATM   33  C   UNL     1       7.641  25.436  55.711  1.00  0.00     0.013 A 
HETATM   34  C   UNL     1       7.479  26.765  56.358  1.00  0.00     0.068 C 
ENDBRANCH  21  22
ENDBRANCH   1  21
TORSDOF 8
ENDMDL
MODEL 10
REMARK VINA RESULT:      -8.9      2.360     11.158
REMARK  8 active torsions:
REMARK  status: ('A' for Active; 'I' for Inactive)
REMARK    1  A    between atoms: C_10  and  C_11 
REMARK    2  A    between atoms: C_11  and  C_12 
REMARK       I    between atoms: C_12  and  N_13 
REMARK    3  A    between atoms: N_13  and  N_14 
REMARK       I    between atoms: N_14  and  C_15 
REMARK    4  A    between atoms: C_15  and  C_16 
REMARK    5  A    between atoms: C_16  and  C_17 
REMARK    6  A    between atoms: C_17  and  C_18 
REMARK       I    between atoms: C_18  and  N_19 
REMARK    7  A    between atoms: N_19  and  C_20 
REMARK    8  A    between atoms: C_20  and  C_21 
ROOT
HETATM    1  C   UNL     1       6.944  31.285  58.905  1.00  0.00     0.240 C 
HETATM    2  N   UNL     1       7.197  29.984  58.508  1.00  0.00    -0.267 N 
HETATM    3  O   UNL     1       5.855  31.825  58.704  1.00  0.00    -0.272 OA
HETATM    4  H   UNL     1       8.019  29.464  58.814  1.00  0.00     0.190 HD
ENDROOT
BRANCH   2   5
HETATM    5  N   UNL     1       6.103  29.219  58.072  1.00  0.00    -0.268 N 
HETATM    6  C   UNL     1       6.055  28.865  56.739  1.00  0.00     0.236 C 
HETATM    7  O   UNL     1       6.824  29.324  55.896  1.00  0.00    -0.272 OA
HETATM    8  H   UNL     1       5.643  28.665  58.796  1.00  0.00     0.190 HD
BRANCH   6   9
HETATM    9  C   UNL     1       4.994  27.830  56.432  1.00  0.00     0.114 C 
BRANCH   9  10
HETATM   10  C   UNL     1       5.489  26.778  55.449  1.00  0.00     0.112 C 
BRANCH  10  11
HETATM   11  C   UNL     1       5.941  25.522  56.161  1.00  0.00     0.218 C 
HETATM   12  N   UNL     1       6.687  24.671  55.386  1.00  0.00    -0.355 N 
HETATM   13  H   UNL     1       7.133  25.058  54.552  1.00  0.00     0.162 HD
HETATM   14  O   UNL     1       5.664  25.306  57.336  1.00  0.00    -0.274 OA
BRANCH  12  15
HETATM   15  C   UNL     1       7.263  23.473  55.947  1.00  0.00     0.187 C 
BRANCH  15  16
HETATM   16  C   UNL     1       7.557  22.528  54.845  1.00  0.00     0.070 A 
HETATM   17  O   UNL     1       7.862  21.245  55.198  1.00  0.00    -0.325 OA
HETATM   18  C   UNL     1       8.100  20.563  54.049  1.00  0.00     0.142 A 
HETATM   19  C   UNL     1       7.955  21.390  52.959  1.00  0.00     0.027 A 
HETATM   20  C   UNL     1       7.605  22.661  53.472  1.00  0.00     0.036 A 
ENDBRANCH  15  16
ENDBRANCH  12  15
ENDBRANCH  10  11
ENDBRANCH   9  10
ENDBRANCH   6   9
ENDBRANCH   2   5
BRANCH   1  21
HETATM   21  C   UNL     1       8.090  31.952  59.628  1.00  0.00     0.146 C 
BRANCH  21  22
HETATM   22  C   UNL     1       7.907  32.214  61.095  1.00  0.00    -0.015 A 
HETATM   23  C   UNL     1       7.117  33.205  61.781  1.00  0.00     0.000 A 
HETATM   24  C   UNL     1       6.242  34.238  61.375  1.00  0.00     0.021 A 
HETATM   25  C   UNL     1       7.319  33.030  63.154  1.00  0.00     0.049 A 
HETATM   26  C   UNL     1       5.617  35.060  62.326  1.00  0.00    -0.061 A 
HETATM   27  C   UNL     1       4.660  36.133  61.893  1.00  0.00     0.048 C 
HETATM   28  C   UNL     1       5.847  34.841  63.685  1.00  0.00     0.015 A 
HETATM   29  C   UNL     1       6.707  33.827  64.141  1.00  0.00    -0.034 A 
HETATM   30  C   UNL     1       6.899  33.644  65.619  1.00  0.00     0.050 C 
HETATM   31  N   UNL     1       8.183  31.971  63.297  1.00  0.00    -0.358 N 
HETATM   32  H   UNL     1       8.499  31.616  64.188  1.00  0.00     0.166 HD
HETATM   33  C   UNL     1       8.553  31.472  62.079  1.00  0.00     0.013 A 
HETATM   34  C   UNL     1       9.489  30.322  61.968  1.00  0.00     0.068 C 
ENDBRANCH  21  22
ENDBRANCH   1  21
TORSDOF 8
ENDMDL
