MODEL 1
REMARK VINA RESULT:      -9.2      0.000      0.000
REMARK  5 active torsions:
REMARK  status: ('A' for Active; 'I' for Inactive)
REMARK    1  A    between atoms: C_5  and  C_6 
REMARK    2  A    between atoms: C_6  and  O_7 
REMARK    3  A    between atoms: O_7  and  C_8 
REMARK    4  A    between atoms: C_12  and  C_13 
REMARK    5  A    between atoms: C_30  and  O_31 
ROOT
HETATM    1  C   UNL     1       6.493  27.709  55.130  1.00  0.00     0.130 A 
HETATM    2  C   UNL     1       6.761  28.791  55.976  1.00  0.00     0.048 A 
HETATM    3 BR   UNL     1       8.379  28.932  56.964  1.00  0.00    -0.048 Br
HETATM    4  C   UNL     1       5.803  29.789  56.166  1.00  0.00     0.033 A 
HETATM    5  C   UNL     1       4.538  29.709  55.559  1.00  0.00    -0.012 A 
HETATM    6  C   UNL     1       4.297  28.618  54.700  1.00  0.00     0.050 A 
HETATM    7  C   UNL     1       5.248  27.606  54.504  1.00  0.00     0.104 A 
ENDROOT
BRANCH   5   8
HETATM    8  C   UNL     1       3.407  30.695  55.851  1.00  0.00     0.219 C 
HETATM    9  N   UNL     1       3.917  31.866  56.529  1.00  0.00    -0.332 N 
HETATM   10  C   UNL     1       4.560  32.873  55.857  1.00  0.00     0.256 C 
HETATM   11  H   UNL     1       4.179  31.779  57.500  1.00  0.00     0.165 HD
HETATM   12  O   UNL     1       5.313  33.660  56.421  1.00  0.00    -0.267 OA
HETATM   13  C   UNL     1       4.267  32.947  54.435  1.00  0.00     0.073 A 
HETATM   14  C   UNL     1       3.303  32.111  53.918  1.00  0.00     0.088 A 
HETATM   15  C   UNL     1       4.866  33.754  53.420  1.00  0.00    -0.023 A 
HETATM   16  S   UNL     1       3.034  32.365  52.260  1.00  0.00    -0.074 SA
HETATM   17  N   UNL     1       2.700  31.152  54.661  1.00  0.00    -0.358 N 
HETATM   18  C   UNL     1       4.293  33.511  52.184  1.00  0.00     0.018 A 
HETATM   19  C   UNL     1       4.734  34.118  50.899  1.00  0.00     0.281 C 
HETATM   20  N   UNL     1       5.673  35.299  51.125  1.00  0.00    -0.070 N 
HETATM   21  C   UNL     1       6.679  35.021  52.241  1.00  0.00     0.239 C 
HETATM   22  H   UNL     1       6.219  35.394  50.259  1.00  0.00     0.279 HD
HETATM   23  C   UNL     1       4.936  36.594  51.299  1.00  0.00     0.270 C 
HETATM   24  C   UNL     1       5.990  34.732  53.586  1.00  0.00     0.068 C 
HETATM   25  H   UNL     1       2.148  30.434  54.200  1.00  0.00     0.162 HD
ENDBRANCH   5   8
BRANCH   7  26
HETATM   26  O   UNL     1       4.837  26.606  53.668  1.00  0.00    -0.353 OA
HETATM   27  C   UNL     1       5.062  26.828  52.280  1.00  0.00     0.210 C 
ENDBRANCH   7  26
BRANCH   1  28
HETATM   28  O   UNL     1       7.454  26.708  54.970  1.00  0.00    -0.271 OA
BRANCH  28  29
HETATM   29  C   UNL     1       7.225  25.610  55.779  1.00  0.00     0.298 C 
HETATM   30  O   UNL     1       6.766  25.610  56.910  1.00  0.00    -0.259 OA
BRANCH  29  31
HETATM   31  C   UNL     1       7.513  24.376  54.999  1.00  0.00     0.040 A 
HETATM   32  C   UNL     1       7.647  23.172  55.700  1.00  0.00     0.018 A 
HETATM   33  C   UNL     1       7.847  21.974  55.009  1.00  0.00     0.007 A 
HETATM   34  C   UNL     1       7.913  21.965  53.611  1.00  0.00    -0.062 A 
HETATM   35  C   UNL     1       8.141  20.683  52.866  1.00  0.00     0.048 C 
HETATM   36  C   UNL     1       7.814  23.176  52.914  1.00  0.00     0.007 A 
HETATM   37  C   UNL     1       7.611  24.375  53.601  1.00  0.00     0.018 A 
ENDBRANCH  29  31
ENDBRANCH  28  29
ENDBRANCH   1  28
TORSDOF 5
ENDMDL
MODEL 2
REMARK VINA RESULT:      -8.8      2.023      2.584
REMARK  5 active torsions:
REMARK  status: ('A' for Active; 'I' for Inactive)
REMARK    1  A    between atoms: C_5  and  C_6 
REMARK    2  A    between atoms: C_6  and  O_7 
REMARK    3  A    between atoms: O_7  and  C_8 
REMARK    4  A    between atoms: C_12  and  C_13 
REMARK    5  A    between atoms: C_30  and  O_31 
ROOT
HETATM    1  C   UNL     1       6.541  27.329  54.228  1.00  0.00     0.130 A 
HETATM    2  C   UNL     1       6.549  28.550  54.913  1.00  0.00     0.048 A 
HETATM    3 BR   UNL     1       7.873  28.979  56.208  1.00  0.00    -0.048 Br
HETATM    4  C   UNL     1       5.530  29.481  54.702  1.00  0.00     0.033 A 
HETATM    5  C   UNL     1       4.454  29.202  53.843  1.00  0.00    -0.012 A 
HETATM    6  C   UNL     1       4.476  27.973  53.154  1.00  0.00     0.050 A 
HETATM    7  C   UNL     1       5.489  27.025  53.360  1.00  0.00     0.104 A 
ENDROOT
BRANCH   5   8
HETATM    8  C   UNL     1       3.244  30.123  53.691  1.00  0.00     0.219 C 
HETATM    9  N   UNL     1       3.633  31.504  53.872  1.00  0.00    -0.332 N 
HETATM   10  C   UNL     1       4.247  32.223  52.878  1.00  0.00     0.256 C 
HETATM   11  H   UNL     1       3.840  31.824  54.806  1.00  0.00     0.165 HD
HETATM   12  O   UNL     1       4.910  33.227  53.111  1.00  0.00    -0.267 OA
HETATM   13  C   UNL     1       4.036  31.713  51.533  1.00  0.00     0.073 A 
HETATM   14  C   UNL     1       3.163  30.663  51.357  1.00  0.00     0.088 A 
HETATM   15  C   UNL     1       4.641  32.111  50.301  1.00  0.00    -0.023 A 
HETATM   16  S   UNL     1       2.979  30.229  49.724  1.00  0.00    -0.074 SA
HETATM   17  N   UNL     1       2.582  30.020  52.397  1.00  0.00    -0.358 N 
HETATM   18  C   UNL     1       4.161  31.359  49.243  1.00  0.00     0.018 A 
HETATM   19  C   UNL     1       4.638  31.454  47.836  1.00  0.00     0.281 C 
HETATM   20  N   UNL     1       5.481  32.706  47.609  1.00  0.00    -0.070 N 
HETATM   21  C   UNL     1       6.433  32.970  48.775  1.00  0.00     0.239 C 
HETATM   22  H   UNL     1       6.070  32.504  46.792  1.00  0.00     0.279 HD
HETATM   23  C   UNL     1       4.649  33.899  47.240  1.00  0.00     0.270 C 
HETATM   24  C   UNL     1       5.684  33.168  50.104  1.00  0.00     0.068 C 
HETATM   25  H   UNL     1       2.107  29.135  52.238  1.00  0.00     0.162 HD
ENDBRANCH   5   8
BRANCH   7  26
HETATM   26  O   UNL     1       5.336  25.875  52.637  1.00  0.00    -0.353 OA
HETATM   27  C   UNL     1       5.413  26.018  51.223  1.00  0.00     0.210 C 
ENDBRANCH   7  26
BRANCH   1  28
HETATM   28  O   UNL     1       7.555  26.400  54.470  1.00  0.00    -0.271 OA
BRANCH  28  29
HETATM   29  C   UNL     1       7.182  25.422  55.375  1.00  0.00     0.298 C 
HETATM   30  O   UNL     1       6.633  25.586  56.452  1.00  0.00    -0.259 OA
BRANCH  29  31
HETATM   31  C   UNL     1       7.447  24.089  54.771  1.00  0.00     0.040 A 
HETATM   32  C   UNL     1       7.858  24.042  53.433  1.00  0.00     0.018 A 
HETATM   33  C   UNL     1       8.187  22.821  52.841  1.00  0.00     0.007 A 
HETATM   34  C   UNL     1       8.111  21.632  53.577  1.00  0.00    -0.062 A 
HETATM   35  C   UNL     1       8.452  20.317  52.941  1.00  0.00     0.048 C 
HETATM   36  C   UNL     1       7.666  21.678  54.904  1.00  0.00     0.007 A 
HETATM   37  C   UNL     1       7.338  22.898  55.501  1.00  0.00     0.018 A 
ENDBRANCH  29  31
ENDBRANCH  28  29
ENDBRANCH   1  28
TORSDOF 5
ENDMDL
MODEL 3
REMARK VINA RESULT:      -8.8      3.452      4.275
REMARK  5 active torsions:
REMARK  status: ('A' for Active; 'I' for Inactive)
REMARK    1  A    between atoms: C_5  and  C_6 
REMARK    2  A    between atoms: C_6  and  O_7 
REMARK    3  A    between atoms: O_7  and  C_8 
REMARK    4  A    between atoms: C_12  and  C_13 
REMARK    5  A    between atoms: C_30  and  O_31 
ROOT
HETATM    1  C   UNL     1       4.882  27.202  53.938  1.00  0.00     0.130 A 
HETATM    2  C   UNL     1       4.784  27.623  52.606  1.00  0.00     0.048 A 
HETATM    3 BR   UNL     1       5.346  26.535  51.153  1.00  0.00    -0.048 Br
HETATM    4  C   UNL     1       4.316  28.904  52.307  1.00  0.00     0.033 A 
HETATM    5  C   UNL     1       3.981  29.814  53.324  1.00  0.00    -0.012 A 
HETATM    6  C   UNL     1       4.074  29.362  54.655  1.00  0.00     0.050 A 
HETATM    7  C   UNL     1       4.548  28.081  54.972  1.00  0.00     0.104 A 
ENDROOT
BRANCH   5   8
HETATM    8  C   UNL     1       3.605  31.270  53.053  1.00  0.00     0.219 C 
HETATM    9  N   UNL     1       4.654  31.935  52.311  1.00  0.00    -0.332 N 
HETATM   10  C   UNL     1       4.805  31.770  50.958  1.00  0.00     0.256 C 
HETATM   11  H   UNL     1       5.504  32.177  52.799  1.00  0.00     0.165 HD
HETATM   12  O   UNL     1       5.865  31.997  50.386  1.00  0.00    -0.267 OA
HETATM   13  C   UNL     1       3.611  31.325  50.258  1.00  0.00     0.073 A 
HETATM   14  C   UNL     1       2.432  31.231  50.962  1.00  0.00     0.088 A 
HETATM   15  C   UNL     1       3.451  30.909  48.900  1.00  0.00    -0.023 A 
HETATM   16  S   UNL     1       1.121  30.761  49.988  1.00  0.00    -0.074 SA
HETATM   17  N   UNL     1       2.368  31.431  52.300  1.00  0.00    -0.358 N 
HETATM   18  C   UNL     1       2.140  30.555  48.638  1.00  0.00     0.018 A 
HETATM   19  C   UNL     1       1.643  29.998  47.349  1.00  0.00     0.281 C 
HETATM   20  N   UNL     1       2.665  30.168  46.229  1.00  0.00    -0.070 N 
HETATM   21  C   UNL     1       4.086  29.878  46.707  1.00  0.00     0.239 C 
HETATM   22  H   UNL     1       2.439  29.448  45.531  1.00  0.00     0.279 HD
HETATM   23  C   UNL     1       2.532  31.487  45.526  1.00  0.00     0.270 C 
HETATM   24  C   UNL     1       4.518  30.811  47.851  1.00  0.00     0.068 C 
HETATM   25  H   UNL     1       1.530  31.161  52.808  1.00  0.00     0.162 HD
ENDBRANCH   5   8
BRANCH   7  26
HETATM   26  O   UNL     1       4.606  27.820  56.312  1.00  0.00    -0.353 OA
HETATM   27  C   UNL     1       5.543  28.593  57.054  1.00  0.00     0.210 C 
ENDBRANCH   7  26
BRANCH   1  28
HETATM   28  O   UNL     1       5.376  25.927  54.219  1.00  0.00    -0.271 OA
BRANCH  28  29
HETATM   29  C   UNL     1       6.752  25.900  54.348  1.00  0.00     0.298 C 
HETATM   30  O   UNL     1       7.483  26.831  54.647  1.00  0.00    -0.259 OA
BRANCH  29  31
HETATM   31  C   UNL     1       7.219  24.497  54.183  1.00  0.00     0.040 A 
HETATM   32  C   UNL     1       7.218  23.667  55.310  1.00  0.00     0.018 A 
HETATM   33  C   UNL     1       7.579  22.322  55.194  1.00  0.00     0.007 A 
HETATM   34  C   UNL     1       7.943  21.791  53.951  1.00  0.00    -0.062 A 
HETATM   35  C   UNL     1       8.344  20.351  53.824  1.00  0.00     0.048 C 
HETATM   36  C   UNL     1       7.977  22.632  52.832  1.00  0.00     0.007 A 
HETATM   37  C   UNL     1       7.614  23.976  52.943  1.00  0.00     0.018 A 
ENDBRANCH  29  31
ENDBRANCH  28  29
ENDBRANCH   1  28
TORSDOF 5
ENDMDL
MODEL 4
REMARK VINA RESULT:      -8.8      1.272      1.990
REMARK  5 active torsions:
REMARK  status: ('A' for Active; 'I' for Inactive)
REMARK    1  A    between atoms: C_5  and  C_6 
REMARK    2  A    between atoms: C_6  and  O_7 
REMARK    3  A    between atoms: O_7  and  C_8 
REMARK    4  A    between atoms: C_12  and  C_13 
REMARK    5  A    between atoms: C_30  and  O_31 
ROOT
HETATM    1  C   UNL     1       6.301  28.133  55.140  1.00  0.00     0.130 A 
HETATM    2  C   UNL     1       5.040  27.966  54.557  1.00  0.00     0.048 A 
HETATM    3 BR   UNL     1       4.681  26.599  53.285  1.00  0.00    -0.048 Br
HETATM    4  C   UNL     1       4.004  28.853  54.856  1.00  0.00     0.033 A 
HETATM    5  C   UNL     1       4.211  29.956  55.702  1.00  0.00    -0.012 A 
HETATM    6  C   UNL     1       5.485  30.094  56.288  1.00  0.00     0.050 A 
HETATM    7  C   UNL     1       6.536  29.214  55.993  1.00  0.00     0.104 A 
ENDROOT
BRANCH   5   8
HETATM    8  C   UNL     1       3.156  31.035  55.943  1.00  0.00     0.219 C 
HETATM    9  N   UNL     1       3.758  32.208  56.539  1.00  0.00    -0.332 N 
HETATM   10  C   UNL     1       4.459  33.123  55.797  1.00  0.00     0.256 C 
HETATM   11  H   UNL     1       4.028  32.164  57.510  1.00  0.00     0.165 HD
HETATM   12  O   UNL     1       5.273  33.888  56.301  1.00  0.00    -0.267 OA
HETATM   13  C   UNL     1       4.148  33.128  54.377  1.00  0.00     0.073 A 
HETATM   14  C   UNL     1       3.120  32.331  53.926  1.00  0.00     0.088 A 
HETATM   15  C   UNL     1       4.786  33.825  53.305  1.00  0.00    -0.023 A 
HETATM   16  S   UNL     1       2.844  32.499  52.257  1.00  0.00    -0.074 SA
HETATM   17  N   UNL     1       2.464  31.465  54.735  1.00  0.00    -0.358 N 
HETATM   18  C   UNL     1       4.178  33.546  52.094  1.00  0.00     0.018 A 
HETATM   19  C   UNL     1       4.640  34.038  50.768  1.00  0.00     0.281 C 
HETATM   20  N   UNL     1       5.663  35.162  50.908  1.00  0.00    -0.070 N 
HETATM   21  C   UNL     1       6.664  34.884  52.028  1.00  0.00     0.239 C 
HETATM   22  H   UNL     1       6.199  35.164  50.031  1.00  0.00     0.279 HD
HETATM   23  C   UNL     1       5.020  36.514  51.007  1.00  0.00     0.270 C 
HETATM   24  C   UNL     1       5.978  34.730  53.396  1.00  0.00     0.068 C 
HETATM   25  H   UNL     1       1.856  30.761  54.327  1.00  0.00     0.162 HD
ENDBRANCH   5   8
BRANCH   7  26
HETATM   26  O   UNL     1       7.712  29.515  56.621  1.00  0.00    -0.353 OA
HETATM   27  C   UNL     1       7.681  29.482  58.044  1.00  0.00     0.210 C 
ENDBRANCH   7  26
BRANCH   1  28
HETATM   28  O   UNL     1       7.331  27.249  54.811  1.00  0.00    -0.271 OA
BRANCH  28  29
HETATM   29  C   UNL     1       7.452  26.206  55.711  1.00  0.00     0.298 C 
HETATM   30  O   UNL     1       7.328  26.261  56.924  1.00  0.00    -0.259 OA
BRANCH  29  31
HETATM   31  C   UNL     1       7.639  24.940  54.952  1.00  0.00     0.040 A 
HETATM   32  C   UNL     1       7.522  23.732  55.649  1.00  0.00     0.018 A 
HETATM   33  C   UNL     1       7.619  22.516  54.968  1.00  0.00     0.007 A 
HETATM   34  C   UNL     1       7.831  22.492  53.585  1.00  0.00    -0.062 A 
HETATM   35  C   UNL     1       7.948  21.188  52.852  1.00  0.00     0.048 C 
HETATM   36  C   UNL     1       7.982  23.701  52.896  1.00  0.00     0.007 A 
HETATM   37  C   UNL     1       7.883  24.920  53.572  1.00  0.00     0.018 A 
ENDBRANCH  29  31
ENDBRANCH  28  29
ENDBRANCH   1  28
TORSDOF 5
ENDMDL
MODEL 5
REMARK VINA RESULT:      -8.7      3.273      4.078
REMARK  5 active torsions:
REMARK  status: ('A' for Active; 'I' for Inactive)
REMARK    1  A    between atoms: C_5  and  C_6 
REMARK    2  A    between atoms: C_6  and  O_7 
REMARK    3  A    between atoms: O_7  and  C_8 
REMARK    4  A    between atoms: C_12  and  C_13 
REMARK    5  A    between atoms: C_30  and  O_31 
ROOT
HETATM    1  C   UNL     1       5.183  26.956  53.679  1.00  0.00     0.130 A 
HETATM    2  C   UNL     1       5.116  27.823  54.776  1.00  0.00     0.048 A 
HETATM    3 BR   UNL     1       5.519  27.257  56.545  1.00  0.00    -0.048 Br
HETATM    4  C   UNL     1       4.687  29.141  54.605  1.00  0.00     0.033 A 
HETATM    5  C   UNL     1       4.267  29.613  53.350  1.00  0.00    -0.012 A 
HETATM    6  C   UNL     1       4.357  28.726  52.259  1.00  0.00     0.050 A 
HETATM    7  C   UNL     1       4.781  27.398  52.417  1.00  0.00     0.104 A 
ENDROOT
BRANCH   5   8
HETATM    8  C   UNL     1       3.651  30.996  53.139  1.00  0.00     0.219 C 
HETATM    9  N   UNL     1       4.583  31.867  52.457  1.00  0.00    -0.332 N 
HETATM   10  C   UNL     1       4.783  31.800  51.102  1.00  0.00     0.256 C 
HETATM   11  H   UNL     1       5.370  32.225  52.976  1.00  0.00     0.165 HD
HETATM   12  O   UNL     1       5.798  32.233  50.568  1.00  0.00    -0.267 OA
HETATM   13  C   UNL     1       3.695  31.195  50.351  1.00  0.00     0.073 A 
HETATM   14  C   UNL     1       2.538  30.865  51.020  1.00  0.00     0.088 A 
HETATM   15  C   UNL     1       3.631  30.827  48.972  1.00  0.00    -0.023 A 
HETATM   16  S   UNL     1       1.344  30.229  49.991  1.00  0.00    -0.074 SA
HETATM   17  N   UNL     1       2.418  30.982  52.364  1.00  0.00    -0.358 N 
HETATM   18  C   UNL     1       2.404  30.269  48.659  1.00  0.00     0.018 A 
HETATM   19  C   UNL     1       2.032  29.702  47.334  1.00  0.00     0.281 C 
HETATM   20  N   UNL     1       3.028  30.101  46.249  1.00  0.00    -0.070 N 
HETATM   21  C   UNL     1       4.470  30.034  46.748  1.00  0.00     0.239 C 
HETATM   22  H   UNL     1       2.942  29.390  45.512  1.00  0.00     0.279 HD
HETATM   23  C   UNL     1       2.683  31.413  45.606  1.00  0.00     0.270 C 
HETATM   24  C   UNL     1       4.716  30.966  47.946  1.00  0.00     0.068 C 
HETATM   25  H   UNL     1       1.630  30.547  52.837  1.00  0.00     0.162 HD
ENDBRANCH   5   8
BRANCH   7  26
HETATM   26  O   UNL     1       4.775  26.667  51.262  1.00  0.00    -0.353 OA
HETATM   27  C   UNL     1       4.637  27.413  50.057  1.00  0.00     0.210 C 
ENDBRANCH   7  26
BRANCH   1  28
HETATM   28  O   UNL     1       5.592  25.635  53.874  1.00  0.00    -0.271 OA
BRANCH  28  29
HETATM   29  C   UNL     1       6.934  25.443  53.602  1.00  0.00     0.298 C 
HETATM   30  O   UNL     1       7.741  26.286  53.242  1.00  0.00    -0.259 OA
BRANCH  29  31
HETATM   31  C   UNL     1       7.294  24.040  53.941  1.00  0.00     0.040 A 
HETATM   32  C   UNL     1       7.777  23.219  52.915  1.00  0.00     0.018 A 
HETATM   33  C   UNL     1       8.195  21.916  53.195  1.00  0.00     0.007 A 
HETATM   34  C   UNL     1       8.138  21.418  54.502  1.00  0.00    -0.062 A 
HETATM   35  C   UNL     1       8.574  20.015  54.805  1.00  0.00     0.048 C 
HETATM   36  C   UNL     1       7.621  22.230  55.520  1.00  0.00     0.007 A 
HETATM   37  C   UNL     1       7.204  23.534  55.244  1.00  0.00     0.018 A 
ENDBRANCH  29  31
ENDBRANCH  28  29
ENDBRANCH   1  28
TORSDOF 5
ENDMDL
MODEL 6
REMARK VINA RESULT:      -8.5      3.152      4.160
REMARK  5 active torsions:
REMARK  status: ('A' for Active; 'I' for Inactive)
REMARK    1  A    between atoms: C_5  and  C_6 
REMARK    2  A    between atoms: C_6  and  O_7 
REMARK    3  A    between atoms: O_7  and  C_8 
REMARK    4  A    between atoms: C_12  and  C_13 
REMARK    5  A    between atoms: C_30  and  O_31 
ROOT
HETATM    1  C   UNL     1       5.646  27.193  51.599  1.00  0.00     0.130 A 
HETATM    2  C   UNL     1       5.530  28.132  52.631  1.00  0.00     0.048 A 
HETATM    3 BR   UNL     1       6.391  27.907  54.311  1.00  0.00    -0.048 Br
HETATM    4  C   UNL     1       4.715  29.255  52.472  1.00  0.00     0.033 A 
HETATM    5  C   UNL     1       3.958  29.445  51.303  1.00  0.00    -0.012 A 
HETATM    6  C   UNL     1       4.102  28.494  50.274  1.00  0.00     0.050 A 
HETATM    7  C   UNL     1       4.912  27.359  50.422  1.00  0.00     0.104 A 
ENDROOT
BRANCH   5   8
HETATM    8  C   UNL     1       2.942  30.576  51.140  1.00  0.00     0.219 C 
HETATM    9  N   UNL     1       3.455  31.803  51.707  1.00  0.00    -0.332 N 
HETATM   10  C   UNL     1       4.365  32.587  51.044  1.00  0.00     0.256 C 
HETATM   11  H   UNL     1       3.486  31.889  52.712  1.00  0.00     0.165 HD
HETATM   12  O   UNL     1       5.082  33.393  51.627  1.00  0.00    -0.267 OA
HETATM   13  C   UNL     1       4.399  32.400  49.602  1.00  0.00     0.073 A 
HETATM   14  C   UNL     1       3.461  31.576  49.023  1.00  0.00     0.088 A 
HETATM   15  C   UNL     1       5.312  32.923  48.636  1.00  0.00    -0.023 A 
HETATM   16  S   UNL     1       3.595  31.515  47.330  1.00  0.00    -0.074 SA
HETATM   17  N   UNL     1       2.581  30.850  49.755  1.00  0.00    -0.358 N 
HETATM   18  C   UNL     1       4.990  32.493  47.361  1.00  0.00     0.018 A 
HETATM   19  C   UNL     1       5.781  32.782  46.133  1.00  0.00     0.281 C 
HETATM   20  N   UNL     1       6.807  33.886  46.369  1.00  0.00    -0.070 N 
HETATM   21  C   UNL     1       7.498  33.741  47.724  1.00  0.00     0.239 C 
HETATM   22  H   UNL     1       7.535  33.751  45.655  1.00  0.00     0.279 HD
HETATM   23  C   UNL     1       6.241  35.256  46.134  1.00  0.00     0.270 C 
HETATM   24  C   UNL     1       6.501  33.799  48.894  1.00  0.00     0.068 C 
HETATM   25  H   UNL     1       2.045  30.112  49.307  1.00  0.00     0.162 HD
ENDBRANCH   5   8
BRANCH   7  26
HETATM   26  O   UNL     1       4.910  26.524  49.340  1.00  0.00    -0.353 OA
HETATM   27  C   UNL     1       3.642  26.302  48.731  1.00  0.00     0.210 C 
ENDBRANCH   7  26
BRANCH   1  28
HETATM   28  O   UNL     1       6.447  26.065  51.786  1.00  0.00    -0.271 OA
BRANCH  28  29
HETATM   29  C   UNL     1       5.748  24.991  52.307  1.00  0.00     0.298 C 
HETATM   30  O   UNL     1       4.593  24.678  52.068  1.00  0.00    -0.259 OA
BRANCH  29  31
HETATM   31  C   UNL     1       6.677  24.174  53.134  1.00  0.00     0.040 A 
HETATM   32  C   UNL     1       6.490  24.170  54.522  1.00  0.00     0.018 A 
HETATM   33  C   UNL     1       7.290  23.364  55.336  1.00  0.00     0.007 A 
HETATM   34  C   UNL     1       8.283  22.553  54.774  1.00  0.00    -0.062 A 
HETATM   35  C   UNL     1       9.152  21.696  55.647  1.00  0.00     0.048 C 
HETATM   36  C   UNL     1       8.490  22.585  53.390  1.00  0.00     0.007 A 
HETATM   37  C   UNL     1       7.691  23.388  52.572  1.00  0.00     0.018 A 
ENDBRANCH  29  31
ENDBRANCH  28  29
ENDBRANCH   1  28
TORSDOF 5
ENDMDL
MODEL 7
REMARK VINA RESULT:      -8.4      2.136      2.863
REMARK  5 active torsions:
REMARK  status: ('A' for Active; 'I' for Inactive)
REMARK    1  A    between atoms: C_5  and  C_6 
REMARK    2  A    between atoms: C_6  and  O_7 
REMARK    3  A    between atoms: O_7  and  C_8 
REMARK    4  A    between atoms: C_12  and  C_13 
REMARK    5  A    between atoms: C_30  and  O_31 
ROOT
HETATM    1  C   UNL     1       5.886  28.047  54.401  1.00  0.00     0.130 A 
HETATM    2  C   UNL     1       4.943  28.119  53.369  1.00  0.00     0.048 A 
HETATM    3 BR   UNL     1       4.908  26.872  51.935  1.00  0.00    -0.048 Br
HETATM    4  C   UNL     1       4.019  29.167  53.332  1.00  0.00     0.033 A 
HETATM    5  C   UNL     1       4.043  30.192  54.292  1.00  0.00    -0.012 A 
HETATM    6  C   UNL     1       4.991  30.090  55.329  1.00  0.00     0.050 A 
HETATM    7  C   UNL     1       5.929  29.047  55.376  1.00  0.00     0.104 A 
ENDROOT
BRANCH   5   8
HETATM    8  C   UNL     1       3.154  31.433  54.213  1.00  0.00     0.219 C 
HETATM    9  N   UNL     1       3.957  32.635  54.246  1.00  0.00    -0.332 N 
HETATM   10  C   UNL     1       4.621  33.097  53.139  1.00  0.00     0.256 C 
HETATM   11  H   UNL     1       4.371  32.909  55.125  1.00  0.00     0.165 HD
HETATM   12  O   UNL     1       5.578  33.859  53.221  1.00  0.00    -0.267 OA
HETATM   13  C   UNL     1       4.093  32.630  51.868  1.00  0.00     0.073 A 
HETATM   14  C   UNL     1       2.932  31.890  51.870  1.00  0.00     0.088 A 
HETATM   15  C   UNL     1       4.623  32.780  50.549  1.00  0.00    -0.023 A 
HETATM   16  S   UNL     1       2.415  31.476  50.305  1.00  0.00    -0.074 SA
HETATM   17  N   UNL     1       2.327  31.492  53.014  1.00  0.00    -0.358 N 
HETATM   18  C   UNL     1       3.806  32.174  49.611  1.00  0.00     0.018 A 
HETATM   19  C   UNL     1       4.101  32.070  48.155  1.00  0.00     0.281 C 
HETATM   20  N   UNL     1       5.242  32.996  47.743  1.00  0.00    -0.070 N 
HETATM   21  C   UNL     1       6.373  32.998  48.770  1.00  0.00     0.239 C 
HETATM   22  H   UNL     1       5.631  32.596  46.881  1.00  0.00     0.279 HD
HETATM   23  C   UNL     1       4.763  34.373  47.385  1.00  0.00     0.270 C 
HETATM   24  C   UNL     1       5.899  33.462  50.158  1.00  0.00     0.068 C 
HETATM   25  H   UNL     1       1.594  30.789  52.975  1.00  0.00     0.162 HD
ENDBRANCH   5   8
BRANCH   7  26
HETATM   26  O   UNL     1       6.796  29.120  56.430  1.00  0.00    -0.353 OA
HETATM   27  C   UNL     1       6.620  30.231  57.302  1.00  0.00     0.210 C 
ENDBRANCH   7  26
BRANCH   1  28
HETATM   28  O   UNL     1       6.816  27.006  54.408  1.00  0.00    -0.271 OA
BRANCH  28  29
HETATM   29  C   UNL     1       6.414  25.932  55.180  1.00  0.00     0.298 C 
HETATM   30  O   UNL     1       5.629  25.949  56.115  1.00  0.00    -0.259 OA
BRANCH  29  31
HETATM   31  C   UNL     1       7.001  24.689  54.611  1.00  0.00     0.040 A 
HETATM   32  C   UNL     1       7.125  23.575  55.451  1.00  0.00     0.018 A 
HETATM   33  C   UNL     1       7.603  22.364  54.946  1.00  0.00     0.007 A 
HETATM   34  C   UNL     1       7.962  22.249  53.597  1.00  0.00    -0.062 A 
HETATM   35  C   UNL     1       8.488  20.954  53.055  1.00  0.00     0.048 C 
HETATM   36  C   UNL     1       7.869  23.374  52.768  1.00  0.00     0.007 A 
HETATM   37  C   UNL     1       7.389  24.587  53.268  1.00  0.00     0.018 A 
ENDBRANCH  29  31
ENDBRANCH  28  29
ENDBRANCH   1  28
TORSDOF 5
ENDMDL
MODEL 8
REMARK VINA RESULT:      -8.1      5.941      7.754
REMARK  5 active torsions:
REMARK  status: ('A' for Active; 'I' for Inactive)
REMARK    1  A    between atoms: C_5  and  C_6 
REMARK    2  A    between atoms: C_6  and  O_7 
REMARK    3  A    between atoms: O_7  and  C_8 
REMARK    4  A    between atoms: C_12  and  C_13 
REMARK    5  A    between atoms: C_30  and  O_31 
ROOT
HETATM    1  C   UNL     1       6.921  31.996  59.371  1.00  0.00     0.130 A 
HETATM    2  C   UNL     1       5.627  32.047  58.838  1.00  0.00     0.048 A 
HETATM    3 BR   UNL     1       5.248  31.556  57.041  1.00  0.00    -0.048 Br
HETATM    4  C   UNL     1       4.567  32.525  59.611  1.00  0.00     0.033 A 
HETATM    5  C   UNL     1       4.776  33.009  60.913  1.00  0.00    -0.012 A 
HETATM    6  C   UNL     1       6.083  32.934  61.432  1.00  0.00     0.050 A 
HETATM    7  C   UNL     1       7.159  32.462  60.666  1.00  0.00     0.104 A 
ENDROOT
BRANCH   5   8
HETATM    8  C   UNL     1       3.679  33.676  61.743  1.00  0.00     0.219 C 
HETATM    9  N   UNL     1       4.231  34.230  62.961  1.00  0.00    -0.332 N 
HETATM   10  C   UNL     1       4.906  35.423  62.977  1.00  0.00     0.256 C 
HETATM   11  H   UNL     1       4.492  33.593  63.699  1.00  0.00     0.165 HD
HETATM   12  O   UNL     1       5.686  35.721  63.874  1.00  0.00    -0.267 OA
HETATM   13  C   UNL     1       4.611  36.310  61.863  1.00  0.00     0.073 A 
HETATM   14  C   UNL     1       3.618  35.949  60.980  1.00  0.00     0.088 A 
HETATM   15  C   UNL     1       5.235  37.538  61.484  1.00  0.00    -0.023 A 
HETATM   16  S   UNL     1       3.354  37.119  59.776  1.00  0.00    -0.074 SA
HETATM   17  N   UNL     1       2.985  34.753  61.049  1.00  0.00    -0.358 N 
HETATM   18  C   UNL     1       4.650  38.065  60.346  1.00  0.00     0.018 A 
HETATM   19  C   UNL     1       5.109  39.290  59.635  1.00  0.00     0.281 C 
HETATM   20  N   UNL     1       6.088  40.100  60.479  1.00  0.00    -0.070 N 
HETATM   21  C   UNL     1       7.086  39.204  61.210  1.00  0.00     0.239 C 
HETATM   22  H   UNL     1       6.634  40.663  59.814  1.00  0.00     0.279 HD
HETATM   23  C   UNL     1       5.395  41.078  61.382  1.00  0.00     0.270 C 
HETATM   24  C   UNL     1       6.391  38.212  62.158  1.00  0.00     0.068 C 
HETATM   25  H   UNL     1       2.408  34.447  60.271  1.00  0.00     0.162 HD
ENDBRANCH   5   8
BRANCH   7  26
HETATM   26  O   UNL     1       8.363  32.491  61.313  1.00  0.00    -0.353 OA
HETATM   27  C   UNL     1       8.340  32.105  62.683  1.00  0.00     0.210 C 
ENDBRANCH   7  26
BRANCH   1  28
HETATM   28  O   UNL     1       7.973  31.538  58.575  1.00  0.00    -0.271 OA
BRANCH  28  29
HETATM   29  C   UNL     1       8.330  30.232  58.858  1.00  0.00     0.298 C 
HETATM   30  O   UNL     1       8.746  29.796  59.920  1.00  0.00    -0.259 OA
BRANCH  29  31
HETATM   31  C   UNL     1       8.010  29.383  57.679  1.00  0.00     0.040 A 
HETATM   32  C   UNL     1       8.684  29.643  56.480  1.00  0.00     0.018 A 
HETATM   33  C   UNL     1       8.471  28.829  55.364  1.00  0.00     0.007 A 
HETATM   34  C   UNL     1       7.585  27.747  55.433  1.00  0.00    -0.062 A 
HETATM   35  C   UNL     1       7.344  26.879  54.234  1.00  0.00     0.048 C 
HETATM   36  C   UNL     1       6.886  27.512  56.624  1.00  0.00     0.007 A 
HETATM   37  C   UNL     1       7.098  28.321  57.743  1.00  0.00     0.018 A 
ENDBRANCH  29  31
ENDBRANCH  28  29
ENDBRANCH   1  28
TORSDOF 5
ENDMDL
MODEL 9
REMARK VINA RESULT:      -8.0      2.529      3.347
REMARK  5 active torsions:
REMARK  status: ('A' for Active; 'I' for Inactive)
REMARK    1  A    between atoms: C_5  and  C_6 
REMARK    2  A    between atoms: C_6  and  O_7 
REMARK    3  A    between atoms: O_7  and  C_8 
REMARK    4  A    between atoms: C_12  and  C_13 
REMARK    5  A    between atoms: C_30  and  O_31 
ROOT
HETATM    1  C   UNL     1       5.462  27.285  51.758  1.00  0.00     0.130 A 
HETATM    2  C   UNL     1       5.056  28.147  52.783  1.00  0.00     0.048 A 
HETATM    3 BR   UNL     1       5.625  27.925  54.583  1.00  0.00    -0.048 Br
HETATM    4  C   UNL     1       4.155  29.181  52.517  1.00  0.00     0.033 A 
HETATM    5  C   UNL     1       3.600  29.352  51.237  1.00  0.00    -0.012 A 
HETATM    6  C   UNL     1       4.036  28.481  50.219  1.00  0.00     0.050 A 
HETATM    7  C   UNL     1       4.935  27.435  50.473  1.00  0.00     0.104 A 
ENDROOT
BRANCH   5   8
HETATM    8  C   UNL     1       2.503  30.371  50.931  1.00  0.00     0.219 C 
HETATM    9  N   UNL     1       2.200  31.158  52.106  1.00  0.00    -0.332 N 
HETATM   10  C   UNL     1       2.994  32.201  52.508  1.00  0.00     0.256 C 
HETATM   11  H   UNL     1       1.677  30.722  52.850  1.00  0.00     0.165 HD
HETATM   12  O   UNL     1       2.986  32.625  53.658  1.00  0.00    -0.267 OA
HETATM   13  C   UNL     1       3.828  32.775  51.463  1.00  0.00     0.073 A 
HETATM   14  C   UNL     1       3.666  32.326  50.172  1.00  0.00     0.088 A 
HETATM   15  C   UNL     1       4.869  33.748  51.559  1.00  0.00    -0.023 A 
HETATM   16  S   UNL     1       4.667  33.139  49.065  1.00  0.00    -0.074 SA
HETATM   17  N   UNL     1       2.841  31.298  49.859  1.00  0.00    -0.358 N 
HETATM   18  C   UNL     1       5.419  34.014  50.317  1.00  0.00     0.018 A 
HETATM   19  C   UNL     1       6.578  34.915  50.067  1.00  0.00     0.281 C 
HETATM   20  N   UNL     1       6.892  35.782  51.283  1.00  0.00    -0.070 N 
HETATM   21  C   UNL     1       6.785  34.994  52.587  1.00  0.00     0.239 C 
HETATM   22  H   UNL     1       7.878  36.054  51.187  1.00  0.00     0.279 HD
HETATM   23  C   UNL     1       6.105  37.060  51.295  1.00  0.00     0.270 C 
HETATM   24  C   UNL     1       5.376  34.414  52.802  1.00  0.00     0.068 C 
HETATM   25  H   UNL     1       2.900  30.871  48.938  1.00  0.00     0.162 HD
ENDBRANCH   5   8
BRANCH   7  26
HETATM   26  O   UNL     1       5.223  26.666  49.380  1.00  0.00    -0.353 OA
HETATM   27  C   UNL     1       4.763  27.168  48.130  1.00  0.00     0.210 C 
ENDBRANCH   7  26
BRANCH   1  28
HETATM   28  O   UNL     1       6.345  26.243  52.048  1.00  0.00    -0.271 OA
BRANCH  28  29
HETATM   29  C   UNL     1       5.697  25.075  52.406  1.00  0.00     0.298 C 
HETATM   30  O   UNL     1       4.583  24.714  52.060  1.00  0.00    -0.259 OA
BRANCH  29  31
HETATM   31  C   UNL     1       6.631  24.236  53.203  1.00  0.00     0.040 A 
HETATM   32  C   UNL     1       6.514  24.264  54.598  1.00  0.00     0.018 A 
HETATM   33  C   UNL     1       7.320  23.441  55.388  1.00  0.00     0.007 A 
HETATM   34  C   UNL     1       8.251  22.580  54.796  1.00  0.00    -0.062 A 
HETATM   35  C   UNL     1       9.127  21.704  55.642  1.00  0.00     0.048 C 
HETATM   36  C   UNL     1       8.391  22.579  53.403  1.00  0.00     0.007 A 
HETATM   37  C   UNL     1       7.584  23.399  52.608  1.00  0.00     0.018 A 
ENDBRANCH  29  31
ENDBRANCH  28  29
ENDBRANCH   1  28
TORSDOF 5
ENDMDL
MODEL 10
REMARK VINA RESULT:      -7.9      5.759      7.392
REMARK  5 active torsions:
REMARK  status: ('A' for Active; 'I' for Inactive)
REMARK    1  A    between atoms: C_5  and  C_6 
REMARK    2  A    between atoms: C_6  and  O_7 
REMARK    3  A    between atoms: O_7  and  C_8 
REMARK    4  A    between atoms: C_12  and  C_13 
REMARK    5  A    between atoms: C_30  and  O_31 
ROOT
HETATM    1  C   UNL     1       6.993  31.739  59.022  1.00  0.00     0.130 A 
HETATM    2  C   UNL     1       7.451  32.232  60.249  1.00  0.00     0.048 A 
HETATM    3 BR   UNL     1       9.276  32.127  60.768  1.00  0.00    -0.048 Br
HETATM    4  C   UNL     1       6.551  32.774  61.169  1.00  0.00     0.033 A 
HETATM    5  C   UNL     1       5.170  32.793  60.912  1.00  0.00    -0.012 A 
HETATM    6  C   UNL     1       4.734  32.304  59.664  1.00  0.00     0.050 A 
HETATM    7  C   UNL     1       5.626  31.753  58.733  1.00  0.00     0.104 A 
ENDROOT
BRANCH   5   8
HETATM    8  C   UNL     1       4.133  33.238  61.944  1.00  0.00     0.219 C 
HETATM    9  N   UNL     1       4.785  33.774  63.118  1.00  0.00    -0.332 N 
HETATM   10  C   UNL     1       5.296  35.046  63.150  1.00  0.00     0.256 C 
HETATM   11  H   UNL     1       5.233  33.129  63.752  1.00  0.00     0.165 HD
HETATM   12  O   UNL     1       6.157  35.385  63.954  1.00  0.00    -0.267 OA
HETATM   13  C   UNL     1       4.726  35.960  62.174  1.00  0.00     0.073 A 
HETATM   14  C   UNL     1       3.667  35.528  61.408  1.00  0.00     0.088 A 
HETATM   15  C   UNL     1       5.123  37.288  61.827  1.00  0.00    -0.023 A 
HETATM   16  S   UNL     1       3.077  36.733  60.364  1.00  0.00    -0.074 SA
HETATM   17  N   UNL     1       3.210  34.253  61.454  1.00  0.00    -0.358 N 
HETATM   18  C   UNL     1       4.311  37.809  60.834  1.00  0.00     0.018 A 
HETATM   19  C   UNL     1       4.496  39.134  60.181  1.00  0.00     0.281 C 
HETATM   20  N   UNL     1       5.478  40.010  60.952  1.00  0.00    -0.070 N 
HETATM   21  C   UNL     1       6.682  39.213  61.452  1.00  0.00     0.239 C 
HETATM   22  H   UNL     1       5.842  40.690  60.272  1.00  0.00     0.279 HD
HETATM   23  C   UNL     1       4.809  40.813  62.029  1.00  0.00     0.270 C 
HETATM   24  C   UNL     1       6.271  38.068  62.393  1.00  0.00     0.068 C 
HETATM   25  H   UNL     1       2.567  33.926  60.739  1.00  0.00     0.162 HD
ENDBRANCH   5   8
BRANCH   7  26
HETATM   26  O   UNL     1       5.030  31.295  57.590  1.00  0.00    -0.353 OA
HETATM   27  C   UNL     1       3.716  30.772  57.744  1.00  0.00     0.210 C 
ENDBRANCH   7  26
BRANCH   1  28
HETATM   28  O   UNL     1       7.904  31.180  58.124  1.00  0.00    -0.271 OA
BRANCH  28  29
HETATM   29  C   UNL     1       8.069  29.818  58.305  1.00  0.00     0.298 C 
HETATM   30  O   UNL     1       8.359  29.243  59.342  1.00  0.00    -0.259 OA
BRANCH  29  31
HETATM   31  C   UNL     1       7.712  29.123  57.040  1.00  0.00     0.040 A 
HETATM   32  C   UNL     1       8.574  29.263  55.946  1.00  0.00     0.018 A 
HETATM   33  C   UNL     1       8.320  28.573  54.758  1.00  0.00     0.007 A 
HETATM   34  C   UNL     1       7.205  27.734  54.649  1.00  0.00    -0.062 A 
HETATM   35  C   UNL     1       6.923  27.001  53.371  1.00  0.00     0.048 C 
HETATM   36  C   UNL     1       6.326  27.622  55.733  1.00  0.00     0.007 A 
HETATM   37  C   UNL     1       6.577  28.309  56.924  1.00  0.00     0.018 A 
ENDBRANCH  29  31
ENDBRANCH  28  29
ENDBRANCH   1  28
TORSDOF 5
ENDMDL
