MODEL 1
REMARK VINA RESULT:      -9.8      0.000      0.000
REMARK  6 active torsions:
REMARK  status: ('A' for Active; 'I' for Inactive)
REMARK    1  A    between atoms: C_2  and  S_3 
REMARK    2  A    between atoms: S_3  and  C_4 
REMARK    3  A    between atoms: C_5  and  C_6 
REMARK       I    between atoms: C_6  and  N_7 
REMARK    4  A    between atoms: N_7  and  C_8 
REMARK    5  A    between atoms: N_9  and  C_10 
REMARK    6  A    between atoms: C_21  and  C_22 
ROOT
HETATM    1  C   UNL     1       5.555  25.741  51.856  1.00  0.00     0.152 A 
HETATM    2  N   UNL     1       5.572  27.014  52.406  1.00  0.00    -0.044 N 
HETATM    3  N   UNL     1       5.098  27.965  51.545  1.00  0.00    -0.148 NA
HETATM    4  C   UNL     1       4.785  27.268  50.443  1.00  0.00     0.115 A 
HETATM    5  C   UNL     1       5.044  25.890  50.587  1.00  0.00     0.087 A 
ENDROOT
BRANCH   1   6
HETATM    6  N   UNL     1       5.997  24.631  52.556  1.00  0.00    -0.307 N 
HETATM    7  C   UNL     1       7.331  24.326  52.736  1.00  0.00     0.258 C 
HETATM    8  O   UNL     1       8.300  24.906  52.264  1.00  0.00    -0.267 OA
HETATM    9  H   UNL     1       5.288  24.000  52.930  1.00  0.00     0.170 HD
BRANCH   7  10
HETATM   10  C   UNL     1       7.546  23.092  53.521  1.00  0.00     0.049 A 
HETATM   11  C   UNL     1       7.370  23.042  54.913  1.00  0.00     0.016 A 
HETATM   12  C   UNL     1       7.572  21.818  55.567  1.00  0.00     0.019 A 
HETATM   13  C   UNL     1       7.927  20.672  54.848  1.00  0.00     0.001 A 
HETATM   14  C   UNL     1       8.102  20.737  53.467  1.00  0.00     0.001 A 
HETATM   15  C   UNL     1       7.918  21.946  52.803  1.00  0.00     0.018 A 
BRANCH  11  16
HETATM   16  S   UNL     1       6.992  24.479  55.910  1.00  0.00    -0.129 SA
BRANCH  16  17
HETATM   17  C   UNL     1       8.668  24.918  56.467  1.00  0.00     0.075 C 
HETATM   18  C   UNL     1       8.847  24.523  57.922  1.00  0.00     0.016 C 
ENDBRANCH  16  17
ENDBRANCH  11  16
ENDBRANCH   7  10
ENDBRANCH   1   6
BRANCH   2  19
HETATM   19  C   UNL     1       5.995  27.395  53.695  1.00  0.00     0.732 A 
HETATM   20  N   UNL     1       7.175  27.884  53.946  1.00  0.00    -0.067 NA
HETATM   21  C   UNL     1       7.388  28.181  55.262  1.00  0.00     0.065 A 
HETATM   22  C   UNL     1       6.512  28.018  56.254  1.00  0.00     0.036 A 
HETATM   23  C   UNL     1       8.675  28.742  55.766  1.00  0.00     0.061 C 
HETATM   24  C   UNL     1       7.033  28.426  57.578  1.00  0.00     0.047 C 
HETATM   25  C   UNL     1       5.189  27.471  55.957  1.00  0.00     0.268 A 
HETATM   26  C   UNL     1       8.532  28.579  57.287  1.00  0.00     0.011 C 
HETATM   27  O   UNL     1       4.337  27.297  56.815  1.00  0.00    -0.267 OA
HETATM   28  N   UNL     1       5.010  27.181  54.633  1.00  0.00    -0.152 N 
HETATM   29  H   UNL     1       4.121  26.794  54.331  1.00  0.00     0.188 HD
ENDBRANCH   2  19
BRANCH   4  30
HETATM   30  C   UNL     1       4.232  27.910  49.215  1.00  0.00     0.105 A 
HETATM   31  O   UNL     1       3.049  27.557  48.624  1.00  0.00    -0.320 OA
HETATM   32  C   UNL     1       2.886  28.353  47.538  1.00  0.00     0.142 A 
HETATM   33  C   UNL     1       3.943  29.221  47.412  1.00  0.00     0.027 A 
HETATM   34  C   UNL     1       4.813  28.937  48.494  1.00  0.00     0.041 A 
ENDBRANCH   4  30
TORSDOF 6
ENDMDL
MODEL 2
REMARK VINA RESULT:      -9.2      3.445      7.789
REMARK  6 active torsions:
REMARK  status: ('A' for Active; 'I' for Inactive)
REMARK    1  A    between atoms: C_2  and  S_3 
REMARK    2  A    between atoms: S_3  and  C_4 
REMARK    3  A    between atoms: C_5  and  C_6 
REMARK       I    between atoms: C_6  and  N_7 
REMARK    4  A    between atoms: N_7  and  C_8 
REMARK    5  A    between atoms: N_9  and  C_10 
REMARK    6  A    between atoms: C_21  and  C_22 
ROOT
HETATM    1  C   UNL     1       6.913  27.166  55.686  1.00  0.00     0.152 A 
HETATM    2  N   UNL     1       7.883  27.200  56.678  1.00  0.00    -0.044 N 
HETATM    3  N   UNL     1       8.355  25.956  56.992  1.00  0.00    -0.148 NA
HETATM    4  C   UNL     1       7.665  25.139  56.184  1.00  0.00     0.115 A 
HETATM    5  C   UNL     1       6.766  25.839  55.354  1.00  0.00     0.087 A 
ENDROOT
BRANCH   1   6
HETATM    6  N   UNL     1       6.296  28.316  55.220  1.00  0.00    -0.307 N 
HETATM    7  C   UNL     1       5.037  28.718  55.618  1.00  0.00     0.258 C 
HETATM    8  O   UNL     1       4.257  28.119  56.345  1.00  0.00    -0.267 OA
HETATM    9  H   UNL     1       6.801  28.870  54.529  1.00  0.00     0.170 HD
BRANCH   7  10
HETATM   10  C   UNL     1       4.602  29.980  54.982  1.00  0.00     0.049 A 
HETATM   11  C   UNL     1       3.875  30.009  53.781  1.00  0.00     0.016 A 
HETATM   12  C   UNL     1       3.483  31.255  53.270  1.00  0.00     0.019 A 
HETATM   13  C   UNL     1       3.796  32.438  53.946  1.00  0.00     0.001 A 
HETATM   14  C   UNL     1       4.521  32.394  55.135  1.00  0.00     0.001 A 
HETATM   15  C   UNL     1       4.929  31.168  55.652  1.00  0.00     0.018 A 
BRANCH  11  16
HETATM   16  S   UNL     1       3.503  28.546  52.820  1.00  0.00    -0.129 SA
BRANCH  16  17
HETATM   17  C   UNL     1       4.005  29.125  51.169  1.00  0.00     0.075 C 
HETATM   18  C   UNL     1       5.519  29.104  51.054  1.00  0.00     0.016 C 
ENDBRANCH  16  17
ENDBRANCH  11  16
ENDBRANCH   7  10
ENDBRANCH   1   6
BRANCH   2  19
HETATM   19  C   UNL     1       8.402  28.328  57.343  1.00  0.00     0.732 A 
HETATM   20  N   UNL     1       7.763  28.961  58.285  1.00  0.00    -0.067 NA
HETATM   21  C   UNL     1       8.439  30.034  58.793  1.00  0.00     0.065 A 
HETATM   22  C   UNL     1       9.648  30.450  58.415  1.00  0.00     0.036 A 
HETATM   23  C   UNL     1       7.884  30.901  59.872  1.00  0.00     0.061 C 
HETATM   24  C   UNL     1      10.119  31.646  59.148  1.00  0.00     0.047 C 
HETATM   25  C   UNL     1      10.355  29.726  57.359  1.00  0.00     0.268 A 
HETATM   26  C   UNL     1       8.833  32.108  59.846  1.00  0.00     0.011 C 
HETATM   27  O   UNL     1      11.465  30.051  56.964  1.00  0.00    -0.267 OA
HETATM   28  N   UNL     1       9.650  28.663  56.869  1.00  0.00    -0.152 N 
HETATM   29  H   UNL     1      10.060  28.101  56.129  1.00  0.00     0.188 HD
ENDBRANCH   2  19
BRANCH   4  30
HETATM   30  C   UNL     1       7.848  23.659  56.188  1.00  0.00     0.105 A 
HETATM   31  O   UNL     1       8.420  22.952  57.211  1.00  0.00    -0.320 OA
HETATM   32  C   UNL     1       8.414  21.644  56.853  1.00  0.00     0.142 A 
HETATM   33  C   UNL     1       7.844  21.486  55.612  1.00  0.00     0.027 A 
HETATM   34  C   UNL     1       7.478  22.784  55.182  1.00  0.00     0.041 A 
ENDBRANCH   4  30
TORSDOF 6
ENDMDL
MODEL 3
REMARK VINA RESULT:      -9.2      2.054      7.173
REMARK  6 active torsions:
REMARK  status: ('A' for Active; 'I' for Inactive)
REMARK    1  A    between atoms: C_2  and  S_3 
REMARK    2  A    between atoms: S_3  and  C_4 
REMARK    3  A    between atoms: C_5  and  C_6 
REMARK       I    between atoms: C_6  and  N_7 
REMARK    4  A    between atoms: N_7  and  C_8 
REMARK    5  A    between atoms: N_9  and  C_10 
REMARK    6  A    between atoms: C_21  and  C_22 
ROOT
HETATM    1  C   UNL     1       6.471  25.942  54.606  1.00  0.00     0.152 A 
HETATM    2  N   UNL     1       6.015  25.670  53.325  1.00  0.00    -0.044 N 
HETATM    3  N   UNL     1       6.314  24.398  52.921  1.00  0.00    -0.148 NA
HETATM    4  C   UNL     1       6.969  23.877  53.968  1.00  0.00     0.115 A 
HETATM    5  C   UNL     1       7.087  24.790  55.036  1.00  0.00     0.087 A 
ENDROOT
BRANCH   1   6
HETATM    6  N   UNL     1       6.279  27.175  55.209  1.00  0.00    -0.307 N 
HETATM    7  C   UNL     1       5.570  27.348  56.380  1.00  0.00     0.258 C 
HETATM    8  O   UNL     1       4.950  26.500  57.009  1.00  0.00    -0.267 OA
HETATM    9  H   UNL     1       6.667  27.992  54.738  1.00  0.00     0.170 HD
BRANCH   7  10
HETATM   10  C   UNL     1       5.511  28.756  56.823  1.00  0.00     0.049 A 
HETATM   11  C   UNL     1       6.624  29.429  57.354  1.00  0.00     0.016 A 
HETATM   12  C   UNL     1       6.475  30.774  57.722  1.00  0.00     0.019 A 
HETATM   13  C   UNL     1       5.254  31.433  57.552  1.00  0.00     0.001 A 
HETATM   14  C   UNL     1       4.157  30.753  57.027  1.00  0.00     0.001 A 
HETATM   15  C   UNL     1       4.282  29.414  56.667  1.00  0.00     0.018 A 
BRANCH  11  16
HETATM   16  S   UNL     1       8.194  28.633  57.673  1.00  0.00    -0.129 SA
BRANCH  16  17
HETATM   17  C   UNL     1       9.165  29.300  56.286  1.00  0.00     0.075 C 
HETATM   18  C   UNL     1      10.581  29.602  56.746  1.00  0.00     0.016 C 
ENDBRANCH  16  17
ENDBRANCH  11  16
ENDBRANCH   7  10
ENDBRANCH   1   6
BRANCH   2  19
HETATM   19  C   UNL     1       5.305  26.524  52.458  1.00  0.00     0.732 A 
HETATM   20  N   UNL     1       4.623  27.554  52.869  1.00  0.00    -0.067 NA
HETATM   21  C   UNL     1       4.001  28.247  51.869  1.00  0.00     0.065 A 
HETATM   22  C   UNL     1       4.049  27.957  50.568  1.00  0.00     0.036 A 
HETATM   23  C   UNL     1       3.162  29.453  52.122  1.00  0.00     0.061 C 
HETATM   24  C   UNL     1       3.268  28.889  49.724  1.00  0.00     0.047 C 
HETATM   25  C   UNL     1       4.822  26.799  50.121  1.00  0.00     0.268 A 
HETATM   26  C   UNL     1       2.445  29.644  50.777  1.00  0.00     0.011 C 
HETATM   27  O   UNL     1       4.910  26.476  48.946  1.00  0.00    -0.267 OA
HETATM   28  N   UNL     1       5.427  26.126  51.146  1.00  0.00    -0.152 N 
HETATM   29  H   UNL     1       5.984  25.305  50.932  1.00  0.00     0.188 HD
ENDBRANCH   2  19
BRANCH   4  30
HETATM   30  C   UNL     1       7.506  22.485  53.971  1.00  0.00     0.105 A 
HETATM   31  O   UNL     1       7.640  21.710  55.091  1.00  0.00    -0.320 OA
HETATM   32  C   UNL     1       8.162  20.520  54.700  1.00  0.00     0.142 A 
HETATM   33  C   UNL     1       8.366  20.506  53.341  1.00  0.00     0.027 A 
HETATM   34  C   UNL     1       7.943  21.773  52.869  1.00  0.00     0.041 A 
ENDBRANCH   4  30
TORSDOF 6
ENDMDL
MODEL 4
REMARK VINA RESULT:      -9.2      3.181      7.099
REMARK  6 active torsions:
REMARK  status: ('A' for Active; 'I' for Inactive)
REMARK    1  A    between atoms: C_2  and  S_3 
REMARK    2  A    between atoms: S_3  and  C_4 
REMARK    3  A    between atoms: C_5  and  C_6 
REMARK       I    between atoms: C_6  and  N_7 
REMARK    4  A    between atoms: N_7  and  C_8 
REMARK    5  A    between atoms: N_9  and  C_10 
REMARK    6  A    between atoms: C_21  and  C_22 
ROOT
HETATM    1  C   UNL     1       7.622  28.557  56.723  1.00  0.00     0.152 A 
HETATM    2  N   UNL     1       6.655  29.547  56.626  1.00  0.00    -0.044 N 
HETATM    3  N   UNL     1       6.690  30.420  57.678  1.00  0.00    -0.148 NA
HETATM    4  C   UNL     1       7.693  29.960  58.439  1.00  0.00     0.115 A 
HETATM    5  C   UNL     1       8.304  28.814  57.890  1.00  0.00     0.087 A 
ENDROOT
BRANCH   1   6
HETATM    6  N   UNL     1       7.758  27.565  55.766  1.00  0.00    -0.307 N 
HETATM    7  C   UNL     1       7.169  26.321  55.868  1.00  0.00     0.258 C 
HETATM    8  O   UNL     1       6.529  25.874  56.811  1.00  0.00    -0.267 OA
HETATM    9  H   UNL     1       8.349  27.770  54.960  1.00  0.00     0.170 HD
BRANCH   7  10
HETATM   10  C   UNL     1       7.462  25.441  54.717  1.00  0.00     0.049 A 
HETATM   11  C   UNL     1       7.885  24.111  54.872  1.00  0.00     0.016 A 
HETATM   12  C   UNL     1       8.112  23.346  53.718  1.00  0.00     0.019 A 
HETATM   13  C   UNL     1       7.909  23.890  52.446  1.00  0.00     0.001 A 
HETATM   14  C   UNL     1       7.491  25.212  52.307  1.00  0.00     0.001 A 
HETATM   15  C   UNL     1       7.272  25.991  53.441  1.00  0.00     0.018 A 
BRANCH  11  16
HETATM   16  S   UNL     1       8.241  23.369  56.461  1.00  0.00    -0.129 SA
BRANCH  16  17
HETATM   17  C   UNL     1       8.822  21.733  55.915  1.00  0.00     0.075 C 
HETATM   18  C   UNL     1       7.802  20.673  56.290  1.00  0.00     0.016 C 
ENDBRANCH  16  17
ENDBRANCH  11  16
ENDBRANCH   7  10
ENDBRANCH   1   6
BRANCH   2  19
HETATM   19  C   UNL     1       5.705  29.732  55.602  1.00  0.00     0.732 A 
HETATM   20  N   UNL     1       5.256  28.762  54.858  1.00  0.00    -0.067 NA
HETATM   21  C   UNL     1       4.347  29.157  53.918  1.00  0.00     0.065 A 
HETATM   22  C   UNL     1       3.908  30.401  53.724  1.00  0.00     0.036 A 
HETATM   23  C   UNL     1       3.714  28.207  52.957  1.00  0.00     0.061 C 
HETATM   24  C   UNL     1       2.926  30.518  52.623  1.00  0.00     0.047 C 
HETATM   25  C   UNL     1       4.420  31.479  54.569  1.00  0.00     0.268 A 
HETATM   26  C   UNL     1       3.066  29.153  51.937  1.00  0.00     0.011 C 
HETATM   27  O   UNL     1       4.061  32.641  54.448  1.00  0.00    -0.267 OA
HETATM   28  N   UNL     1       5.329  31.052  55.496  1.00  0.00    -0.152 N 
HETATM   29  H   UNL     1       5.743  31.732  56.127  1.00  0.00     0.188 HD
ENDBRANCH   2  19
BRANCH   4  30
HETATM   30  C   UNL     1       8.092  30.608  59.723  1.00  0.00     0.105 A 
HETATM   31  O   UNL     1       9.012  30.094  60.596  1.00  0.00    -0.320 OA
HETATM   32  C   UNL     1       9.104  30.955  61.640  1.00  0.00     0.142 A 
HETATM   33  C   UNL     1       8.260  32.024  61.460  1.00  0.00     0.027 A 
HETATM   34  C   UNL     1       7.607  31.803  60.223  1.00  0.00     0.041 A 
ENDBRANCH   4  30
TORSDOF 6
ENDMDL
MODEL 5
REMARK VINA RESULT:      -9.0      2.720      7.589
REMARK  6 active torsions:
REMARK  status: ('A' for Active; 'I' for Inactive)
REMARK    1  A    between atoms: C_2  and  S_3 
REMARK    2  A    between atoms: S_3  and  C_4 
REMARK    3  A    between atoms: C_5  and  C_6 
REMARK       I    between atoms: C_6  and  N_7 
REMARK    4  A    between atoms: N_7  and  C_8 
REMARK    5  A    between atoms: N_9  and  C_10 
REMARK    6  A    between atoms: C_21  and  C_22 
ROOT
HETATM    1  C   UNL     1       6.723  28.372  54.947  1.00  0.00     0.152 A 
HETATM    2  N   UNL     1       7.307  27.389  55.732  1.00  0.00    -0.044 N 
HETATM    3  N   UNL     1       7.621  27.836  56.986  1.00  0.00    -0.148 NA
HETATM    4  C   UNL     1       7.227  29.117  56.975  1.00  0.00     0.115 A 
HETATM    5  C   UNL     1       6.661  29.495  55.740  1.00  0.00     0.087 A 
ENDROOT
BRANCH   1   6
HETATM    6  N   UNL     1       6.332  28.135  53.640  1.00  0.00    -0.307 N 
HETATM    7  C   UNL     1       5.013  28.039  53.245  1.00  0.00     0.258 C 
HETATM    8  O   UNL     1       4.018  28.060  53.956  1.00  0.00    -0.267 OA
HETATM    9  H   UNL     1       7.069  28.002  52.948  1.00  0.00     0.170 HD
BRANCH   7  10
HETATM   10  C   UNL     1       4.855  27.786  51.797  1.00  0.00     0.049 A 
HETATM   11  C   UNL     1       4.595  28.813  50.875  1.00  0.00     0.016 A 
HETATM   12  C   UNL     1       4.488  28.477  49.518  1.00  0.00     0.019 A 
HETATM   13  C   UNL     1       4.649  27.156  49.091  1.00  0.00     0.001 A 
HETATM   14  C   UNL     1       4.903  26.146  50.017  1.00  0.00     0.001 A 
HETATM   15  C   UNL     1       5.001  26.458  51.370  1.00  0.00     0.018 A 
BRANCH  11  16
HETATM   16  S   UNL     1       4.301  30.512  51.351  1.00  0.00    -0.129 SA
BRANCH  16  17
HETATM   17  C   UNL     1       5.578  31.339  50.352  1.00  0.00     0.075 C 
HETATM   18  C   UNL     1       4.922  32.193  49.282  1.00  0.00     0.016 C 
ENDBRANCH  16  17
ENDBRANCH  11  16
ENDBRANCH   7  10
ENDBRANCH   1   6
BRANCH   2  19
HETATM   19  C   UNL     1       7.580  26.052  55.383  1.00  0.00     0.732 A 
HETATM   20  N   UNL     1       7.557  25.612  54.158  1.00  0.00    -0.067 NA
HETATM   21  C   UNL     1       7.843  24.282  54.037  1.00  0.00     0.065 A 
HETATM   22  C   UNL     1       8.135  23.448  55.036  1.00  0.00     0.036 A 
HETATM   23  C   UNL     1       7.861  23.576  52.723  1.00  0.00     0.061 C 
HETATM   24  C   UNL     1       8.394  22.061  54.593  1.00  0.00     0.047 C 
HETATM   25  C   UNL     1       8.161  23.957  56.407  1.00  0.00     0.268 A 
HETATM   26  C   UNL     1       7.892  22.099  53.144  1.00  0.00     0.011 C 
HETATM   27  O   UNL     1       8.422  23.251  57.370  1.00  0.00    -0.267 OA
HETATM   28  N   UNL     1       7.866  25.290  56.493  1.00  0.00    -0.152 N 
HETATM   29  H   UNL     1       7.857  25.731  57.407  1.00  0.00     0.188 HD
ENDBRANCH   2  19
BRANCH   4  30
HETATM   30  C   UNL     1       7.388  30.019  58.153  1.00  0.00     0.105 A 
HETATM   31  O   UNL     1       6.556  31.065  58.445  1.00  0.00    -0.320 OA
HETATM   32  C   UNL     1       7.021  31.648  59.579  1.00  0.00     0.142 A 
HETATM   33  C   UNL     1       8.142  30.996  60.031  1.00  0.00     0.027 A 
HETATM   34  C   UNL     1       8.381  29.944  59.113  1.00  0.00     0.041 A 
ENDBRANCH   4  30
TORSDOF 6
ENDMDL
MODEL 6
REMARK VINA RESULT:      -8.7      2.520      7.042
REMARK  6 active torsions:
REMARK  status: ('A' for Active; 'I' for Inactive)
REMARK    1  A    between atoms: C_2  and  S_3 
REMARK    2  A    between atoms: S_3  and  C_4 
REMARK    3  A    between atoms: C_5  and  C_6 
REMARK       I    between atoms: C_6  and  N_7 
REMARK    4  A    between atoms: N_7  and  C_8 
REMARK    5  A    between atoms: N_9  and  C_10 
REMARK    6  A    between atoms: C_21  and  C_22 
ROOT
HETATM    1  C   UNL     1       5.575  25.276  53.376  1.00  0.00     0.152 A 
HETATM    2  N   UNL     1       6.066  25.559  54.642  1.00  0.00    -0.044 N 
HETATM    3  N   UNL     1       6.845  24.551  55.140  1.00  0.00    -0.148 NA
HETATM    4  C   UNL     1       6.833  23.629  54.167  1.00  0.00     0.115 A 
HETATM    5  C   UNL     1       6.067  24.032  53.054  1.00  0.00     0.087 A 
ENDROOT
BRANCH   1   6
HETATM    6  N   UNL     1       4.759  26.159  52.688  1.00  0.00    -0.307 N 
HETATM    7  C   UNL     1       5.239  27.150  51.856  1.00  0.00     0.258 C 
HETATM    8  O   UNL     1       6.407  27.458  51.659  1.00  0.00    -0.267 OA
HETATM    9  H   UNL     1       3.753  26.077  52.834  1.00  0.00     0.170 HD
BRANCH   7  10
HETATM   10  C   UNL     1       4.169  27.959  51.235  1.00  0.00     0.049 A 
HETATM   11  C   UNL     1       3.843  27.862  49.873  1.00  0.00     0.016 A 
HETATM   12  C   UNL     1       2.793  28.652  49.382  1.00  0.00     0.019 A 
HETATM   13  C   UNL     1       2.080  29.505  50.230  1.00  0.00     0.001 A 
HETATM   14  C   UNL     1       2.416  29.593  51.579  1.00  0.00     0.001 A 
HETATM   15  C   UNL     1       3.463  28.826  52.083  1.00  0.00     0.018 A 
BRANCH  11  16
HETATM   16  S   UNL     1       4.757  26.854  48.711  1.00  0.00    -0.129 SA
BRANCH  16  17
HETATM   17  C   UNL     1       3.421  26.432  47.550  1.00  0.00     0.075 C 
HETATM   18  C   UNL     1       2.919  25.027  47.832  1.00  0.00     0.016 C 
ENDBRANCH  16  17
ENDBRANCH  11  16
ENDBRANCH   7  10
ENDBRANCH   1   6
BRANCH   2  19
HETATM   19  C   UNL     1       5.860  26.721  55.411  1.00  0.00     0.732 A 
HETATM   20  N   UNL     1       4.859  27.534  55.226  1.00  0.00    -0.067 NA
HETATM   21  C   UNL     1       4.847  28.606  56.073  1.00  0.00     0.065 A 
HETATM   22  C   UNL     1       5.741  28.859  57.030  1.00  0.00     0.036 A 
HETATM   23  C   UNL     1       3.795  29.661  56.025  1.00  0.00     0.061 C 
HETATM   24  C   UNL     1       5.466  30.102  57.783  1.00  0.00     0.047 C 
HETATM   25  C   UNL     1       6.857  27.936  57.228  1.00  0.00     0.268 A 
HETATM   26  C   UNL     1       4.397  30.767  56.905  1.00  0.00     0.011 C 
HETATM   27  O   UNL     1       7.711  28.105  58.085  1.00  0.00    -0.267 OA
HETATM   28  N   UNL     1       6.842  26.877  56.362  1.00  0.00    -0.152 N 
HETATM   29  H   UNL     1       7.581  26.184  56.423  1.00  0.00     0.188 HD
ENDBRANCH   2  19
BRANCH   4  30
HETATM   30  C   UNL     1       7.555  22.329  54.281  1.00  0.00     0.105 A 
HETATM   31  O   UNL     1       8.102  21.653  53.225  1.00  0.00    -0.320 OA
HETATM   32  C   UNL     1       8.666  20.521  53.716  1.00  0.00     0.142 A 
HETATM   33  C   UNL     1       8.497  20.450  55.078  1.00  0.00     0.027 A 
HETATM   34  C   UNL     1       7.781  21.615  55.444  1.00  0.00     0.041 A 
ENDBRANCH   4  30
TORSDOF 6
ENDMDL
MODEL 7
REMARK VINA RESULT:      -8.6      2.338      7.465
REMARK  6 active torsions:
REMARK  status: ('A' for Active; 'I' for Inactive)
REMARK    1  A    between atoms: C_2  and  S_3 
REMARK    2  A    between atoms: S_3  and  C_4 
REMARK    3  A    between atoms: C_5  and  C_6 
REMARK       I    between atoms: C_6  and  N_7 
REMARK    4  A    between atoms: N_7  and  C_8 
REMARK    5  A    between atoms: N_9  and  C_10 
REMARK    6  A    between atoms: C_21  and  C_22 
ROOT
HETATM    1  C   UNL     1       6.160  26.667  53.699  1.00  0.00     0.152 A 
HETATM    2  N   UNL     1       6.006  26.148  52.421  1.00  0.00    -0.044 N 
HETATM    3  N   UNL     1       6.375  24.834  52.341  1.00  0.00    -0.148 NA
HETATM    4  C   UNL     1       6.767  24.536  53.588  1.00  0.00     0.115 A 
HETATM    5  C   UNL     1       6.648  25.634  54.465  1.00  0.00     0.087 A 
ENDROOT
BRANCH   1   6
HETATM    6  N   UNL     1       5.851  27.983  54.001  1.00  0.00    -0.307 N 
HETATM    7  C   UNL     1       4.975  28.349  55.003  1.00  0.00     0.258 C 
HETATM    8  O   UNL     1       4.293  27.613  55.703  1.00  0.00    -0.267 OA
HETATM    9  H   UNL     1       6.281  28.709  53.428  1.00  0.00     0.170 HD
BRANCH   7  10
HETATM   10  C   UNL     1       4.815  29.813  55.131  1.00  0.00     0.049 A 
HETATM   11  C   UNL     1       5.429  30.553  56.154  1.00  0.00     0.016 A 
HETATM   12  C   UNL     1       5.239  31.942  56.177  1.00  0.00     0.019 A 
HETATM   13  C   UNL     1       4.468  32.576  55.198  1.00  0.00     0.001 A 
HETATM   14  C   UNL     1       3.861  31.829  54.191  1.00  0.00     0.001 A 
HETATM   15  C   UNL     1       4.029  30.447  54.158  1.00  0.00     0.018 A 
BRANCH  11  16
HETATM   16  S   UNL     1       6.365  29.806  57.484  1.00  0.00    -0.129 SA
BRANCH  16  17
HETATM   17  C   UNL     1       7.937  29.498  56.620  1.00  0.00     0.075 C 
HETATM   18  C   UNL     1       8.361  28.054  56.820  1.00  0.00     0.016 C 
ENDBRANCH  16  17
ENDBRANCH  11  16
ENDBRANCH   7  10
ENDBRANCH   1   6
BRANCH   2  19
HETATM   19  C   UNL     1       5.523  26.805  51.272  1.00  0.00     0.732 A 
HETATM   20  N   UNL     1       5.758  28.059  51.013  1.00  0.00    -0.067 NA
HETATM   21  C   UNL     1       5.191  28.503  49.852  1.00  0.00     0.065 A 
HETATM   22  C   UNL     1       4.458  27.776  49.008  1.00  0.00     0.036 A 
HETATM   23  C   UNL     1       5.329  29.909  49.372  1.00  0.00     0.061 C 
HETATM   24  C   UNL     1       3.975  28.537  47.835  1.00  0.00     0.047 C 
HETATM   25  C   UNL     1       4.206  26.368  49.312  1.00  0.00     0.268 A 
HETATM   26  C   UNL     1       4.274  29.982  48.259  1.00  0.00     0.011 C 
HETATM   27  O   UNL     1       3.544  25.643  48.584  1.00  0.00    -0.267 OA
HETATM   28  N   UNL     1       4.782  25.957  50.481  1.00  0.00    -0.152 N 
HETATM   29  H   UNL     1       4.658  24.993  50.776  1.00  0.00     0.188 HD
ENDBRANCH   2  19
BRANCH   4  30
HETATM   30  C   UNL     1       7.272  23.186  53.973  1.00  0.00     0.105 A 
HETATM   31  O   UNL     1       7.280  22.699  55.252  1.00  0.00    -0.320 OA
HETATM   32  C   UNL     1       7.813  21.452  55.207  1.00  0.00     0.142 A 
HETATM   33  C   UNL     1       8.150  21.118  53.918  1.00  0.00     0.027 A 
HETATM   34  C   UNL     1       7.801  22.235  53.120  1.00  0.00     0.041 A 
ENDBRANCH   4  30
TORSDOF 6
ENDMDL
MODEL 8
REMARK VINA RESULT:      -8.6      3.862      7.578
REMARK  6 active torsions:
REMARK  status: ('A' for Active; 'I' for Inactive)
REMARK    1  A    between atoms: C_2  and  S_3 
REMARK    2  A    between atoms: S_3  and  C_4 
REMARK    3  A    between atoms: C_5  and  C_6 
REMARK       I    between atoms: C_6  and  N_7 
REMARK    4  A    between atoms: N_7  and  C_8 
REMARK    5  A    between atoms: N_9  and  C_10 
REMARK    6  A    between atoms: C_21  and  C_22 
ROOT
HETATM    1  C   UNL     1       6.742  29.148  57.080  1.00  0.00     0.152 A 
HETATM    2  N   UNL     1       6.161  30.405  57.154  1.00  0.00    -0.044 N 
HETATM    3  N   UNL     1       6.692  31.171  58.155  1.00  0.00    -0.148 NA
HETATM    4  C   UNL     1       7.615  30.372  58.710  1.00  0.00     0.115 A 
HETATM    5  C   UNL     1       7.687  29.114  58.078  1.00  0.00     0.087 A 
ENDROOT
BRANCH   1   6
HETATM    6  N   UNL     1       6.348  28.209  56.140  1.00  0.00    -0.307 N 
HETATM    7  C   UNL     1       7.098  27.882  55.029  1.00  0.00     0.258 C 
HETATM    8  O   UNL     1       8.144  28.397  54.658  1.00  0.00    -0.267 OA
HETATM    9  H   UNL     1       5.441  27.763  56.277  1.00  0.00     0.170 HD
BRANCH   7  10
HETATM   10  C   UNL     1       6.465  26.850  54.181  1.00  0.00     0.049 A 
HETATM   11  C   UNL     1       6.592  25.476  54.442  1.00  0.00     0.016 A 
HETATM   12  C   UNL     1       5.932  24.574  53.595  1.00  0.00     0.019 A 
HETATM   13  C   UNL     1       5.155  25.032  52.526  1.00  0.00     0.001 A 
HETATM   14  C   UNL     1       5.041  26.398  52.277  1.00  0.00     0.001 A 
HETATM   15  C   UNL     1       5.699  27.308  53.099  1.00  0.00     0.018 A 
BRANCH  11  16
HETATM   16  S   UNL     1       7.628  24.812  55.741  1.00  0.00    -0.129 SA
BRANCH  16  17
HETATM   17  C   UNL     1       7.531  23.040  55.337  1.00  0.00     0.075 C 
HETATM   18  C   UNL     1       8.903  22.528  54.935  1.00  0.00     0.016 C 
ENDBRANCH  16  17
ENDBRANCH  11  16
ENDBRANCH   7  10
ENDBRANCH   1   6
BRANCH   2  19
HETATM   19  C   UNL     1       5.144  30.939  56.338  1.00  0.00     0.732 A 
HETATM   20  N   UNL     1       4.966  30.590  55.096  1.00  0.00    -0.067 NA
HETATM   21  C   UNL     1       3.931  31.232  54.479  1.00  0.00     0.065 A 
HETATM   22  C   UNL     1       3.129  32.141  55.035  1.00  0.00     0.036 A 
HETATM   23  C   UNL     1       3.561  30.987  53.055  1.00  0.00     0.061 C 
HETATM   24  C   UNL     1       2.097  32.665  54.112  1.00  0.00     0.047 C 
HETATM   25  C   UNL     1       3.339  32.521  56.431  1.00  0.00     0.268 A 
HETATM   26  C   UNL     1       2.603  32.150  52.758  1.00  0.00     0.011 C 
HETATM   27  O   UNL     1       2.642  33.345  57.005  1.00  0.00    -0.267 OA
HETATM   28  N   UNL     1       4.384  31.863  57.017  1.00  0.00    -0.152 N 
HETATM   29  H   UNL     1       4.609  32.065  57.987  1.00  0.00     0.188 HD
ENDBRANCH   2  19
BRANCH   4  30
HETATM   30  C   UNL     1       8.453  30.795  59.870  1.00  0.00     0.105 A 
HETATM   31  O   UNL     1       8.772  29.989  60.929  1.00  0.00    -0.320 OA
HETATM   32  C   UNL     1       9.537  30.719  61.778  1.00  0.00     0.142 A 
HETATM   33  C   UNL     1       9.724  31.989  61.288  1.00  0.00     0.027 A 
HETATM   34  C   UNL     1       9.026  32.040  60.057  1.00  0.00     0.041 A 
ENDBRANCH   4  30
TORSDOF 6
ENDMDL
MODEL 9
REMARK VINA RESULT:      -8.5      6.267     10.631
REMARK  6 active torsions:
REMARK  status: ('A' for Active; 'I' for Inactive)
REMARK    1  A    between atoms: C_2  and  S_3 
REMARK    2  A    between atoms: S_3  and  C_4 
REMARK    3  A    between atoms: C_5  and  C_6 
REMARK       I    between atoms: C_6  and  N_7 
REMARK    4  A    between atoms: N_7  and  C_8 
REMARK    5  A    between atoms: N_9  and  C_10 
REMARK    6  A    between atoms: C_21  and  C_22 
ROOT
HETATM    1  C   UNL     1       6.810  32.207  60.552  1.00  0.00     0.152 A 
HETATM    2  N   UNL     1       5.524  32.707  60.407  1.00  0.00    -0.044 N 
HETATM    3  N   UNL     1       5.011  33.184  61.582  1.00  0.00    -0.148 NA
HETATM    4  C   UNL     1       5.995  32.974  62.467  1.00  0.00     0.115 A 
HETATM    5  C   UNL     1       7.130  32.378  61.880  1.00  0.00     0.087 A 
ENDROOT
BRANCH   1   6
HETATM    6  N   UNL     1       7.515  31.669  59.488  1.00  0.00    -0.307 N 
HETATM    7  C   UNL     1       8.338  30.567  59.600  1.00  0.00     0.258 C 
HETATM    8  O   UNL     1       8.638  29.959  60.619  1.00  0.00    -0.267 OA
HETATM    9  H   UNL     1       7.431  32.137  58.586  1.00  0.00     0.170 HD
BRANCH   7  10
HETATM   10  C   UNL     1       8.975  30.183  58.322  1.00  0.00     0.049 A 
HETATM   11  C   UNL     1       8.274  29.531  57.295  1.00  0.00     0.016 A 
HETATM   12  C   UNL     1       8.959  29.232  56.108  1.00  0.00     0.019 A 
HETATM   13  C   UNL     1      10.302  29.586  55.946  1.00  0.00     0.001 A 
HETATM   14  C   UNL     1      10.986  30.230  56.975  1.00  0.00     0.001 A 
HETATM   15  C   UNL     1      10.326  30.524  58.165  1.00  0.00     0.018 A 
BRANCH  11  16
HETATM   16  S   UNL     1       6.580  28.979  57.455  1.00  0.00    -0.129 SA
BRANCH  16  17
HETATM   17  C   UNL     1       6.078  29.009  55.706  1.00  0.00     0.075 C 
HETATM   18  C   UNL     1       5.050  27.922  55.446  1.00  0.00     0.016 C 
ENDBRANCH  16  17
ENDBRANCH  11  16
ENDBRANCH   7  10
ENDBRANCH   1   6
BRANCH   2  19
HETATM   19  C   UNL     1       4.748  32.774  59.233  1.00  0.00     0.732 A 
HETATM   20  N   UNL     1       4.348  31.722  58.579  1.00  0.00    -0.067 NA
HETATM   21  C   UNL     1       3.614  32.007  57.462  1.00  0.00     0.065 A 
HETATM   22  C   UNL     1       3.292  33.224  57.024  1.00  0.00     0.036 A 
HETATM   23  C   UNL     1       3.066  30.949  56.564  1.00  0.00     0.061 C 
HETATM   24  C   UNL     1       2.490  33.214  55.781  1.00  0.00     0.047 C 
HETATM   25  C   UNL     1       3.746  34.396  57.772  1.00  0.00     0.268 A 
HETATM   26  C   UNL     1       2.637  31.755  55.329  1.00  0.00     0.011 C 
HETATM   27  O   UNL     1       3.487  35.540  57.430  1.00  0.00    -0.267 OA
HETATM   28  N   UNL     1       4.480  34.077  58.880  1.00  0.00    -0.152 N 
HETATM   29  H   UNL     1       4.842  34.827  59.461  1.00  0.00     0.188 HD
ENDBRANCH   2  19
BRANCH   4  30
HETATM   30  C   UNL     1       5.872  33.338  63.909  1.00  0.00     0.105 A 
HETATM   31  O   UNL     1       4.695  33.348  64.607  1.00  0.00    -0.320 OA
HETATM   32  C   UNL     1       4.980  33.731  65.877  1.00  0.00     0.142 A 
HETATM   33  C   UNL     1       6.326  33.968  66.019  1.00  0.00     0.027 A 
HETATM   34  C   UNL     1       6.904  33.714  64.751  1.00  0.00     0.041 A 
ENDBRANCH   4  30
TORSDOF 6
ENDMDL
MODEL 10
REMARK VINA RESULT:      -8.5      2.837      6.996
REMARK  6 active torsions:
REMARK  status: ('A' for Active; 'I' for Inactive)
REMARK    1  A    between atoms: C_2  and  S_3 
REMARK    2  A    between atoms: S_3  and  C_4 
REMARK    3  A    between atoms: C_5  and  C_6 
REMARK       I    between atoms: C_6  and  N_7 
REMARK    4  A    between atoms: N_7  and  C_8 
REMARK    5  A    between atoms: N_9  and  C_10 
REMARK    6  A    between atoms: C_21  and  C_22 
ROOT
HETATM    1  C   UNL     1       7.836  28.086  56.890  1.00  0.00     0.152 A 
HETATM    2  N   UNL     1       6.996  29.134  56.545  1.00  0.00    -0.044 N 
HETATM    3  N   UNL     1       7.060  30.172  57.432  1.00  0.00    -0.148 NA
HETATM    4  C   UNL     1       7.953  29.759  58.342  1.00  0.00     0.115 A 
HETATM    5  C   UNL     1       8.466  28.478  58.049  1.00  0.00     0.087 A 
ENDROOT
BRANCH   1   6
HETATM    6  N   UNL     1       7.923  26.930  56.131  1.00  0.00    -0.307 N 
HETATM    7  C   UNL     1       7.280  25.754  56.458  1.00  0.00     0.258 C 
HETATM    8  O   UNL     1       6.627  25.516  57.466  1.00  0.00    -0.267 OA
HETATM    9  H   UNL     1       8.517  26.958  55.302  1.00  0.00     0.170 HD
BRANCH   7  10
HETATM   10  C   UNL     1       7.525  24.666  55.488  1.00  0.00     0.049 A 
HETATM   11  C   UNL     1       6.736  24.485  54.341  1.00  0.00     0.016 A 
HETATM   12  C   UNL     1       7.064  23.439  53.466  1.00  0.00     0.019 A 
HETATM   13  C   UNL     1       8.158  22.607  53.721  1.00  0.00     0.001 A 
HETATM   14  C   UNL     1       8.931  22.796  54.865  1.00  0.00     0.001 A 
HETATM   15  C   UNL     1       8.613  23.821  55.752  1.00  0.00     0.018 A 
BRANCH  11  16
HETATM   16  S   UNL     1       5.277  25.458  53.986  1.00  0.00    -0.129 SA
BRANCH  16  17
HETATM   17  C   UNL     1       4.704  24.616  52.477  1.00  0.00     0.075 C 
HETATM   18  C   UNL     1       4.976  25.490  51.265  1.00  0.00     0.016 C 
ENDBRANCH  16  17
ENDBRANCH  11  16
ENDBRANCH   7  10
ENDBRANCH   1   6
BRANCH   2  19
HETATM   19  C   UNL     1       6.142  29.227  55.428  1.00  0.00     0.732 A 
HETATM   20  N   UNL     1       6.463  28.790  54.244  1.00  0.00    -0.067 NA
HETATM   21  C   UNL     1       5.497  28.986  53.298  1.00  0.00     0.065 A 
HETATM   22  C   UNL     1       4.309  29.558  53.496  1.00  0.00     0.036 A 
HETATM   23  C   UNL     1       5.663  28.568  51.875  1.00  0.00     0.061 C 
HETATM   24  C   UNL     1       3.476  29.633  52.275  1.00  0.00     0.047 C 
HETATM   25  C   UNL     1       3.962  30.040  54.832  1.00  0.00     0.268 A 
HETATM   26  C   UNL     1       4.497  29.287  51.182  1.00  0.00     0.011 C 
HETATM   27  O   UNL     1       2.891  30.573  55.086  1.00  0.00    -0.267 OA
HETATM   28  N   UNL     1       4.950  29.834  55.753  1.00  0.00    -0.152 N 
HETATM   29  H   UNL     1       4.801  30.139  56.710  1.00  0.00     0.188 HD
ENDBRANCH   2  19
BRANCH   4  30
HETATM   30  C   UNL     1       8.338  30.582  59.525  1.00  0.00     0.105 A 
HETATM   31  O   UNL     1       8.880  30.077  60.676  1.00  0.00    -0.320 OA
HETATM   32  C   UNL     1       9.090  31.121  61.517  1.00  0.00     0.142 A 
HETATM   33  C   UNL     1       8.695  32.299  60.931  1.00  0.00     0.027 A 
HETATM   34  C   UNL     1       8.211  31.954  59.646  1.00  0.00     0.041 A 
ENDBRANCH   4  30
TORSDOF 6
ENDMDL
