MODEL 1
REMARK VINA RESULT:     -10.0      0.000      0.000
REMARK  6 active torsions:
REMARK  status: ('A' for Active; 'I' for Inactive)
REMARK    1  A    between atoms: C_2  and  C_3 
REMARK    2  A    between atoms: C_4  and  N_5 
REMARK       I    between atoms: N_5  and  C_6 
REMARK    3  A    between atoms: C_6  and  C_7 
REMARK    4  A    between atoms: C_7  and  N_8 
REMARK       I    between atoms: N_8  and  C_9 
REMARK    5  A    between atoms: C_9  and  C_10 
REMARK    6  A    between atoms: C_11  and  C_12 
ROOT
HETATM    1  N   UNL     1       8.461  27.256  57.557  1.00  0.00    -0.348 N 
HETATM    2  C   UNL     1       8.034  28.569  57.652  1.00  0.00     0.255 C 
HETATM    3  O   UNL     1       6.849  28.856  57.770  1.00  0.00    -0.268 OA
HETATM    4  H   UNL     1       9.433  27.095  57.338  1.00  0.00     0.163 HD
ENDROOT
BRANCH   1   5
HETATM    5  C   UNL     1       7.508  26.221  57.178  1.00  0.00     0.226 C 
BRANCH   5   6
HETATM    6  C   UNL     1       8.089  24.898  56.653  1.00  0.00     0.239 C 
HETATM    7  N   UNL     1       7.257  24.239  55.766  1.00  0.00    -0.325 N 
HETATM    8  H   UNL     1       6.387  24.715  55.575  1.00  0.00     0.169 HD
HETATM    9  O   UNL     1       9.147  24.476  57.115  1.00  0.00    -0.271 OA
BRANCH   7  10
HETATM   10  C   UNL     1       7.496  23.024  55.085  1.00  0.00     0.041 A 
HETATM   11  C   UNL     1       7.600  23.029  53.675  1.00  0.00    -0.032 A 
HETATM   12  C   UNL     1       7.861  21.816  53.002  1.00  0.00     0.009 A 
HETATM   13  C   UNL     1       8.021  20.623  53.702  1.00  0.00     0.001 A 
HETATM   14  C   UNL     1       7.918  20.622  55.086  1.00  0.00     0.002 A 
HETATM   15  C   UNL     1       7.657  21.812  55.769  1.00  0.00     0.030 A 
BRANCH  11  16
HETATM   16  C   UNL     1       7.414  24.268  52.828  1.00  0.00     0.036 C 
HETATM   17  C   UNL     1       5.948  24.578  52.560  1.00  0.00     0.010 C 
ENDBRANCH  11  16
ENDBRANCH   7  10
ENDBRANCH   5   6
ENDBRANCH   1   5
BRANCH   2  18
HETATM   18  C   UNL     1       9.094  29.560  57.618  1.00  0.00     0.080 A 
HETATM   19  C   UNL     1       9.348  30.642  58.525  1.00  0.00     0.104 A 
HETATM   20  N   UNL     1      10.384  31.386  58.095  1.00  0.00    -0.174 NA
HETATM   21  N   UNL     1      10.776  30.809  56.958  1.00  0.00    -0.288 N 
HETATM   22  H   UNL     1      11.544  31.234  56.447  1.00  0.00     0.188 HD
HETATM   23  C   UNL     1      10.057  29.701  56.632  1.00  0.00     0.128 A 
BRANCH  19  24
HETATM   24  C   UNL     1       8.682  30.980  59.787  1.00  0.00    -0.005 A 
HETATM   25  C   UNL     1       9.211  30.582  61.021  1.00  0.00     0.014 A 
HETATM   26  C   UNL     1       8.583  30.937  62.217  1.00  0.00     0.001 A 
HETATM   27  C   UNL     1       7.418  31.701  62.193  1.00  0.00     0.000 A 
HETATM   28  C   UNL     1       6.883  32.111  60.974  1.00  0.00     0.001 A 
HETATM   29  C   UNL     1       7.513  31.756  59.779  1.00  0.00     0.014 A 
ENDBRANCH  19  24
ENDBRANCH   2  18
TORSDOF 6
ENDMDL
MODEL 2
REMARK VINA RESULT:      -9.3      1.893      8.876
REMARK  6 active torsions:
REMARK  status: ('A' for Active; 'I' for Inactive)
REMARK    1  A    between atoms: C_2  and  C_3 
REMARK    2  A    between atoms: C_4  and  N_5 
REMARK       I    between atoms: N_5  and  C_6 
REMARK    3  A    between atoms: C_6  and  C_7 
REMARK    4  A    between atoms: C_7  and  N_8 
REMARK       I    between atoms: N_8  and  C_9 
REMARK    5  A    between atoms: C_9  and  C_10 
REMARK    6  A    between atoms: C_11  and  C_12 
ROOT
HETATM    1  N   UNL     1       8.770  28.115  56.960  1.00  0.00    -0.348 N 
HETATM    2  C   UNL     1       7.861  27.972  55.927  1.00  0.00     0.255 C 
HETATM    3  O   UNL     1       8.074  28.431  54.811  1.00  0.00    -0.268 OA
HETATM    4  H   UNL     1       8.480  27.824  57.882  1.00  0.00     0.163 HD
ENDROOT
BRANCH   1   5
HETATM    5  C   UNL     1       9.792  29.150  56.875  1.00  0.00     0.226 C 
BRANCH   5   6
HETATM    6  C   UNL     1       9.743  30.265  57.933  1.00  0.00     0.239 C 
HETATM    7  N   UNL     1       8.760  30.083  58.888  1.00  0.00    -0.325 N 
HETATM    8  H   UNL     1       8.213  29.242  58.771  1.00  0.00     0.169 HD
HETATM    9  O   UNL     1      10.465  31.253  57.805  1.00  0.00    -0.271 OA
BRANCH   7  10
HETATM   10  C   UNL     1       8.464  30.899  60.003  1.00  0.00     0.041 A 
HETATM   11  C   UNL     1       7.333  31.746  59.962  1.00  0.00    -0.032 A 
HETATM   12  C   UNL     1       7.030  32.542  61.086  1.00  0.00     0.009 A 
HETATM   13  C   UNL     1       7.821  32.503  62.231  1.00  0.00     0.001 A 
HETATM   14  C   UNL     1       8.931  31.671  62.269  1.00  0.00     0.002 A 
HETATM   15  C   UNL     1       9.249  30.877  61.164  1.00  0.00     0.030 A 
BRANCH  11  16
HETATM   16  C   UNL     1       6.432  31.877  58.754  1.00  0.00     0.036 C 
HETATM   17  C   UNL     1       5.123  32.583  59.075  1.00  0.00     0.010 C 
ENDBRANCH  11  16
ENDBRANCH   7  10
ENDBRANCH   5   6
ENDBRANCH   1   5
BRANCH   2  18
HETATM   18  C   UNL     1       6.660  27.232  56.268  1.00  0.00     0.080 A 
HETATM   19  C   UNL     1       6.301  25.886  55.922  1.00  0.00     0.104 A 
HETATM   20  N   UNL     1       5.061  25.601  56.362  1.00  0.00    -0.174 NA
HETATM   21  N   UNL     1       4.642  26.715  56.963  1.00  0.00    -0.288 N 
HETATM   22  H   UNL     1       3.703  26.724  57.352  1.00  0.00     0.188 HD
HETATM   23  C   UNL     1       5.561  27.717  56.957  1.00  0.00     0.128 A 
BRANCH  19  24
HETATM   24  C   UNL     1       7.084  24.858  55.228  1.00  0.00    -0.005 A 
HETATM   25  C   UNL     1       8.094  24.144  55.885  1.00  0.00     0.014 A 
HETATM   26  C   UNL     1       8.812  23.146  55.221  1.00  0.00     0.001 A 
HETATM   27  C   UNL     1       8.522  22.845  53.892  1.00  0.00     0.000 A 
HETATM   28  C   UNL     1       7.515  23.542  53.227  1.00  0.00     0.001 A 
HETATM   29  C   UNL     1       6.797  24.539  53.893  1.00  0.00     0.014 A 
ENDBRANCH  19  24
ENDBRANCH   2  18
TORSDOF 6
ENDMDL
MODEL 3
REMARK VINA RESULT:      -9.3      2.128      9.208
REMARK  6 active torsions:
REMARK  status: ('A' for Active; 'I' for Inactive)
REMARK    1  A    between atoms: C_2  and  C_3 
REMARK    2  A    between atoms: C_4  and  N_5 
REMARK       I    between atoms: N_5  and  C_6 
REMARK    3  A    between atoms: C_6  and  C_7 
REMARK    4  A    between atoms: C_7  and  N_8 
REMARK       I    between atoms: N_8  and  C_9 
REMARK    5  A    between atoms: C_9  and  C_10 
REMARK    6  A    between atoms: C_11  and  C_12 
ROOT
HETATM    1  N   UNL     1       7.106  27.900  55.753  1.00  0.00    -0.348 N 
HETATM    2  C   UNL     1       7.107  27.584  54.406  1.00  0.00     0.255 C 
HETATM    3  O   UNL     1       8.014  27.933  53.661  1.00  0.00    -0.268 OA
HETATM    4  H   UNL     1       6.272  27.690  56.282  1.00  0.00     0.163 HD
ENDROOT
BRANCH   1   5
HETATM    5  C   UNL     1       7.948  28.989  56.231  1.00  0.00     0.226 C 
BRANCH   5   6
HETATM    6  C   UNL     1       7.997  29.215  57.752  1.00  0.00     0.239 C 
HETATM    7  N   UNL     1       8.218  30.532  58.111  1.00  0.00    -0.325 N 
HETATM    8  H   UNL     1       8.308  31.169  57.333  1.00  0.00     0.169 HD
HETATM    9  O   UNL     1       7.955  28.247  58.509  1.00  0.00    -0.271 OA
BRANCH   7  10
HETATM   10  C   UNL     1       8.294  31.081  59.411  1.00  0.00     0.041 A 
HETATM   11  C   UNL     1       7.204  31.828  59.912  1.00  0.00    -0.032 A 
HETATM   12  C   UNL     1       7.275  32.355  61.219  1.00  0.00     0.009 A 
HETATM   13  C   UNL     1       8.394  32.145  62.020  1.00  0.00     0.001 A 
HETATM   14  C   UNL     1       9.463  31.410  61.526  1.00  0.00     0.002 A 
HETATM   15  C   UNL     1       9.412  30.884  60.233  1.00  0.00     0.030 A 
BRANCH  11  16
HETATM   16  C   UNL     1       5.959  32.132  59.107  1.00  0.00     0.036 C 
HETATM   17  C   UNL     1       4.963  32.992  59.872  1.00  0.00     0.010 C 
ENDBRANCH  11  16
ENDBRANCH   7  10
ENDBRANCH   5   6
ENDBRANCH   1   5
BRANCH   2  18
HETATM   18  C   UNL     1       5.967  26.802  53.961  1.00  0.00     0.080 A 
HETATM   19  C   UNL     1       5.872  25.387  53.747  1.00  0.00     0.104 A 
HETATM   20  N   UNL     1       4.662  25.064  53.252  1.00  0.00    -0.174 NA
HETATM   21  N   UNL     1       4.010  26.223  53.150  1.00  0.00    -0.288 N 
HETATM   22  H   UNL     1       3.069  26.210  52.768  1.00  0.00     0.188 HD
HETATM   23  C   UNL     1       4.730  27.294  53.579  1.00  0.00     0.128 A 
BRANCH  19  24
HETATM   24  C   UNL     1       6.854  24.331  54.018  1.00  0.00    -0.005 A 
HETATM   25  C   UNL     1       7.121  23.902  55.324  1.00  0.00     0.014 A 
HETATM   26  C   UNL     1       8.036  22.875  55.566  1.00  0.00     0.001 A 
HETATM   27  C   UNL     1       8.692  22.260  54.502  1.00  0.00     0.000 A 
HETATM   28  C   UNL     1       8.432  22.671  53.196  1.00  0.00     0.001 A 
HETATM   29  C   UNL     1       7.516  23.697  52.956  1.00  0.00     0.014 A 
ENDBRANCH  19  24
ENDBRANCH   2  18
TORSDOF 6
ENDMDL
MODEL 4
REMARK VINA RESULT:      -9.3      1.955      2.235
REMARK  6 active torsions:
REMARK  status: ('A' for Active; 'I' for Inactive)
REMARK    1  A    between atoms: C_2  and  C_3 
REMARK    2  A    between atoms: C_4  and  N_5 
REMARK       I    between atoms: N_5  and  C_6 
REMARK    3  A    between atoms: C_6  and  C_7 
REMARK    4  A    between atoms: C_7  and  N_8 
REMARK       I    between atoms: N_8  and  C_9 
REMARK    5  A    between atoms: C_9  and  C_10 
REMARK    6  A    between atoms: C_11  and  C_12 
ROOT
HETATM    1  N   UNL     1       6.743  27.780  56.989  1.00  0.00    -0.348 N 
HETATM    2  C   UNL     1       7.325  28.804  57.714  1.00  0.00     0.255 C 
HETATM    3  O   UNL     1       8.303  28.616  58.428  1.00  0.00    -0.268 OA
HETATM    4  H   UNL     1       5.869  27.976  56.521  1.00  0.00     0.163 HD
ENDROOT
BRANCH   1   5
HETATM    5  C   UNL     1       7.004  26.398  57.369  1.00  0.00     0.226 C 
BRANCH   5   6
HETATM    6  C   UNL     1       6.662  25.315  56.333  1.00  0.00     0.239 C 
HETATM    7  N   UNL     1       7.743  24.534  55.967  1.00  0.00    -0.325 N 
HETATM    8  H   UNL     1       8.608  24.771  56.432  1.00  0.00     0.169 HD
HETATM    9  O   UNL     1       5.537  25.286  55.837  1.00  0.00    -0.271 OA
BRANCH   7  10
HETATM   10  C   UNL     1       7.768  23.445  55.066  1.00  0.00     0.041 A 
HETATM   11  C   UNL     1       7.894  23.695  53.681  1.00  0.00    -0.032 A 
HETATM   12  C   UNL     1       7.941  22.604  52.788  1.00  0.00     0.009 A 
HETATM   13  C   UNL     1       7.870  21.292  53.249  1.00  0.00     0.001 A 
HETATM   14  C   UNL     1       7.747  21.050  54.610  1.00  0.00     0.002 A 
HETATM   15  C   UNL     1       7.695  22.118  55.509  1.00  0.00     0.030 A 
BRANCH  11  16
HETATM   16  C   UNL     1       7.950  25.085  53.084  1.00  0.00     0.036 C 
HETATM   17  C   UNL     1       6.916  25.292  51.987  1.00  0.00     0.010 C 
ENDBRANCH  11  16
ENDBRANCH   7  10
ENDBRANCH   5   6
ENDBRANCH   1   5
BRANCH   2  18
HETATM   18  C   UNL     1       6.700  30.104  57.547  1.00  0.00     0.080 A 
HETATM   19  C   UNL     1       6.810  31.272  58.374  1.00  0.00     0.104 A 
HETATM   20  N   UNL     1       6.004  32.249  57.920  1.00  0.00    -0.174 NA
HETATM   21  N   UNL     1       5.402  31.732  56.848  1.00  0.00    -0.288 N 
HETATM   22  H   UNL     1       4.721  32.306  56.359  1.00  0.00     0.188 HD
HETATM   23  C   UNL     1       5.793  30.460  56.563  1.00  0.00     0.128 A 
BRANCH  19  24
HETATM   24  C   UNL     1       7.659  31.511  59.546  1.00  0.00    -0.005 A 
HETATM   25  C   UNL     1       9.032  31.754  59.413  1.00  0.00     0.014 A 
HETATM   26  C   UNL     1       9.824  32.011  60.535  1.00  0.00     0.001 A 
HETATM   27  C   UNL     1       9.250  32.035  61.804  1.00  0.00     0.000 A 
HETATM   28  C   UNL     1       7.884  31.802  61.952  1.00  0.00     0.001 A 
HETATM   29  C   UNL     1       7.093  31.546  60.829  1.00  0.00     0.014 A 
ENDBRANCH  19  24
ENDBRANCH   2  18
TORSDOF 6
ENDMDL
MODEL 5
REMARK VINA RESULT:      -9.1      1.949      8.692
REMARK  6 active torsions:
REMARK  status: ('A' for Active; 'I' for Inactive)
REMARK    1  A    between atoms: C_2  and  C_3 
REMARK    2  A    between atoms: C_4  and  N_5 
REMARK       I    between atoms: N_5  and  C_6 
REMARK    3  A    between atoms: C_6  and  C_7 
REMARK    4  A    between atoms: C_7  and  N_8 
REMARK       I    between atoms: N_8  and  C_9 
REMARK    5  A    between atoms: C_9  and  C_10 
REMARK    6  A    between atoms: C_11  and  C_12 
ROOT
HETATM    1  N   UNL     1       6.382  27.060  55.475  1.00  0.00    -0.348 N 
HETATM    2  C   UNL     1       6.079  25.780  55.049  1.00  0.00     0.255 C 
HETATM    3  O   UNL     1       5.244  25.089  55.620  1.00  0.00    -0.268 OA
HETATM    4  H   UNL     1       7.165  27.526  55.038  1.00  0.00     0.163 HD
ENDROOT
BRANCH   1   5
HETATM    5  C   UNL     1       6.036  27.462  56.832  1.00  0.00     0.226 C 
BRANCH   5   6
HETATM    6  C   UNL     1       7.156  28.086  57.681  1.00  0.00     0.239 C 
HETATM    7  N   UNL     1       7.088  29.465  57.764  1.00  0.00    -0.325 N 
HETATM    8  H   UNL     1       6.311  29.877  57.267  1.00  0.00     0.169 HD
HETATM    9  O   UNL     1       8.057  27.370  58.114  1.00  0.00    -0.271 OA
BRANCH   7  10
HETATM   10  C   UNL     1       7.938  30.339  58.478  1.00  0.00     0.041 A 
HETATM   11  C   UNL     1       9.234  30.605  57.980  1.00  0.00    -0.032 A 
HETATM   12  C   UNL     1      10.071  31.496  58.685  1.00  0.00     0.009 A 
HETATM   13  C   UNL     1       9.640  32.116  59.855  1.00  0.00     0.001 A 
HETATM   14  C   UNL     1       8.368  31.852  60.341  1.00  0.00     0.002 A 
HETATM   15  C   UNL     1       7.526  30.971  59.659  1.00  0.00     0.030 A 
BRANCH  11  16
HETATM   16  C   UNL     1       9.799  29.958  56.734  1.00  0.00     0.036 C 
HETATM   17  C   UNL     1      11.241  29.505  56.914  1.00  0.00     0.010 C 
ENDBRANCH  11  16
ENDBRANCH   7  10
ENDBRANCH   5   6
ENDBRANCH   1   5
BRANCH   2  18
HETATM   18  C   UNL     1       6.811  25.336  53.876  1.00  0.00     0.080 A 
HETATM   19  C   UNL     1       7.604  24.153  53.701  1.00  0.00     0.104 A 
HETATM   20  N   UNL     1       8.188  24.151  52.488  1.00  0.00    -0.174 NA
HETATM   21  N   UNL     1       7.789  25.285  51.910  1.00  0.00    -0.288 N 
HETATM   22  H   UNL     1       8.140  25.496  50.980  1.00  0.00     0.188 HD
HETATM   23  C   UNL     1       6.948  26.024  52.682  1.00  0.00     0.128 A 
BRANCH  19  24
HETATM   24  C   UNL     1       7.806  23.020  54.610  1.00  0.00    -0.005 A 
HETATM   25  C   UNL     1       7.676  21.698  54.167  1.00  0.00     0.014 A 
HETATM   26  C   UNL     1       7.901  20.627  55.036  1.00  0.00     0.001 A 
HETATM   27  C   UNL     1       8.267  20.866  56.358  1.00  0.00     0.000 A 
HETATM   28  C   UNL     1       8.408  22.176  56.812  1.00  0.00     0.001 A 
HETATM   29  C   UNL     1       8.183  23.246  55.943  1.00  0.00     0.014 A 
ENDBRANCH  19  24
ENDBRANCH   2  18
TORSDOF 6
ENDMDL
MODEL 6
REMARK VINA RESULT:      -8.9      2.179      8.902
REMARK  6 active torsions:
REMARK  status: ('A' for Active; 'I' for Inactive)
REMARK    1  A    between atoms: C_2  and  C_3 
REMARK    2  A    between atoms: C_4  and  N_5 
REMARK       I    between atoms: N_5  and  C_6 
REMARK    3  A    between atoms: C_6  and  C_7 
REMARK    4  A    between atoms: C_7  and  N_8 
REMARK       I    between atoms: N_8  and  C_9 
REMARK    5  A    between atoms: C_9  and  C_10 
REMARK    6  A    between atoms: C_11  and  C_12 
ROOT
HETATM    1  N   UNL     1       5.908  28.391  55.765  1.00  0.00    -0.348 N 
HETATM    2  C   UNL     1       6.518  27.712  54.725  1.00  0.00     0.255 C 
HETATM    3  O   UNL     1       7.680  27.929  54.405  1.00  0.00    -0.268 OA
HETATM    4  H   UNL     1       4.916  28.254  55.895  1.00  0.00     0.163 HD
ENDROOT
BRANCH   1   5
HETATM    5  C   UNL     1       6.477  29.651  56.225  1.00  0.00     0.226 C 
BRANCH   5   6
HETATM    6  C   UNL     1       7.182  29.639  57.592  1.00  0.00     0.239 C 
HETATM    7  N   UNL     1       7.440  30.901  58.096  1.00  0.00    -0.325 N 
HETATM    8  H   UNL     1       7.125  31.659  57.508  1.00  0.00     0.169 HD
HETATM    9  O   UNL     1       7.554  28.569  58.071  1.00  0.00    -0.271 OA
BRANCH   7  10
HETATM   10  C   UNL     1       8.045  31.242  59.327  1.00  0.00     0.041 A 
HETATM   11  C   UNL     1       9.416  31.585  59.353  1.00  0.00    -0.032 A 
HETATM   12  C   UNL     1      10.010  31.946  60.581  1.00  0.00     0.009 A 
HETATM   13  C   UNL     1       9.268  31.974  61.760  1.00  0.00     0.001 A 
HETATM   14  C   UNL     1       7.922  31.637  61.730  1.00  0.00     0.002 A 
HETATM   15  C   UNL     1       7.318  31.273  60.525  1.00  0.00     0.030 A 
BRANCH  11  16
HETATM   16  C   UNL     1      10.308  31.556  58.131  1.00  0.00     0.036 C 
HETATM   17  C   UNL     1      10.752  30.148  57.765  1.00  0.00     0.010 C 
ENDBRANCH  11  16
ENDBRANCH   7  10
ENDBRANCH   5   6
ENDBRANCH   1   5
BRANCH   2  18
HETATM   18  C   UNL     1       5.682  26.725  54.067  1.00  0.00     0.080 A 
HETATM   19  C   UNL     1       5.867  25.305  53.969  1.00  0.00     0.104 A 
HETATM   20  N   UNL     1       4.909  24.755  53.200  1.00  0.00    -0.174 NA
HETATM   21  N   UNL     1       4.142  25.777  52.819  1.00  0.00    -0.288 N 
HETATM   22  H   UNL     1       3.358  25.583  52.202  1.00  0.00     0.188 HD
HETATM   23  C   UNL     1       4.541  26.976  53.323  1.00  0.00     0.128 A 
BRANCH  19  24
HETATM   24  C   UNL     1       6.884  24.450  54.591  1.00  0.00    -0.005 A 
HETATM   25  C   UNL     1       6.990  24.338  55.983  1.00  0.00     0.014 A 
HETATM   26  C   UNL     1       7.943  23.496  56.562  1.00  0.00     0.001 A 
HETATM   27  C   UNL     1       8.799  22.751  55.754  1.00  0.00     0.000 A 
HETATM   28  C   UNL     1       8.701  22.846  54.367  1.00  0.00     0.001 A 
HETATM   29  C   UNL     1       7.747  23.687  53.789  1.00  0.00     0.014 A 
ENDBRANCH  19  24
ENDBRANCH   2  18
TORSDOF 6
ENDMDL
MODEL 7
REMARK VINA RESULT:      -8.9      4.425      8.414
REMARK  6 active torsions:
REMARK  status: ('A' for Active; 'I' for Inactive)
REMARK    1  A    between atoms: C_2  and  C_3 
REMARK    2  A    between atoms: C_4  and  N_5 
REMARK       I    between atoms: N_5  and  C_6 
REMARK    3  A    between atoms: C_6  and  C_7 
REMARK    4  A    between atoms: C_7  and  N_8 
REMARK       I    between atoms: N_8  and  C_9 
REMARK    5  A    between atoms: C_9  and  C_10 
REMARK    6  A    between atoms: C_11  and  C_12 
ROOT
HETATM    1  N   UNL     1       5.660  25.109  54.317  1.00  0.00    -0.348 N 
HETATM    2  C   UNL     1       7.013  25.387  54.399  1.00  0.00     0.255 C 
HETATM    3  O   UNL     1       7.636  25.853  53.453  1.00  0.00    -0.268 OA
HETATM    4  H   UNL     1       5.236  24.613  55.088  1.00  0.00     0.163 HD
ENDROOT
BRANCH   1   5
HETATM    5  C   UNL     1       5.039  24.968  53.006  1.00  0.00     0.226 C 
BRANCH   5   6
HETATM    6  C   UNL     1       4.762  26.262  52.224  1.00  0.00     0.239 C 
HETATM    7  N   UNL     1       5.039  26.165  50.872  1.00  0.00    -0.325 N 
HETATM    8  H   UNL     1       5.377  25.259  50.578  1.00  0.00     0.169 HD
HETATM    9  O   UNL     1       4.438  27.280  52.833  1.00  0.00    -0.271 OA
BRANCH   7  10
HETATM   10  C   UNL     1       4.874  27.152  49.874  1.00  0.00     0.041 A 
HETATM   11  C   UNL     1       4.113  26.850  48.722  1.00  0.00    -0.032 A 
HETATM   12  C   UNL     1       3.932  27.846  47.739  1.00  0.00     0.009 A 
HETATM   13  C   UNL     1       4.484  29.116  47.889  1.00  0.00     0.001 A 
HETATM   14  C   UNL     1       5.230  29.408  49.022  1.00  0.00     0.002 A 
HETATM   15  C   UNL     1       5.424  28.434  50.004  1.00  0.00     0.030 A 
BRANCH  11  16
HETATM   16  C   UNL     1       3.498  25.493  48.457  1.00  0.00     0.036 C 
HETATM   17  C   UNL     1       2.810  25.417  47.102  1.00  0.00     0.010 C 
ENDBRANCH  11  16
ENDBRANCH   7  10
ENDBRANCH   5   6
ENDBRANCH   1   5
BRANCH   2  18
HETATM   18  C   UNL     1       7.618  25.100  55.687  1.00  0.00     0.080 A 
HETATM   19  C   UNL     1       8.145  23.860  56.181  1.00  0.00     0.104 A 
HETATM   20  N   UNL     1       8.543  23.991  57.460  1.00  0.00    -0.174 NA
HETATM   21  N   UNL     1       8.281  25.260  57.775  1.00  0.00    -0.288 N 
HETATM   22  H   UNL     1       8.487  25.570  58.721  1.00  0.00     0.188 HD
HETATM   23  C   UNL     1       7.748  25.978  56.750  1.00  0.00     0.128 A 
BRANCH  19  24
HETATM   24  C   UNL     1       8.317  22.576  55.491  1.00  0.00    -0.005 A 
HETATM   25  C   UNL     1       8.204  21.360  56.177  1.00  0.00     0.014 A 
HETATM   26  C   UNL     1       8.338  20.144  55.502  1.00  0.00     0.001 A 
HETATM   27  C   UNL     1       8.582  20.130  54.131  1.00  0.00     0.000 A 
HETATM   28  C   UNL     1       8.690  21.332  53.433  1.00  0.00     0.001 A 
HETATM   29  C   UNL     1       8.554  22.547  54.109  1.00  0.00     0.014 A 
ENDBRANCH  19  24
ENDBRANCH   2  18
TORSDOF 6
ENDMDL
MODEL 8
REMARK VINA RESULT:      -8.8      2.070      8.673
REMARK  6 active torsions:
REMARK  status: ('A' for Active; 'I' for Inactive)
REMARK    1  A    between atoms: C_2  and  C_3 
REMARK    2  A    between atoms: C_4  and  N_5 
REMARK       I    between atoms: N_5  and  C_6 
REMARK    3  A    between atoms: C_6  and  C_7 
REMARK    4  A    between atoms: C_7  and  N_8 
REMARK       I    between atoms: N_8  and  C_9 
REMARK    5  A    between atoms: C_9  and  C_10 
REMARK    6  A    between atoms: C_11  and  C_12 
ROOT
HETATM    1  N   UNL     1       5.476  26.589  55.953  1.00  0.00    -0.348 N 
HETATM    2  C   UNL     1       6.048  26.902  54.733  1.00  0.00     0.255 C 
HETATM    3  O   UNL     1       6.922  27.754  54.629  1.00  0.00    -0.268 OA
HETATM    4  H   UNL     1       4.678  25.970  55.950  1.00  0.00     0.163 HD
ENDROOT
BRANCH   1   5
HETATM    5  C   UNL     1       5.589  27.531  57.058  1.00  0.00     0.226 C 
BRANCH   5   6
HETATM    6  C   UNL     1       7.009  27.867  57.544  1.00  0.00     0.239 C 
HETATM    7  N   UNL     1       7.454  29.114  57.143  1.00  0.00    -0.325 N 
HETATM    8  H   UNL     1       6.789  29.639  56.594  1.00  0.00     0.169 HD
HETATM    9  O   UNL     1       7.666  27.008  58.130  1.00  0.00    -0.271 OA
BRANCH   7  10
HETATM   10  C   UNL     1       8.689  29.735  57.437  1.00  0.00     0.041 A 
HETATM   11  C   UNL     1       8.736  30.753  58.416  1.00  0.00    -0.032 A 
HETATM   12  C   UNL     1       9.975  31.355  58.722  1.00  0.00     0.009 A 
HETATM   13  C   UNL     1      11.146  30.959  58.080  1.00  0.00     0.001 A 
HETATM   14  C   UNL     1      11.096  29.959  57.120  1.00  0.00     0.002 A 
HETATM   15  C   UNL     1       9.878  29.354  56.801  1.00  0.00     0.030 A 
BRANCH  11  16
HETATM   16  C   UNL     1       7.514  31.269  59.144  1.00  0.00     0.036 C 
HETATM   17  C   UNL     1       7.854  32.338  60.173  1.00  0.00     0.010 C 
ENDBRANCH  11  16
ENDBRANCH   7  10
ENDBRANCH   5   6
ENDBRANCH   1   5
BRANCH   2  18
HETATM   18  C   UNL     1       5.544  26.137  53.607  1.00  0.00     0.080 A 
HETATM   19  C   UNL     1       5.946  24.839  53.145  1.00  0.00     0.104 A 
HETATM   20  N   UNL     1       5.290  24.516  52.015  1.00  0.00    -0.174 NA
HETATM   21  N   UNL     1       4.502  25.562  51.761  1.00  0.00    -0.288 N 
HETATM   22  H   UNL     1       3.927  25.535  50.923  1.00  0.00     0.188 HD
HETATM   23  C   UNL     1       4.594  26.553  52.688  1.00  0.00     0.128 A 
BRANCH  19  24
HETATM   24  C   UNL     1       6.891  23.887  53.737  1.00  0.00    -0.005 A 
HETATM   25  C   UNL     1       6.906  23.637  55.115  1.00  0.00     0.014 A 
HETATM   26  C   UNL     1       7.791  22.705  55.663  1.00  0.00     0.001 A 
HETATM   27  C   UNL     1       8.669  22.006  54.837  1.00  0.00     0.000 A 
HETATM   28  C   UNL     1       8.661  22.239  53.462  1.00  0.00     0.001 A 
HETATM   29  C   UNL     1       7.775  23.170  52.916  1.00  0.00     0.014 A 
ENDBRANCH  19  24
ENDBRANCH   2  18
TORSDOF 6
ENDMDL
MODEL 9
REMARK VINA RESULT:      -8.8      4.480      8.336
REMARK  6 active torsions:
REMARK  status: ('A' for Active; 'I' for Inactive)
REMARK    1  A    between atoms: C_2  and  C_3 
REMARK    2  A    between atoms: C_4  and  N_5 
REMARK       I    between atoms: N_5  and  C_6 
REMARK    3  A    between atoms: C_6  and  C_7 
REMARK    4  A    between atoms: C_7  and  N_8 
REMARK       I    between atoms: N_8  and  C_9 
REMARK    5  A    between atoms: C_9  and  C_10 
REMARK    6  A    between atoms: C_11  and  C_12 
ROOT
HETATM    1  N   UNL     1       7.212  26.234  54.151  1.00  0.00    -0.348 N 
HETATM    2  C   UNL     1       6.551  25.498  55.118  1.00  0.00     0.255 C 
HETATM    3  O   UNL     1       5.343  25.299  55.065  1.00  0.00    -0.268 OA
HETATM    4  H   UNL     1       8.181  26.464  54.319  1.00  0.00     0.163 HD
ENDROOT
BRANCH   1   5
HETATM    5  C   UNL     1       6.450  27.129  53.290  1.00  0.00     0.226 C 
BRANCH   5   6
HETATM    6  C   UNL     1       6.145  26.635  51.867  1.00  0.00     0.239 C 
HETATM    7  N   UNL     1       5.212  27.406  51.198  1.00  0.00    -0.325 N 
HETATM    8  H   UNL     1       4.862  28.193  51.726  1.00  0.00     0.169 HD
HETATM    9  O   UNL     1       6.637  25.578  51.475  1.00  0.00    -0.271 OA
BRANCH   7  10
HETATM   10  C   UNL     1       4.730  27.245  49.879  1.00  0.00     0.041 A 
HETATM   11  C   UNL     1       4.947  28.271  48.932  1.00  0.00    -0.032 A 
HETATM   12  C   UNL     1       4.484  28.096  47.611  1.00  0.00     0.009 A 
HETATM   13  C   UNL     1       3.825  26.931  47.227  1.00  0.00     0.001 A 
HETATM   14  C   UNL     1       3.614  25.924  48.160  1.00  0.00     0.002 A 
HETATM   15  C   UNL     1       4.062  26.082  49.473  1.00  0.00     0.030 A 
BRANCH  11  16
HETATM   16  C   UNL     1       5.627  29.582  49.262  1.00  0.00     0.036 C 
HETATM   17  C   UNL     1       5.003  30.764  48.534  1.00  0.00     0.010 C 
ENDBRANCH  11  16
ENDBRANCH   7  10
ENDBRANCH   5   6
ENDBRANCH   1   5
BRANCH   2  18
HETATM   18  C   UNL     1       7.399  24.975  56.174  1.00  0.00     0.080 A 
HETATM   19  C   UNL     1       8.026  23.688  56.275  1.00  0.00     0.104 A 
HETATM   20  N   UNL     1       8.664  23.565  57.453  1.00  0.00    -0.174 NA
HETATM   21  N   UNL     1       8.454  24.722  58.084  1.00  0.00    -0.288 N 
HETATM   22  H   UNL     1       8.836  24.833  59.019  1.00  0.00     0.188 HD
HETATM   23  C   UNL     1       7.723  25.612  57.360  1.00  0.00     0.128 A 
BRANCH  19  24
HETATM   24  C   UNL     1       8.075  22.593  55.300  1.00  0.00    -0.005 A 
HETATM   25  C   UNL     1       8.019  21.254  55.707  1.00  0.00     0.014 A 
HETATM   26  C   UNL     1       8.035  20.220  54.766  1.00  0.00     0.001 A 
HETATM   27  C   UNL     1       8.101  20.515  53.406  1.00  0.00     0.000 A 
HETATM   28  C   UNL     1       8.150  21.843  52.986  1.00  0.00     0.001 A 
HETATM   29  C   UNL     1       8.133  22.875  53.927  1.00  0.00     0.014 A 
ENDBRANCH  19  24
ENDBRANCH   2  18
TORSDOF 6
ENDMDL
MODEL 10
REMARK VINA RESULT:      -8.7      3.138      4.688
REMARK  6 active torsions:
REMARK  status: ('A' for Active; 'I' for Inactive)
REMARK    1  A    between atoms: C_2  and  C_3 
REMARK    2  A    between atoms: C_4  and  N_5 
REMARK       I    between atoms: N_5  and  C_6 
REMARK    3  A    between atoms: C_6  and  C_7 
REMARK    4  A    between atoms: C_7  and  N_8 
REMARK       I    between atoms: N_8  and  C_9 
REMARK    5  A    between atoms: C_9  and  C_10 
REMARK    6  A    between atoms: C_11  and  C_12 
ROOT
HETATM    1  N   UNL     1       4.212  27.797  54.552  1.00  0.00    -0.348 N 
HETATM    2  C   UNL     1       4.308  29.174  54.639  1.00  0.00     0.255 C 
HETATM    3  O   UNL     1       4.468  29.875  53.646  1.00  0.00    -0.268 OA
HETATM    4  H   UNL     1       4.205  27.273  55.415  1.00  0.00     0.163 HD
ENDROOT
BRANCH   1   5
HETATM    5  C   UNL     1       4.709  27.120  53.361  1.00  0.00     0.226 C 
BRANCH   5   6
HETATM    6  C   UNL     1       6.037  26.357  53.498  1.00  0.00     0.239 C 
HETATM    7  N   UNL     1       5.898  25.092  54.039  1.00  0.00    -0.325 N 
HETATM    8  H   UNL     1       4.947  24.834  54.264  1.00  0.00     0.169 HD
HETATM    9  O   UNL     1       7.094  26.929  53.238  1.00  0.00    -0.271 OA
BRANCH   7  10
HETATM   10  C   UNL     1       6.904  24.127  54.274  1.00  0.00     0.041 A 
HETATM   11  C   UNL     1       7.369  23.918  55.593  1.00  0.00    -0.032 A 
HETATM   12  C   UNL     1       8.357  22.939  55.825  1.00  0.00     0.009 A 
HETATM   13  C   UNL     1       8.876  22.176  54.781  1.00  0.00     0.001 A 
HETATM   14  C   UNL     1       8.417  22.384  53.488  1.00  0.00     0.002 A 
HETATM   15  C   UNL     1       7.441  23.352  53.238  1.00  0.00     0.030 A 
BRANCH  11  16
HETATM   16  C   UNL     1       6.887  24.716  56.785  1.00  0.00     0.036 C 
HETATM   17  C   UNL     1       7.913  25.734  57.260  1.00  0.00     0.010 C 
ENDBRANCH  11  16
ENDBRANCH   7  10
ENDBRANCH   5   6
ENDBRANCH   1   5
BRANCH   2  18
HETATM   18  C   UNL     1       4.187  29.712  55.982  1.00  0.00     0.080 A 
HETATM   19  C   UNL     1       5.193  29.839  56.997  1.00  0.00     0.104 A 
HETATM   20  N   UNL     1       4.657  30.312  58.137  1.00  0.00    -0.174 NA
HETATM   21  N   UNL     1       3.361  30.480  57.867  1.00  0.00    -0.288 N 
HETATM   22  H   UNL     1       2.757  30.814  58.612  1.00  0.00     0.188 HD
HETATM   23  C   UNL     1       3.025  30.159  56.588  1.00  0.00     0.128 A 
BRANCH  19  24
HETATM   24  C   UNL     1       6.633  29.565  56.927  1.00  0.00    -0.005 A 
HETATM   25  C   UNL     1       7.261  29.278  55.709  1.00  0.00     0.014 A 
HETATM   26  C   UNL     1       8.638  29.049  55.651  1.00  0.00     0.001 A 
HETATM   27  C   UNL     1       9.405  29.111  56.813  1.00  0.00     0.000 A 
HETATM   28  C   UNL     1       8.795  29.401  58.032  1.00  0.00     0.001 A 
HETATM   29  C   UNL     1       7.418  29.631  58.087  1.00  0.00     0.014 A 
ENDBRANCH  19  24
ENDBRANCH   2  18
TORSDOF 6
ENDMDL
