MODEL 1
REMARK VINA RESULT:      -8.2      0.000      0.000
REMARK  5 active torsions:
REMARK  status: ('A' for Active; 'I' for Inactive)
REMARK    1  A    between atoms: C_2  and  O_3 
REMARK    2  A    between atoms: C_4  and  C_5 
REMARK    3  A    between atoms: C_5  and  O_6 
REMARK    4  A    between atoms: C_9  and  C_10 
REMARK    5  A    between atoms: C_22  and  O_23 
ROOT
HETATM    1  C   UNL     1       5.692  26.814  52.349  1.00  0.00     0.047 C 
HETATM    2  C   UNL     1       6.266  27.793  53.386  1.00  0.00     0.073 C 
HETATM    3  C   UNL     1       7.643  27.295  53.938  1.00  0.00     0.133 C 
HETATM    4  C   UNL     1       7.613  26.163  55.010  1.00  0.00     0.074 C 
HETATM    5  C   UNL     1       6.355  26.184  55.806  1.00  0.00     0.030 A 
HETATM    6  C   UNL     1       5.295  27.030  55.554  1.00  0.00     0.042 A 
HETATM    7  N   UNL     1       4.357  26.791  56.518  1.00  0.00    -0.279 N 
HETATM    8  H   UNL     1       3.454  27.237  56.650  1.00  0.00     0.189 HD
HETATM    9  N   UNL     1       4.744  25.845  57.401  1.00  0.00    -0.149 NA
HETATM   10  C   UNL     1       5.955  25.518  56.965  1.00  0.00     0.190 A 
HETATM   11  C   UNL     1       5.211  28.062  54.495  1.00  0.00     0.097 C 
ENDROOT
BRANCH   4  12
HETATM   12  C   UNL     1       7.811  24.771  54.412  1.00  0.00    -0.048 A 
HETATM   13  C   UNL     1       8.551  23.838  55.169  1.00  0.00     0.009 A 
HETATM   14  C   UNL     1       8.787  22.545  54.694  1.00  0.00     0.024 A 
HETATM   15  C   UNL     1       8.294  22.164  53.452  1.00  0.00     0.034 A 
HETATM   16 CL   UNL     1       8.582  20.573  52.864  1.00  0.00    -0.084 Cl
HETATM   17  C   UNL     1       7.566  23.066  52.683  1.00  0.00     0.024 A 
HETATM   18  C   UNL     1       7.326  24.359  53.160  1.00  0.00     0.009 A 
ENDBRANCH   4  12
BRANCH   3  19
HETATM   19  C   UNL     1       8.450  28.466  54.471  1.00  0.00     0.266 C 
HETATM   20  O   UNL     1       9.518  28.810  53.977  1.00  0.00    -0.265 OA
BRANCH  19  21
HETATM   21  O   UNL     1       7.854  29.077  55.527  1.00  0.00    -0.326 OA
HETATM   22  C   UNL     1       8.735  29.379  56.610  1.00  0.00     0.213 C 
ENDBRANCH  19  21
ENDBRANCH   3  19
BRANCH   2  23
HETATM   23  O   UNL     1       6.443  29.029  52.665  1.00  0.00    -0.389 OA
HETATM   24  H   UNL     1       6.324  28.857  51.713  1.00  0.00     0.210 HD
ENDBRANCH   2  23
BRANCH  10  25
HETATM   25  O   UNL     1       6.599  24.617  57.697  1.00  0.00    -0.343 OA
HETATM   26  H   UNL     1       7.464  25.023  57.878  1.00  0.00     0.219 HD
ENDBRANCH  10  25
TORSDOF 5
ENDMDL
MODEL 2
REMARK VINA RESULT:      -8.0     10.395     12.825
REMARK  5 active torsions:
REMARK  status: ('A' for Active; 'I' for Inactive)
REMARK    1  A    between atoms: C_2  and  O_3 
REMARK    2  A    between atoms: C_4  and  C_5 
REMARK    3  A    between atoms: C_5  and  O_6 
REMARK    4  A    between atoms: C_9  and  C_10 
REMARK    5  A    between atoms: C_22  and  O_23 
ROOT
HETATM    1  C   UNL     1       6.137  37.083  63.027  1.00  0.00     0.047 C 
HETATM    2  C   UNL     1       5.147  36.767  64.160  1.00  0.00     0.073 C 
HETATM    3  C   UNL     1       5.469  35.389  64.828  1.00  0.00     0.133 C 
HETATM    4  C   UNL     1       5.020  34.105  64.066  1.00  0.00     0.074 C 
HETATM    5  C   UNL     1       3.831  34.356  63.206  1.00  0.00     0.030 A 
HETATM    6  C   UNL     1       3.261  35.598  63.019  1.00  0.00     0.042 A 
HETATM    7  N   UNL     1       2.171  35.418  62.216  1.00  0.00    -0.279 N 
HETATM    8  H   UNL     1       1.508  36.111  61.880  1.00  0.00     0.189 HD
HETATM    9  N   UNL     1       1.980  34.126  61.875  1.00  0.00    -0.149 NA
HETATM   10  C   UNL     1       2.974  33.509  62.502  1.00  0.00     0.190 A 
HETATM   11  C   UNL     1       3.690  36.877  63.631  1.00  0.00     0.097 C 
ENDROOT
BRANCH   4  12
HETATM   12  C   UNL     1       6.137  33.494  63.221  1.00  0.00    -0.048 A 
HETATM   13  C   UNL     1       7.186  32.842  63.902  1.00  0.00     0.009 A 
HETATM   14  C   UNL     1       8.251  32.262  63.208  1.00  0.00     0.024 A 
HETATM   15  C   UNL     1       8.290  32.330  61.820  1.00  0.00     0.034 A 
HETATM   16 CL   UNL     1       9.600  31.618  60.962  1.00  0.00    -0.084 Cl
HETATM   17  C   UNL     1       7.272  32.972  61.123  1.00  0.00     0.024 A 
HETATM   18  C   UNL     1       6.203  33.548  61.819  1.00  0.00     0.009 A 
ENDBRANCH   4  12
BRANCH   3  19
HETATM   19  C   UNL     1       4.915  35.349  66.242  1.00  0.00     0.266 C 
HETATM   20  O   UNL     1       3.924  35.987  66.580  1.00  0.00    -0.265 OA
BRANCH  19  21
HETATM   21  O   UNL     1       5.626  34.534  67.062  1.00  0.00    -0.326 OA
HETATM   22  C   UNL     1       5.630  34.932  68.434  1.00  0.00     0.213 C 
ENDBRANCH  19  21
ENDBRANCH   3  19
BRANCH   2  23
HETATM   23  O   UNL     1       5.329  37.831  65.114  1.00  0.00    -0.389 OA
HETATM   24  H   UNL     1       4.800  38.600  64.833  1.00  0.00     0.210 HD
ENDBRANCH   2  23
BRANCH  10  25
HETATM   25  O   UNL     1       2.997  32.188  62.372  1.00  0.00    -0.343 OA
HETATM   26  H   UNL     1       3.916  31.939  62.572  1.00  0.00     0.219 HD
ENDBRANCH  10  25
TORSDOF 5
ENDMDL
MODEL 3
REMARK VINA RESULT:      -7.9      2.380      4.052
REMARK  5 active torsions:
REMARK  status: ('A' for Active; 'I' for Inactive)
REMARK    1  A    between atoms: C_2  and  O_3 
REMARK    2  A    between atoms: C_4  and  C_5 
REMARK    3  A    between atoms: C_5  and  O_6 
REMARK    4  A    between atoms: C_9  and  C_10 
REMARK    5  A    between atoms: C_22  and  O_23 
ROOT
HETATM    1  C   UNL     1       5.115  26.584  56.947  1.00  0.00     0.047 C 
HETATM    2  C   UNL     1       4.868  27.914  56.216  1.00  0.00     0.073 C 
HETATM    3  C   UNL     1       5.106  27.769  54.676  1.00  0.00     0.133 C 
HETATM    4  C   UNL     1       6.584  27.761  54.181  1.00  0.00     0.074 C 
HETATM    5  C   UNL     1       7.481  28.523  55.095  1.00  0.00     0.030 A 
HETATM    6  C   UNL     1       7.076  29.075  56.291  1.00  0.00     0.042 A 
HETATM    7  N   UNL     1       8.155  29.731  56.812  1.00  0.00    -0.279 N 
HETATM    8  H   UNL     1       8.220  30.261  57.676  1.00  0.00     0.189 HD
HETATM    9  N   UNL     1       9.245  29.656  56.019  1.00  0.00    -0.149 NA
HETATM   10  C   UNL     1       8.806  28.948  54.985  1.00  0.00     0.190 A 
HETATM   11  C   UNL     1       5.715  29.040  56.873  1.00  0.00     0.097 C 
ENDROOT
BRANCH   4  12
HETATM   12  C   UNL     1       7.140  26.351  53.986  1.00  0.00    -0.048 A 
HETATM   13  C   UNL     1       7.286  25.887  52.662  1.00  0.00     0.009 A 
HETATM   14  C   UNL     1       7.778  24.607  52.392  1.00  0.00     0.024 A 
HETATM   15  C   UNL     1       8.126  23.766  53.443  1.00  0.00     0.034 A 
HETATM   16 CL   UNL     1       8.732  22.189  53.115  1.00  0.00    -0.084 Cl
HETATM   17  C   UNL     1       7.987  24.195  54.758  1.00  0.00     0.024 A 
HETATM   18  C   UNL     1       7.498  25.479  55.027  1.00  0.00     0.009 A 
ENDBRANCH   4  12
BRANCH   3  19
HETATM   19  C   UNL     1       4.334  28.838  53.923  1.00  0.00     0.266 C 
HETATM   20  O   UNL     1       4.624  30.028  53.984  1.00  0.00    -0.265 OA
BRANCH  19  21
HETATM   21  O   UNL     1       3.315  28.328  53.185  1.00  0.00    -0.326 OA
HETATM   22  C   UNL     1       3.115  28.972  51.927  1.00  0.00     0.213 C 
ENDBRANCH  19  21
ENDBRANCH   3  19
BRANCH   2  23
HETATM   23  O   UNL     1       3.485  28.223  56.474  1.00  0.00    -0.389 OA
HETATM   24  H   UNL     1       3.335  29.170  56.295  1.00  0.00     0.210 HD
ENDBRANCH   2  23
BRANCH  10  25
HETATM   25  O   UNL     1       9.685  28.760  54.008  1.00  0.00    -0.343 OA
HETATM   26  H   UNL     1      10.105  29.629  53.887  1.00  0.00     0.219 HD
ENDBRANCH  10  25
TORSDOF 5
ENDMDL
MODEL 4
REMARK VINA RESULT:      -7.8      2.603      3.694
REMARK  5 active torsions:
REMARK  status: ('A' for Active; 'I' for Inactive)
REMARK    1  A    between atoms: C_2  and  O_3 
REMARK    2  A    between atoms: C_4  and  C_5 
REMARK    3  A    between atoms: C_5  and  O_6 
REMARK    4  A    between atoms: C_9  and  C_10 
REMARK    5  A    between atoms: C_22  and  O_23 
ROOT
HETATM    1  C   UNL     1       8.240  27.792  53.822  1.00  0.00     0.047 C 
HETATM    2  C   UNL     1       6.770  28.198  54.020  1.00  0.00     0.073 C 
HETATM    3  C   UNL     1       5.957  27.066  54.731  1.00  0.00     0.133 C 
HETATM    4  C   UNL     1       5.513  25.852  53.860  1.00  0.00     0.074 C 
HETATM    5  C   UNL     1       5.341  26.228  52.429  1.00  0.00     0.030 A 
HETATM    6  C   UNL     1       5.644  27.472  51.915  1.00  0.00     0.042 A 
HETATM    7  N   UNL     1       5.306  27.448  50.592  1.00  0.00    -0.279 N 
HETATM    8  H   UNL     1       5.381  28.192  49.904  1.00  0.00     0.189 HD
HETATM    9  N   UNL     1       4.783  26.264  50.207  1.00  0.00    -0.149 NA
HETATM   10  C   UNL     1       4.792  25.561  51.333  1.00  0.00     0.190 A 
HETATM   11  C   UNL     1       6.161  28.642  52.661  1.00  0.00     0.097 C 
ENDROOT
BRANCH   4  12
HETATM   12  C   UNL     1       6.471  24.665  53.960  1.00  0.00    -0.048 A 
HETATM   13  C   UNL     1       6.609  24.046  55.220  1.00  0.00     0.009 A 
HETATM   14  C   UNL     1       7.469  22.960  55.403  1.00  0.00     0.024 A 
HETATM   15  C   UNL     1       8.212  22.479  54.331  1.00  0.00     0.034 A 
HETATM   16 CL   UNL     1       9.271  21.141  54.553  1.00  0.00    -0.084 Cl
HETATM   17  C   UNL     1       8.099  23.074  53.080  1.00  0.00     0.024 A 
HETATM   18  C   UNL     1       7.234  24.158  52.895  1.00  0.00     0.009 A 
ENDBRANCH   4  12
BRANCH   3  19
HETATM   19  C   UNL     1       4.742  27.652  55.428  1.00  0.00     0.266 C 
HETATM   20  O   UNL     1       3.944  28.386  54.855  1.00  0.00    -0.265 OA
BRANCH  19  21
HETATM   21  O   UNL     1       4.642  27.265  56.725  1.00  0.00    -0.326 OA
HETATM   22  C   UNL     1       5.895  27.051  57.377  1.00  0.00     0.213 C 
ENDBRANCH  19  21
ENDBRANCH   3  19
BRANCH   2  23
HETATM   23  O   UNL     1       6.823  29.369  54.859  1.00  0.00    -0.389 OA
HETATM   24  H   UNL     1       6.109  29.978  54.595  1.00  0.00     0.210 HD
ENDBRANCH   2  23
BRANCH  10  25
HETATM   25  O   UNL     1       4.275  24.341  51.248  1.00  0.00    -0.343 OA
HETATM   26  H   UNL     1       3.848  24.318  50.374  1.00  0.00     0.219 HD
ENDBRANCH  10  25
TORSDOF 5
ENDMDL
MODEL 5
REMARK VINA RESULT:      -7.8      3.179      5.625
REMARK  5 active torsions:
REMARK  status: ('A' for Active; 'I' for Inactive)
REMARK    1  A    between atoms: C_2  and  O_3 
REMARK    2  A    between atoms: C_4  and  C_5 
REMARK    3  A    between atoms: C_5  and  O_6 
REMARK    4  A    between atoms: C_9  and  C_10 
REMARK    5  A    between atoms: C_22  and  O_23 
ROOT
HETATM    1  C   UNL     1       7.445  25.699  57.822  1.00  0.00     0.047 C 
HETATM    2  C   UNL     1       6.826  25.446  56.437  1.00  0.00     0.073 C 
HETATM    3  C   UNL     1       7.583  26.240  55.321  1.00  0.00     0.133 C 
HETATM    4  C   UNL     1       7.270  27.762  55.193  1.00  0.00     0.074 C 
HETATM    5  C   UNL     1       5.894  28.089  55.660  1.00  0.00     0.030 A 
HETATM    6  C   UNL     1       5.038  27.176  56.239  1.00  0.00     0.042 A 
HETATM    7  N   UNL     1       3.864  27.830  56.481  1.00  0.00    -0.279 N 
HETATM    8  H   UNL     1       3.007  27.467  56.890  1.00  0.00     0.189 HD
HETATM    9  N   UNL     1       3.891  29.119  56.081  1.00  0.00    -0.149 NA
HETATM   10  C   UNL     1       5.110  29.239  55.569  1.00  0.00     0.190 A 
HETATM   11  C   UNL     1       5.300  25.739  56.483  1.00  0.00     0.097 C 
ENDROOT
BRANCH   4  12
HETATM   12  C   UNL     1       8.277  28.642  55.932  1.00  0.00    -0.048 A 
HETATM   13  C   UNL     1       7.972  29.004  57.261  1.00  0.00     0.009 A 
HETATM   14  C   UNL     1       8.833  29.812  58.008  1.00  0.00     0.024 A 
HETATM   15  C   UNL     1      10.011  30.279  57.436  1.00  0.00     0.034 A 
HETATM   16 CL   UNL     1      11.073  31.275  58.353  1.00  0.00    -0.084 Cl
HETATM   17  C   UNL     1      10.334  29.943  56.127  1.00  0.00     0.024 A 
HETATM   18  C   UNL     1       9.474  29.129  55.381  1.00  0.00     0.009 A 
ENDBRANCH   4  12
BRANCH   3  19
HETATM   19  C   UNL     1       7.379  25.573  53.973  1.00  0.00     0.266 C 
HETATM   20  O   UNL     1       6.574  25.988  53.146  1.00  0.00    -0.265 OA
BRANCH  19  21
HETATM   21  O   UNL     1       8.183  24.494  53.793  1.00  0.00    -0.326 OA
HETATM   22  C   UNL     1       7.769  23.614  52.748  1.00  0.00     0.213 C 
ENDBRANCH  19  21
ENDBRANCH   3  19
BRANCH   2  23
HETATM   23  O   UNL     1       6.976  24.029  56.222  1.00  0.00    -0.389 OA
HETATM   24  H   UNL     1       7.672  23.693  56.815  1.00  0.00     0.210 HD
ENDBRANCH   2  23
BRANCH  10  25
HETATM   25  O   UNL     1       5.394  30.427  55.047  1.00  0.00    -0.343 OA
HETATM   26  H   UNL     1       6.362  30.495  55.109  1.00  0.00     0.219 HD
ENDBRANCH  10  25
TORSDOF 5
ENDMDL
MODEL 6
REMARK VINA RESULT:      -7.4      4.568      7.060
REMARK  5 active torsions:
REMARK  status: ('A' for Active; 'I' for Inactive)
REMARK    1  A    between atoms: C_2  and  O_3 
REMARK    2  A    between atoms: C_4  and  C_5 
REMARK    3  A    between atoms: C_5  and  O_6 
REMARK    4  A    between atoms: C_9  and  C_10 
REMARK    5  A    between atoms: C_22  and  O_23 
ROOT
HETATM    1  C   UNL     1       5.268  29.341  55.981  1.00  0.00     0.047 C 
HETATM    2  C   UNL     1       6.100  28.048  56.002  1.00  0.00     0.073 C 
HETATM    3  C   UNL     1       6.722  27.794  57.415  1.00  0.00     0.133 C 
HETATM    4  C   UNL     1       7.985  28.623  57.798  1.00  0.00     0.074 C 
HETATM    5  C   UNL     1       8.776  29.018  56.599  1.00  0.00     0.030 A 
HETATM    6  C   UNL     1       8.382  28.776  55.300  1.00  0.00     0.042 A 
HETATM    7  N   UNL     1       9.382  29.232  54.489  1.00  0.00    -0.279 N 
HETATM    8  H   UNL     1       9.438  29.209  53.475  1.00  0.00     0.189 HD
HETATM    9  N   UNL     1      10.420  29.748  55.181  1.00  0.00    -0.149 NA
HETATM   10  C   UNL     1      10.041  29.584  56.442  1.00  0.00     0.190 A 
HETATM   11  C   UNL     1       7.151  28.081  54.857  1.00  0.00     0.097 C 
ENDROOT
BRANCH   4  12
HETATM   12  C   UNL     1       7.653  29.869  58.618  1.00  0.00    -0.048 A 
HETATM   13  C   UNL     1       8.421  30.108  59.777  1.00  0.00     0.009 A 
HETATM   14  C   UNL     1       8.180  31.219  60.590  1.00  0.00     0.024 A 
HETATM   15  C   UNL     1       7.162  32.107  60.262  1.00  0.00     0.034 A 
HETATM   16 CL   UNL     1       6.862  33.476  61.261  1.00  0.00    -0.084 Cl
HETATM   17  C   UNL     1       6.385  31.892  59.129  1.00  0.00     0.024 A 
HETATM   18  C   UNL     1       6.630  30.782  58.313  1.00  0.00     0.009 A 
ENDBRANCH   4  12
BRANCH   3  19
HETATM   19  C   UNL     1       7.021  26.316  57.598  1.00  0.00     0.266 C 
HETATM   20  O   UNL     1       6.146  25.458  57.569  1.00  0.00    -0.265 OA
BRANCH  19  21
HETATM   21  O   UNL     1       8.342  26.066  57.784  1.00  0.00    -0.326 OA
HETATM   22  C   UNL     1       8.781  24.800  57.289  1.00  0.00     0.213 C 
ENDBRANCH  19  21
ENDBRANCH   3  19
BRANCH   2  23
HETATM   23  O   UNL     1       5.162  27.002  55.681  1.00  0.00    -0.389 OA
HETATM   24  H   UNL     1       5.173  26.854  54.717  1.00  0.00     0.210 HD
ENDBRANCH   2  23
BRANCH  10  25
HETATM   25  O   UNL     1      10.921  29.974  57.357  1.00  0.00    -0.343 OA
HETATM   26  H   UNL     1      11.174  29.155  57.817  1.00  0.00     0.219 HD
ENDBRANCH  10  25
TORSDOF 5
ENDMDL
MODEL 7
REMARK VINA RESULT:      -7.3      9.736     11.484
REMARK  5 active torsions:
REMARK  status: ('A' for Active; 'I' for Inactive)
REMARK    1  A    between atoms: C_2  and  O_3 
REMARK    2  A    between atoms: C_4  and  C_5 
REMARK    3  A    between atoms: C_5  and  O_6 
REMARK    4  A    between atoms: C_9  and  C_10 
REMARK    5  A    between atoms: C_22  and  O_23 
ROOT
HETATM    1  C   UNL     1       3.316  32.256  60.926  1.00  0.00     0.047 C 
HETATM    2  C   UNL     1       3.102  33.778  60.986  1.00  0.00     0.073 C 
HETATM    3  C   UNL     1       4.459  34.548  60.865  1.00  0.00     0.133 C 
HETATM    4  C   UNL     1       5.357  34.615  62.137  1.00  0.00     0.074 C 
HETATM    5  C   UNL     1       4.554  34.533  63.389  1.00  0.00     0.030 A 
HETATM    6  C   UNL     1       3.193  34.314  63.421  1.00  0.00     0.042 A 
HETATM    7  N   UNL     1       2.814  34.357  64.733  1.00  0.00    -0.279 N 
HETATM    8  H   UNL     1       1.885  34.248  65.130  1.00  0.00     0.189 HD
HETATM    9  N   UNL     1       3.845  34.608  65.567  1.00  0.00    -0.149 NA
HETATM   10  C   UNL     1       4.871  34.734  64.733  1.00  0.00     0.190 A 
HETATM   11  C   UNL     1       2.290  34.144  62.260  1.00  0.00     0.097 C 
ENDROOT
BRANCH   4  12
HETATM   12  C   UNL     1       6.440  33.538  62.159  1.00  0.00    -0.048 A 
HETATM   13  C   UNL     1       6.669  32.821  60.966  1.00  0.00     0.009 A 
HETATM   14  C   UNL     1       7.634  31.813  60.899  1.00  0.00     0.024 A 
HETATM   15  C   UNL     1       8.383  31.499  62.027  1.00  0.00     0.034 A 
HETATM   16 CL   UNL     1       9.573  30.258  61.949  1.00  0.00    -0.084 Cl
HETATM   17  C   UNL     1       8.174  32.184  63.218  1.00  0.00     0.024 A 
HETATM   18  C   UNL     1       7.211  33.197  63.283  1.00  0.00     0.009 A 
ENDBRANCH   4  12
BRANCH   3  19
HETATM   19  C   UNL     1       4.218  35.956  60.349  1.00  0.00     0.266 C 
HETATM   20  O   UNL     1       3.822  36.183  59.211  1.00  0.00    -0.265 OA
BRANCH  19  21
HETATM   21  O   UNL     1       4.478  36.909  61.281  1.00  0.00    -0.326 OA
HETATM   22  C   UNL     1       3.369  37.755  61.587  1.00  0.00     0.213 C 
ENDBRANCH  19  21
ENDBRANCH   3  19
BRANCH   2  23
HETATM   23  O   UNL     1       2.264  34.075  59.852  1.00  0.00    -0.389 OA
HETATM   24  H   UNL     1       2.823  34.153  59.058  1.00  0.00     0.210 HD
ENDBRANCH   2  23
BRANCH  10  25
HETATM   25  O   UNL     1       6.033  35.038  65.300  1.00  0.00    -0.343 OA
HETATM   26  H   UNL     1       5.811  35.711  65.966  1.00  0.00     0.219 HD
ENDBRANCH  10  25
TORSDOF 5
ENDMDL
MODEL 8
REMARK VINA RESULT:      -7.2     10.126     11.817
REMARK  5 active torsions:
REMARK  status: ('A' for Active; 'I' for Inactive)
REMARK    1  A    between atoms: C_2  and  O_3 
REMARK    2  A    between atoms: C_4  and  C_5 
REMARK    3  A    between atoms: C_5  and  O_6 
REMARK    4  A    between atoms: C_9  and  C_10 
REMARK    5  A    between atoms: C_22  and  O_23 
ROOT
HETATM    1  C   UNL     1       4.307  34.645  59.443  1.00  0.00     0.047 C 
HETATM    2  C   UNL     1       4.015  35.861  60.337  1.00  0.00     0.073 C 
HETATM    3  C   UNL     1       5.160  36.089  61.379  1.00  0.00     0.133 C 
HETATM    4  C   UNL     1       5.179  35.161  62.632  1.00  0.00     0.074 C 
HETATM    5  C   UNL     1       3.816  34.675  62.985  1.00  0.00     0.030 A 
HETATM    6  C   UNL     1       2.688  34.924  62.231  1.00  0.00     0.042 A 
HETATM    7  N   UNL     1       1.634  34.366  62.898  1.00  0.00    -0.279 N 
HETATM    8  H   UNL     1       0.651  34.364  62.642  1.00  0.00     0.189 HD
HETATM    9  N   UNL     1       2.001  33.777  64.056  1.00  0.00    -0.149 NA
HETATM   10  C   UNL     1       3.309  33.999  64.095  1.00  0.00     0.190 A 
HETATM   11  C   UNL     1       2.608  35.713  60.981  1.00  0.00     0.097 C 
ENDROOT
BRANCH   4  12
HETATM   12  C   UNL     1       6.118  33.966  62.473  1.00  0.00    -0.048 A 
HETATM   13  C   UNL     1       7.005  33.690  63.535  1.00  0.00     0.009 A 
HETATM   14  C   UNL     1       7.903  32.622  63.470  1.00  0.00     0.024 A 
HETATM   15  C   UNL     1       7.935  31.814  62.339  1.00  0.00     0.034 A 
HETATM   16 CL   UNL     1       9.039  30.497  62.256  1.00  0.00    -0.084 Cl
HETATM   17  C   UNL     1       7.076  32.066  61.276  1.00  0.00     0.024 A 
HETATM   18  C   UNL     1       6.173  33.133  61.343  1.00  0.00     0.009 A 
ENDBRANCH   4  12
BRANCH   3  19
HETATM   19  C   UNL     1       5.176  37.538  61.832  1.00  0.00     0.266 C 
HETATM   20  O   UNL     1       4.635  37.913  62.867  1.00  0.00    -0.265 OA
BRANCH  19  21
HETATM   21  O   UNL     1       5.854  38.348  60.978  1.00  0.00    -0.326 OA
HETATM   22  C   UNL     1       6.880  39.130  61.592  1.00  0.00     0.213 C 
ENDBRANCH  19  21
ENDBRANCH   3  19
BRANCH   2  23
HETATM   23  O   UNL     1       3.947  36.977  59.428  1.00  0.00    -0.389 OA
HETATM   24  H   UNL     1       4.304  37.768  59.873  1.00  0.00     0.210 HD
ENDBRANCH   2  23
BRANCH  10  25
HETATM   25  O   UNL     1       3.931  33.553  65.180  1.00  0.00    -0.343 OA
HETATM   26  H   UNL     1       4.785  33.223  64.854  1.00  0.00     0.219 HD
ENDBRANCH  10  25
TORSDOF 5
ENDMDL
MODEL 9
REMARK VINA RESULT:      -7.2      2.622      3.892
REMARK  5 active torsions:
REMARK  status: ('A' for Active; 'I' for Inactive)
REMARK    1  A    between atoms: C_2  and  O_3 
REMARK    2  A    between atoms: C_4  and  C_5 
REMARK    3  A    between atoms: C_5  and  O_6 
REMARK    4  A    between atoms: C_9  and  C_10 
REMARK    5  A    between atoms: C_22  and  O_23 
ROOT
HETATM    1  C   UNL     1       4.794  26.808  56.528  1.00  0.00     0.047 C 
HETATM    2  C   UNL     1       6.243  27.057  56.979  1.00  0.00     0.073 C 
HETATM    3  C   UNL     1       7.159  27.431  55.766  1.00  0.00     0.133 C 
HETATM    4  C   UNL     1       7.636  26.265  54.848  1.00  0.00     0.074 C 
HETATM    5  C   UNL     1       7.714  24.973  55.584  1.00  0.00     0.030 A 
HETATM    6  C   UNL     1       7.309  24.803  56.891  1.00  0.00     0.042 A 
HETATM    7  N   UNL     1       7.584  23.507  57.227  1.00  0.00    -0.279 N 
HETATM    8  H   UNL     1       7.429  23.035  58.113  1.00  0.00     0.189 HD
HETATM    9  N   UNL     1       8.161  22.817  56.221  1.00  0.00    -0.149 NA
HETATM   10  C   UNL     1       8.251  23.727  55.258  1.00  0.00     0.190 A 
HETATM   11  C   UNL     1       6.756  25.838  57.795  1.00  0.00     0.097 C 
ENDROOT
BRANCH   4  12
HETATM   12  C   UNL     1       6.761  26.089  53.607  1.00  0.00    -0.048 A 
HETATM   13  C   UNL     1       6.796  27.112  52.636  1.00  0.00     0.009 A 
HETATM   14  C   UNL     1       6.022  27.036  51.476  1.00  0.00     0.024 A 
HETATM   15  C   UNL     1       5.193  25.939  51.268  1.00  0.00     0.034 A 
HETATM   16 CL   UNL     1       4.239  25.842  49.840  1.00  0.00    -0.084 Cl
HETATM   17  C   UNL     1       5.136  24.919  52.211  1.00  0.00     0.024 A 
HETATM   18  C   UNL     1       5.915  24.993  53.371  1.00  0.00     0.009 A 
ENDBRANCH   4  12
BRANCH   3  19
HETATM   19  C   UNL     1       8.368  28.215  56.245  1.00  0.00     0.266 C 
HETATM   20  O   UNL     1       8.854  28.063  57.361  1.00  0.00    -0.265 OA
BRANCH  19  21
HETATM   21  O   UNL     1       8.840  29.077  55.308  1.00  0.00    -0.326 OA
HETATM   22  C   UNL     1      10.095  29.676  55.633  1.00  0.00     0.213 C 
ENDBRANCH  19  21
ENDBRANCH   3  19
BRANCH   2  23
HETATM   23  O   UNL     1       6.157  28.168  57.892  1.00  0.00    -0.389 OA
HETATM   24  H   UNL     1       6.396  27.860  58.786  1.00  0.00     0.210 HD
ENDBRANCH   2  23
BRANCH  10  25
HETATM   25  O   UNL     1       8.839  23.317  54.140  1.00  0.00    -0.343 OA
HETATM   26  H   UNL     1       8.214  22.680  53.755  1.00  0.00     0.219 HD
ENDBRANCH  10  25
TORSDOF 5
ENDMDL
MODEL 10
REMARK VINA RESULT:      -7.2     10.150     12.513
REMARK  5 active torsions:
REMARK  status: ('A' for Active; 'I' for Inactive)
REMARK    1  A    between atoms: C_2  and  O_3 
REMARK    2  A    between atoms: C_4  and  C_5 
REMARK    3  A    between atoms: C_5  and  O_6 
REMARK    4  A    between atoms: C_9  and  C_10 
REMARK    5  A    between atoms: C_22  and  O_23 
ROOT
HETATM    1  C   UNL     1       3.491  32.469  62.237  1.00  0.00     0.047 C 
HETATM    2  C   UNL     1       4.574  32.756  61.184  1.00  0.00     0.073 C 
HETATM    3  C   UNL     1       5.972  32.975  61.851  1.00  0.00     0.133 C 
HETATM    4  C   UNL     1       6.237  34.361  62.513  1.00  0.00     0.074 C 
HETATM    5  C   UNL     1       5.440  35.445  61.873  1.00  0.00     0.030 A 
HETATM    6  C   UNL     1       4.500  35.232  60.886  1.00  0.00     0.042 A 
HETATM    7  N   UNL     1       4.025  36.459  60.518  1.00  0.00    -0.279 N 
HETATM    8  H   UNL     1       3.331  36.686  59.812  1.00  0.00     0.189 HD
HETATM    9  N   UNL     1       4.611  37.470  61.195  1.00  0.00    -0.149 NA
HETATM   10  C   UNL     1       5.472  36.835  61.981  1.00  0.00     0.190 A 
HETATM   11  C   UNL     1       4.125  33.935  60.277  1.00  0.00     0.097 C 
ENDROOT
BRANCH   4  12
HETATM   12  C   UNL     1       5.973  34.362  64.018  1.00  0.00    -0.048 A 
HETATM   13  C   UNL     1       7.016  33.923  64.861  1.00  0.00     0.009 A 
HETATM   14  C   UNL     1       6.859  33.883  66.249  1.00  0.00     0.024 A 
HETATM   15  C   UNL     1       5.653  34.276  66.819  1.00  0.00     0.034 A 
HETATM   16 CL   UNL     1       5.455  34.229  68.527  1.00  0.00    -0.084 Cl
HETATM   17  C   UNL     1       4.607  34.708  66.012  1.00  0.00     0.024 A 
HETATM   18  C   UNL     1       4.766  34.752  64.622  1.00  0.00     0.009 A 
ENDBRANCH   4  12
BRANCH   3  19
HETATM   19  C   UNL     1       7.080  32.678  60.856  1.00  0.00     0.266 C 
HETATM   20  O   UNL     1       6.924  32.783  59.644  1.00  0.00    -0.265 OA
BRANCH  19  21
HETATM   21  O   UNL     1       8.238  32.301  61.456  1.00  0.00    -0.326 OA
HETATM   22  C   UNL     1       8.116  31.174  62.325  1.00  0.00     0.213 C 
ENDBRANCH  19  21
ENDBRANCH   3  19
BRANCH   2  23
HETATM   23  O   UNL     1       4.602  31.576  60.357  1.00  0.00    -0.389 OA
HETATM   24  H   UNL     1       5.147  31.757  59.569  1.00  0.00     0.210 HD
ENDBRANCH   2  23
BRANCH  10  25
HETATM   25  O   UNL     1       6.232  37.616  62.740  1.00  0.00    -0.343 OA
HETATM   26  H   UNL     1       6.799  36.998  63.233  1.00  0.00     0.219 HD
ENDBRANCH  10  25
TORSDOF 5
ENDMDL
