MODEL 1
REMARK VINA RESULT:      -7.4      0.000      0.000
REMARK  2 active torsions:
REMARK  status: ('A' for Active; 'I' for Inactive)
REMARK    1  A    between atoms: C_3  and  S_4 
REMARK    2  A    between atoms: C_9  and  N_10 
ROOT
HETATM    1  C   UNL     1       8.388  20.830  52.923  1.00  0.00     0.050 C 
HETATM    2  C   UNL     1       8.109  22.101  53.674  1.00  0.00    -0.039 A 
HETATM    3  C   UNL     1       8.047  22.211  55.072  1.00  0.00     0.067 A 
HETATM    4  C   UNL     1       7.799  23.458  55.684  1.00  0.00     0.055 A 
HETATM    5  C   UNL     1       7.571  24.621  54.936  1.00  0.00     0.053 A 
HETATM    6  C   UNL     1       7.583  24.488  53.531  1.00  0.00     0.061 A 
HETATM    7 CL   UNL     1       7.218  25.831  52.496  1.00  0.00    -0.082 Cl
HETATM    8  C   UNL     1       7.848  23.257  52.918  1.00  0.00     0.034 A 
ENDROOT
BRANCH   5   9
HETATM    9  N   UNL     1       7.346  25.868  55.553  1.00  0.00    -0.376 N 
HETATM   10  C   UNL     1       5.958  26.365  55.621  1.00  0.00     0.150 C 
HETATM   11  C   UNL     1       5.965  27.863  55.992  1.00  0.00     0.252 C 
HETATM   12  N   UNL     1       6.744  28.086  57.270  1.00  0.00    -0.072 N 
HETATM   13  H   UNL     1       6.244  27.652  58.056  1.00  0.00     0.277 HD
HETATM   14  H   UNL     1       6.791  29.094  57.467  1.00  0.00     0.277 HD
HETATM   15  C   UNL     1       8.148  27.525  57.199  1.00  0.00     0.252 C 
HETATM   16  C   UNL     1       8.111  26.033  56.813  1.00  0.00     0.150 C 
ENDBRANCH   5   9
BRANCH   3  17
HETATM   17  S   UNL     1       8.317  20.820  56.171  1.00  0.00     0.172 S 
HETATM   18  C   UNL     1       8.351  21.504  57.806  1.00  0.00     0.167 C 
HETATM   19  O   UNL     1       7.176  19.939  56.033  1.00  0.00    -0.223 OA
HETATM   20  O   UNL     1       9.658  20.330  55.895  1.00  0.00    -0.223 OA
ENDBRANCH   3  17
TORSDOF 2
ENDMDL
MODEL 2
REMARK VINA RESULT:      -7.1      9.552     11.978
REMARK  2 active torsions:
REMARK  status: ('A' for Active; 'I' for Inactive)
REMARK    1  A    between atoms: C_3  and  S_4 
REMARK    2  A    between atoms: C_9  and  N_10 
ROOT
HETATM    1  C   UNL     1       9.743  31.044  61.837  1.00  0.00     0.050 C 
HETATM    2  C   UNL     1       8.506  31.874  62.032  1.00  0.00    -0.039 A 
HETATM    3  C   UNL     1       7.660  32.312  61.000  1.00  0.00     0.067 A 
HETATM    4  C   UNL     1       6.507  33.071  61.290  1.00  0.00     0.055 A 
HETATM    5  C   UNL     1       6.175  33.449  62.599  1.00  0.00     0.053 A 
HETATM    6  C   UNL     1       7.060  33.048  63.622  1.00  0.00     0.061 A 
HETATM    7 CL   UNL     1       6.813  33.536  65.268  1.00  0.00    -0.082 Cl
HETATM    8  C   UNL     1       8.196  32.278  63.343  1.00  0.00     0.034 A 
ENDROOT
BRANCH   5   9
HETATM    9  N   UNL     1       5.009  34.188  62.884  1.00  0.00    -0.376 N 
HETATM   10  C   UNL     1       5.004  35.625  62.550  1.00  0.00     0.150 C 
HETATM   11  C   UNL     1       3.814  36.313  63.253  1.00  0.00     0.252 C 
HETATM   12  N   UNL     1       2.520  35.612  62.904  1.00  0.00    -0.072 N 
HETATM   13  H   UNL     1       2.313  35.750  61.906  1.00  0.00     0.277 HD
HETATM   14  H   UNL     1       1.748  36.043  63.429  1.00  0.00     0.277 HD
HETATM   15  C   UNL     1       2.562  34.129  63.206  1.00  0.00     0.252 C 
HETATM   16  C   UNL     1       3.767  33.473  62.504  1.00  0.00     0.150 C 
ENDBRANCH   5   9
BRANCH   3  17
HETATM   17  S   UNL     1       7.942  31.912  59.275  1.00  0.00     0.172 S 
HETATM   18  C   UNL     1       8.025  30.143  59.203  1.00  0.00     0.167 C 
HETATM   19  O   UNL     1       6.788  32.378  58.535  1.00  0.00    -0.223 OA
HETATM   20  O   UNL     1       9.271  32.406  58.949  1.00  0.00    -0.223 OA
ENDBRANCH   3  17
TORSDOF 2
ENDMDL
MODEL 3
REMARK VINA RESULT:      -6.7      1.611      2.101
REMARK  2 active torsions:
REMARK  status: ('A' for Active; 'I' for Inactive)
REMARK    1  A    between atoms: C_3  and  S_4 
REMARK    2  A    between atoms: C_9  and  N_10 
ROOT
HETATM    1  C   UNL     1       7.824  23.282  52.512  1.00  0.00     0.050 C 
HETATM    2  C   UNL     1       7.677  24.387  53.520  1.00  0.00    -0.039 A 
HETATM    3  C   UNL     1       7.863  24.242  54.904  1.00  0.00     0.067 A 
HETATM    4  C   UNL     1       7.723  25.349  55.768  1.00  0.00     0.055 A 
HETATM    5  C   UNL     1       7.363  26.619  55.296  1.00  0.00     0.053 A 
HETATM    6  C   UNL     1       7.126  26.741  53.910  1.00  0.00     0.061 A 
HETATM    7 CL   UNL     1       6.579  28.234  53.218  1.00  0.00    -0.082 Cl
HETATM    8  C   UNL     1       7.283  25.650  53.045  1.00  0.00     0.034 A 
ENDROOT
BRANCH   5   9
HETATM    9  N   UNL     1       7.246  27.726  56.161  1.00  0.00    -0.376 N 
HETATM   10  C   UNL     1       5.953  27.937  56.841  1.00  0.00     0.150 C 
HETATM   11  C   UNL     1       5.913  29.360  57.438  1.00  0.00     0.252 C 
HETATM   12  N   UNL     1       7.108  29.588  58.338  1.00  0.00    -0.072 N 
HETATM   13  H   UNL     1       7.034  28.985  59.166  1.00  0.00     0.277 HD
HETATM   14  H   UNL     1       7.098  30.559  58.675  1.00  0.00     0.277 HD
HETATM   15  C   UNL     1       8.422  29.317  57.637  1.00  0.00     0.252 C 
HETATM   16  C   UNL     1       8.428  27.897  57.039  1.00  0.00     0.150 C 
ENDBRANCH   5   9
BRANCH   3  17
HETATM   17  S   UNL     1       8.329  22.687  55.666  1.00  0.00     0.172 S 
HETATM   18  C   UNL     1       8.478  23.031  57.398  1.00  0.00     0.167 C 
HETATM   19  O   UNL     1       7.240  21.760  55.444  1.00  0.00    -0.223 OA
HETATM   20  O   UNL     1       9.666  22.376  55.185  1.00  0.00    -0.223 OA
ENDBRANCH   3  17
TORSDOF 2
ENDMDL
MODEL 4
REMARK VINA RESULT:      -6.5      8.441     11.148
REMARK  2 active torsions:
REMARK  status: ('A' for Active; 'I' for Inactive)
REMARK    1  A    between atoms: C_3  and  S_4 
REMARK    2  A    between atoms: C_9  and  N_10 
ROOT
HETATM    1  C   UNL     1       6.522  33.349  64.167  1.00  0.00     0.050 C 
HETATM    2  C   UNL     1       6.993  32.677  62.908  1.00  0.00    -0.039 A 
HETATM    3  C   UNL     1       6.374  32.795  61.654  1.00  0.00     0.067 A 
HETATM    4  C   UNL     1       6.907  32.140  60.524  1.00  0.00     0.055 A 
HETATM    5  C   UNL     1       8.044  31.323  60.607  1.00  0.00     0.053 A 
HETATM    6  C   UNL     1       8.627  31.169  61.883  1.00  0.00     0.061 A 
HETATM    7 CL   UNL     1       9.976  30.108  62.134  1.00  0.00    -0.082 Cl
HETATM    8  C   UNL     1       8.113  31.833  63.004  1.00  0.00     0.034 A 
ENDROOT
BRANCH   5   9
HETATM    9  N   UNL     1       8.586  30.688  59.471  1.00  0.00    -0.376 N 
HETATM   10  C   UNL     1       7.663  29.948  58.588  1.00  0.00     0.150 C 
HETATM   11  C   UNL     1       8.477  29.047  57.634  1.00  0.00     0.252 C 
HETATM   12  N   UNL     1       9.499  29.868  56.879  1.00  0.00    -0.072 N 
HETATM   13  H   UNL     1       9.016  30.512  56.239  1.00  0.00     0.277 HD
HETATM   14  H   UNL     1      10.072  29.244  56.296  1.00  0.00     0.277 HD
HETATM   15  C   UNL     1      10.403  30.661  57.799  1.00  0.00     0.252 C 
HETATM   16  C   UNL     1       9.564  31.537  58.749  1.00  0.00     0.150 C 
ENDBRANCH   5   9
BRANCH   3  17
HETATM   17  S   UNL     1       4.916  33.802  61.379  1.00  0.00     0.172 S 
HETATM   18  C   UNL     1       4.610  33.733  59.635  1.00  0.00     0.167 C 
HETATM   19  O   UNL     1       3.823  33.175  62.093  1.00  0.00    -0.223 OA
HETATM   20  O   UNL     1       5.298  35.173  61.682  1.00  0.00    -0.223 OA
ENDBRANCH   3  17
TORSDOF 2
ENDMDL
MODEL 5
REMARK VINA RESULT:      -6.5      3.707      5.871
REMARK  2 active torsions:
REMARK  status: ('A' for Active; 'I' for Inactive)
REMARK    1  A    between atoms: C_3  and  S_4 
REMARK    2  A    between atoms: C_9  and  N_10 
ROOT
HETATM    1  C   UNL     1       5.155  28.988  54.985  1.00  0.00     0.050 C 
HETATM    2  C   UNL     1       5.711  27.596  54.871  1.00  0.00    -0.039 A 
HETATM    3  C   UNL     1       6.772  27.090  55.638  1.00  0.00     0.067 A 
HETATM    4  C   UNL     1       7.208  25.759  55.471  1.00  0.00     0.055 A 
HETATM    5  C   UNL     1       6.634  24.902  54.521  1.00  0.00     0.053 A 
HETATM    6  C   UNL     1       5.603  25.438  53.719  1.00  0.00     0.061 A 
HETATM    7 CL   UNL     1       4.881  24.512  52.443  1.00  0.00    -0.082 Cl
HETATM    8  C   UNL     1       5.153  26.754  53.894  1.00  0.00     0.034 A 
ENDROOT
BRANCH   5   9
HETATM    9  N   UNL     1       7.058  23.566  54.373  1.00  0.00    -0.376 N 
HETATM   10  C   UNL     1       7.890  23.231  53.201  1.00  0.00     0.150 C 
HETATM   11  C   UNL     1       7.943  21.698  53.029  1.00  0.00     0.252 C 
HETATM   12  N   UNL     1       8.416  21.041  54.306  1.00  0.00    -0.072 N 
HETATM   13  H   UNL     1       9.398  21.291  54.477  1.00  0.00     0.277 HD
HETATM   14  H   UNL     1       8.385  20.019  54.194  1.00  0.00     0.277 HD
HETATM   15  C   UNL     1       7.583  21.436  55.507  1.00  0.00     0.252 C 
HETATM   16  C   UNL     1       7.536  22.970  55.644  1.00  0.00     0.150 C 
ENDBRANCH   5   9
BRANCH   3  17
HETATM   17  S   UNL     1       7.611  28.054  56.896  1.00  0.00     0.172 S 
HETATM   18  C   UNL     1       8.571  29.255  56.014  1.00  0.00     0.167 C 
HETATM   19  O   UNL     1       6.589  28.721  57.675  1.00  0.00    -0.223 OA
HETATM   20  O   UNL     1       8.556  27.157  57.542  1.00  0.00    -0.223 OA
ENDBRANCH   3  17
TORSDOF 2
ENDMDL
MODEL 6
REMARK VINA RESULT:      -6.4      2.723      4.160
REMARK  2 active torsions:
REMARK  status: ('A' for Active; 'I' for Inactive)
REMARK    1  A    between atoms: C_3  and  S_4 
REMARK    2  A    between atoms: C_9  and  N_10 
ROOT
HETATM    1  C   UNL     1       8.858  24.205  57.416  1.00  0.00     0.050 C 
HETATM    2  C   UNL     1       8.121  24.798  56.248  1.00  0.00    -0.039 A 
HETATM    3  C   UNL     1       7.816  24.115  55.060  1.00  0.00     0.067 A 
HETATM    4  C   UNL     1       7.100  24.755  54.027  1.00  0.00     0.055 A 
HETATM    5  C   UNL     1       6.694  26.094  54.122  1.00  0.00     0.053 A 
HETATM    6  C   UNL     1       7.052  26.786  55.299  1.00  0.00     0.061 A 
HETATM    7 CL   UNL     1       6.695  28.472  55.495  1.00  0.00    -0.082 Cl
HETATM    8  C   UNL     1       7.747  26.150  56.336  1.00  0.00     0.034 A 
ENDROOT
BRANCH   5   9
HETATM    9  N   UNL     1       5.959  26.721  53.096  1.00  0.00    -0.376 N 
HETATM   10  C   UNL     1       6.048  26.153  51.737  1.00  0.00     0.150 C 
HETATM   11  C   UNL     1       5.482  27.167  50.718  1.00  0.00     0.252 C 
HETATM   12  N   UNL     1       4.077  27.574  51.106  1.00  0.00    -0.072 N 
HETATM   13  H   UNL     1       3.447  26.768  51.010  1.00  0.00     0.277 HD
HETATM   14  H   UNL     1       3.741  28.294  50.454  1.00  0.00     0.277 HD
HETATM   15  C   UNL     1       3.997  28.105  52.522  1.00  0.00     0.252 C 
HETATM   16  C   UNL     1       4.582  27.081  53.513  1.00  0.00     0.150 C 
ENDBRANCH   5   9
BRANCH   3  17
HETATM   17  S   UNL     1       8.261  22.400  54.781  1.00  0.00     0.172 S 
HETATM   18  C   UNL     1       7.751  22.039  53.122  1.00  0.00     0.167 C 
HETATM   19  O   UNL     1       9.703  22.312  54.879  1.00  0.00    -0.223 OA
HETATM   20  O   UNL     1       7.417  21.606  55.660  1.00  0.00    -0.223 OA
ENDBRANCH   3  17
TORSDOF 2
ENDMDL
MODEL 7
REMARK VINA RESULT:      -6.4      9.321     11.491
REMARK  2 active torsions:
REMARK  status: ('A' for Active; 'I' for Inactive)
REMARK    1  A    between atoms: C_3  and  S_4 
REMARK    2  A    between atoms: C_9  and  N_10 
ROOT
HETATM    1  C   UNL     1       6.256  31.484  57.945  1.00  0.00     0.050 C 
HETATM    2  C   UNL     1       6.086  32.083  59.313  1.00  0.00    -0.039 A 
HETATM    3  C   UNL     1       7.085  32.133  60.298  1.00  0.00     0.067 A 
HETATM    4  C   UNL     1       6.832  32.737  61.547  1.00  0.00     0.055 A 
HETATM    5  C   UNL     1       5.579  33.277  61.872  1.00  0.00     0.053 A 
HETATM    6  C   UNL     1       4.567  33.173  60.894  1.00  0.00     0.061 A 
HETATM    7 CL   UNL     1       2.950  33.712  61.212  1.00  0.00    -0.082 Cl
HETATM    8  C   UNL     1       4.818  32.591  59.644  1.00  0.00     0.034 A 
ENDROOT
BRANCH   5   9
HETATM    9  N   UNL     1       5.339  33.900  63.114  1.00  0.00    -0.376 N 
HETATM   10  C   UNL     1       5.646  33.136  64.340  1.00  0.00     0.150 C 
HETATM   11  C   UNL     1       4.991  33.830  65.554  1.00  0.00     0.252 C 
HETATM   12  N   UNL     1       5.420  35.279  65.627  1.00  0.00    -0.072 N 
HETATM   13  H   UNL     1       6.424  35.329  65.842  1.00  0.00     0.277 HD
HETATM   14  H   UNL     1       4.927  35.739  66.403  1.00  0.00     0.277 HD
HETATM   15  C   UNL     1       5.144  36.032  64.343  1.00  0.00     0.252 C 
HETATM   16  C   UNL     1       5.796  35.310  63.148  1.00  0.00     0.150 C 
ENDBRANCH   5   9
BRANCH   3  17
HETATM   17  S   UNL     1       8.739  31.492  60.040  1.00  0.00     0.172 S 
HETATM   18  C   UNL     1       9.605  31.781  61.559  1.00  0.00     0.167 C 
HETATM   19  O   UNL     1       8.614  30.067  59.812  1.00  0.00    -0.223 OA
HETATM   20  O   UNL     1       9.360  32.342  59.036  1.00  0.00    -0.223 OA
ENDBRANCH   3  17
TORSDOF 2
ENDMDL
MODEL 8
REMARK VINA RESULT:      -6.3      4.080      6.205
REMARK  2 active torsions:
REMARK  status: ('A' for Active; 'I' for Inactive)
REMARK    1  A    between atoms: C_3  and  S_4 
REMARK    2  A    between atoms: C_9  and  N_10 
ROOT
HETATM    1  C   UNL     1       6.433  28.396  55.436  1.00  0.00     0.050 C 
HETATM    2  C   UNL     1       6.810  26.955  55.232  1.00  0.00    -0.039 A 
HETATM    3  C   UNL     1       6.394  26.161  54.151  1.00  0.00     0.067 A 
HETATM    4  C   UNL     1       6.821  24.822  54.037  1.00  0.00     0.055 A 
HETATM    5  C   UNL     1       7.641  24.218  55.002  1.00  0.00     0.053 A 
HETATM    6  C   UNL     1       8.010  25.010  56.110  1.00  0.00     0.061 A 
HETATM    7 CL   UNL     1       8.939  24.351  57.418  1.00  0.00    -0.082 Cl
HETATM    8  C   UNL     1       7.605  26.347  56.218  1.00  0.00     0.034 A 
ENDROOT
BRANCH   5   9
HETATM    9  N   UNL     1       8.084  22.887  54.871  1.00  0.00    -0.376 N 
HETATM   10  C   UNL     1       7.610  21.902  55.863  1.00  0.00     0.150 C 
HETATM   11  C   UNL     1       8.469  20.622  55.769  1.00  0.00     0.252 C 
HETATM   12  N   UNL     1       8.470  20.092  54.351  1.00  0.00    -0.072 N 
HETATM   13  H   UNL     1       7.528  19.761  54.109  1.00  0.00     0.277 HD
HETATM   14  H   UNL     1       9.096  19.279  54.294  1.00  0.00     0.277 HD
HETATM   15  C   UNL     1       8.910  21.132  53.343  1.00  0.00     0.252 C 
HETATM   16  C   UNL     1       8.045  22.402  53.471  1.00  0.00     0.150 C 
ENDBRANCH   5   9
BRANCH   3  17
HETATM   17  S   UNL     1       5.348  26.782  52.833  1.00  0.00     0.172 S 
HETATM   18  C   UNL     1       5.147  25.428  51.707  1.00  0.00     0.167 C 
HETATM   19  O   UNL     1       4.070  27.119  53.425  1.00  0.00    -0.223 OA
HETATM   20  O   UNL     1       6.122  27.795  52.134  1.00  0.00    -0.223 OA
ENDBRANCH   3  17
TORSDOF 2
ENDMDL
MODEL 9
REMARK VINA RESULT:      -6.1      4.402      5.730
REMARK  2 active torsions:
REMARK  status: ('A' for Active; 'I' for Inactive)
REMARK    1  A    between atoms: C_3  and  S_4 
REMARK    2  A    between atoms: C_9  and  N_10 
ROOT
HETATM    1  C   UNL     1       5.055  26.825  50.598  1.00  0.00     0.050 C 
HETATM    2  C   UNL     1       5.711  26.336  51.859  1.00  0.00    -0.039 A 
HETATM    3  C   UNL     1       5.576  26.938  53.120  1.00  0.00     0.067 A 
HETATM    4  C   UNL     1       6.216  26.388  54.251  1.00  0.00     0.055 A 
HETATM    5  C   UNL     1       7.033  25.252  54.163  1.00  0.00     0.053 A 
HETATM    6  C   UNL     1       7.203  24.686  52.882  1.00  0.00     0.061 A 
HETATM    7 CL   UNL     1       8.266  23.340  52.626  1.00  0.00    -0.082 Cl
HETATM    8  C   UNL     1       6.554  25.216  51.759  1.00  0.00     0.034 A 
ENDROOT
BRANCH   5   9
HETATM    9  N   UNL     1       7.652  24.693  55.300  1.00  0.00    -0.376 N 
HETATM   10  C   UNL     1       7.796  25.546  56.496  1.00  0.00     0.150 C 
HETATM   11  C   UNL     1       8.794  24.893  57.476  1.00  0.00     0.252 C 
HETATM   12  N   UNL     1       8.367  23.477  57.797  1.00  0.00    -0.072 N 
HETATM   13  H   UNL     1       7.491  23.497  58.334  1.00  0.00     0.277 HD
HETATM   14  H   UNL     1       9.075  23.038  58.400  1.00  0.00     0.277 HD
HETATM   15  C   UNL     1       8.175  22.633  56.556  1.00  0.00     0.252 C 
HETATM   16  C   UNL     1       7.186  23.316  55.591  1.00  0.00     0.150 C 
ENDBRANCH   5   9
BRANCH   3  17
HETATM   17  S   UNL     1       4.567  28.393  53.402  1.00  0.00     0.172 S 
HETATM   18  C   UNL     1       4.658  28.707  55.144  1.00  0.00     0.167 C 
HETATM   19  O   UNL     1       5.181  29.486  52.676  1.00  0.00    -0.223 OA
HETATM   20  O   UNL     1       3.194  28.006  53.119  1.00  0.00    -0.223 OA
ENDBRANCH   3  17
TORSDOF 2
ENDMDL
MODEL 10
REMARK VINA RESULT:      -6.0      8.537     10.962
REMARK  2 active torsions:
REMARK  status: ('A' for Active; 'I' for Inactive)
REMARK    1  A    between atoms: C_3  and  S_4 
REMARK    2  A    between atoms: C_9  and  N_10 
ROOT
HETATM    1  C   UNL     1       3.267  33.607  61.639  1.00  0.00     0.050 C 
HETATM    2  C   UNL     1       4.516  33.073  60.995  1.00  0.00    -0.039 A 
HETATM    3  C   UNL     1       5.739  32.878  61.656  1.00  0.00     0.067 A 
HETATM    4  C   UNL     1       6.851  32.350  60.967  1.00  0.00     0.055 A 
HETATM    5  C   UNL     1       6.797  32.031  59.602  1.00  0.00     0.053 A 
HETATM    6  C   UNL     1       5.578  32.281  58.937  1.00  0.00     0.061 A 
HETATM    7 CL   UNL     1       5.415  32.022  57.230  1.00  0.00    -0.082 Cl
HETATM    8  C   UNL     1       4.465  32.787  59.620  1.00  0.00     0.034 A 
ENDROOT
BRANCH   5   9
HETATM    9  N   UNL     1       7.904  31.482  58.924  1.00  0.00    -0.376 N 
HETATM   10  C   UNL     1       9.254  31.890  59.362  1.00  0.00     0.150 C 
HETATM   11  C   UNL     1      10.288  31.478  58.293  1.00  0.00     0.252 C 
HETATM   12  N   UNL     1      10.177  29.999  57.995  1.00  0.00    -0.072 N 
HETATM   13  H   UNL     1      10.466  29.460  58.820  1.00  0.00     0.277 HD
HETATM   14  H   UNL     1      10.828  29.755  57.237  1.00  0.00     0.277 HD
HETATM   15  C   UNL     1       8.774  29.590  57.597  1.00  0.00     0.252 C 
HETATM   16  C   UNL     1       7.763  30.027  58.675  1.00  0.00     0.150 C 
ENDBRANCH   5   9
BRANCH   3  17
HETATM   17  S   UNL     1       5.973  33.233  63.398  1.00  0.00     0.172 S 
HETATM   18  C   UNL     1       7.640  32.752  63.762  1.00  0.00     0.167 C 
HETATM   19  O   UNL     1       5.829  34.664  63.565  1.00  0.00    -0.223 OA
HETATM   20  O   UNL     1       5.106  32.319  64.125  1.00  0.00    -0.223 OA
ENDBRANCH   3  17
TORSDOF 2
ENDMDL
