MODEL 1
REMARK VINA RESULT:      -9.9      0.000      0.000
REMARK  8 active torsions:
REMARK  status: ('A' for Active; 'I' for Inactive)
REMARK    1  A    between atoms: C_2  and  C_3 
REMARK    2  A    between atoms: C_3  and  O_4 
REMARK    3  A    between atoms: O_4  and  C_5 
REMARK    4  A    between atoms: C_7  and  C_8 
REMARK    5  A    between atoms: N_9  and  C_10 
REMARK    6  A    between atoms: C_10  and  C_11 
REMARK    7  A    between atoms: C_24  and  C_25 
REMARK    8  A    between atoms: C_26  and  O_27 
ROOT
HETATM    1  C   UNL     1       7.049  27.657  54.682  1.00  0.00     0.159 C 
HETATM    2  N   UNL     1       6.881  27.646  56.159  1.00  0.00    -0.329 N 
HETATM    3  C   UNL     1       5.715  28.307  56.576  1.00  0.00     0.273 C 
HETATM    4  O   UNL     1       5.392  28.669  57.692  1.00  0.00    -0.266 OA
HETATM    5  C   UNL     1       5.000  28.502  55.371  1.00  0.00     0.129 A 
HETATM    6  C   UNL     1       5.708  28.128  54.266  1.00  0.00     0.034 A 
HETATM    7  N   UNL     1       3.795  28.928  54.973  1.00  0.00    -0.272 N 
HETATM    8  H   UNL     1       3.021  29.277  55.533  1.00  0.00     0.189 HD
HETATM    9  N   UNL     1       3.647  28.807  53.628  1.00  0.00    -0.173 NA
HETATM   10  C   UNL     1       4.838  28.325  53.179  1.00  0.00     0.101 A 
ENDROOT
BRANCH   1  11
HETATM   11  C   UNL     1       7.329  26.314  54.064  1.00  0.00    -0.028 A 
HETATM   12  C   UNL     1       7.110  25.100  54.738  1.00  0.00     0.046 A 
HETATM   13  C   UNL     1       7.348  23.870  54.117  1.00  0.00     0.069 A 
HETATM   14  C   UNL     1       7.829  23.844  52.807  1.00  0.00     0.037 A 
HETATM   15  C   UNL     1       8.076  25.037  52.130  1.00  0.00     0.003 A 
HETATM   16  C   UNL     1       7.834  26.260  52.754  1.00  0.00     0.010 A 
BRANCH  13  17
HETATM   17  O   UNL     1       7.084  22.775  54.894  1.00  0.00    -0.348 OA
BRANCH  17  18
HETATM   18  C   UNL     1       8.169  21.878  55.132  1.00  0.00     0.202 C 
BRANCH  18  19
HETATM   19  C   UNL     1       7.884  20.613  54.380  1.00  0.00    -0.011 C 
HETATM   20  C   UNL     1       8.245  20.383  53.110  1.00  0.00     0.009 C 
ENDBRANCH  18  19
ENDBRANCH  17  18
ENDBRANCH  13  17
ENDBRANCH   1  11
BRANCH   2  21
HETATM   21  C   UNL     1       8.004  27.435  57.046  1.00  0.00     0.165 C 
BRANCH  21  22
HETATM   22  C   UNL     1       8.812  28.687  57.274  1.00  0.00    -0.037 A 
HETATM   23  C   UNL     1       9.899  29.005  56.455  1.00  0.00     0.028 A 
HETATM   24  C   UNL     1      10.622  30.158  56.724  1.00  0.00     0.116 A 
HETATM   25  N   UNL     1      10.336  31.008  57.733  1.00  0.00    -0.273 NA
HETATM   26  C   UNL     1       9.290  30.679  58.520  1.00  0.00     0.116 A 
HETATM   27  C   UNL     1       8.508  29.549  58.332  1.00  0.00     0.028 A 
ENDBRANCH  21  22
ENDBRANCH   2  21
BRANCH  10  28
HETATM   28  C   UNL     1       5.028  28.030  51.756  1.00  0.00     0.028 A 
HETATM   29  C   UNL     1       5.490  29.014  50.864  1.00  0.00     0.078 A 
HETATM   30  C   UNL     1       5.604  28.759  49.498  1.00  0.00     0.037 A 
HETATM   31  C   UNL     1       5.278  27.500  49.001  1.00  0.00     0.003 A 
HETATM   32  C   UNL     1       4.850  26.499  49.870  1.00  0.00     0.001 A 
HETATM   33  C   UNL     1       4.731  26.760  51.240  1.00  0.00     0.017 A 
BRANCH  29  34
HETATM   34  O   UNL     1       5.855  30.270  51.277  1.00  0.00    -0.360 OA
HETATM   35  H   UNL     1       5.204  30.888  50.871  1.00  0.00     0.217 HD
ENDBRANCH  29  34
ENDBRANCH  10  28
TORSDOF 8
ENDMDL
MODEL 2
REMARK VINA RESULT:      -9.7      1.235      1.815
REMARK  8 active torsions:
REMARK  status: ('A' for Active; 'I' for Inactive)
REMARK    1  A    between atoms: C_2  and  C_3 
REMARK    2  A    between atoms: C_3  and  O_4 
REMARK    3  A    between atoms: O_4  and  C_5 
REMARK    4  A    between atoms: C_7  and  C_8 
REMARK    5  A    between atoms: N_9  and  C_10 
REMARK    6  A    between atoms: C_10  and  C_11 
REMARK    7  A    between atoms: C_24  and  C_25 
REMARK    8  A    between atoms: C_26  and  O_27 
ROOT
HETATM    1  C   UNL     1       6.761  28.401  55.750  1.00  0.00     0.159 C 
HETATM    2  N   UNL     1       6.535  28.932  57.120  1.00  0.00    -0.329 N 
HETATM    3  C   UNL     1       5.593  29.972  57.149  1.00  0.00     0.273 C 
HETATM    4  O   UNL     1       5.342  30.759  58.043  1.00  0.00    -0.266 OA
HETATM    5  C   UNL     1       5.018  29.930  55.857  1.00  0.00     0.129 A 
HETATM    6  C   UNL     1       5.633  29.036  55.031  1.00  0.00     0.034 A 
HETATM    7  N   UNL     1       4.006  30.494  55.188  1.00  0.00    -0.272 N 
HETATM    8  H   UNL     1       3.343  31.199  55.500  1.00  0.00     0.189 HD
HETATM    9  N   UNL     1       3.886  29.971  53.940  1.00  0.00    -0.173 NA
HETATM   10  C   UNL     1       4.904  29.075  53.828  1.00  0.00     0.101 A 
ENDROOT
BRANCH   1  11
HETATM   11  C   UNL     1       6.666  26.905  55.624  1.00  0.00    -0.028 A 
HETATM   12  C   UNL     1       7.502  26.153  54.780  1.00  0.00     0.046 A 
HETATM   13  C   UNL     1       7.407  24.759  54.718  1.00  0.00     0.069 A 
HETATM   14  C   UNL     1       6.455  24.100  55.496  1.00  0.00     0.037 A 
HETATM   15  C   UNL     1       5.601  24.829  56.321  1.00  0.00     0.003 A 
HETATM   16  C   UNL     1       5.701  26.219  56.380  1.00  0.00     0.010 A 
BRANCH  13  17
HETATM   17  O   UNL     1       8.288  24.163  53.857  1.00  0.00    -0.348 OA
BRANCH  17  18
HETATM   18  C   UNL     1       7.762  23.155  52.994  1.00  0.00     0.202 C 
BRANCH  18  19
HETATM   19  C   UNL     1       8.420  21.858  53.359  1.00  0.00    -0.011 C 
HETATM   20  C   UNL     1       7.939  20.646  53.052  1.00  0.00     0.009 C 
ENDBRANCH  18  19
ENDBRANCH  17  18
ENDBRANCH  13  17
ENDBRANCH   1  11
BRANCH   2  21
HETATM   21  C   UNL     1       7.510  28.747  58.173  1.00  0.00     0.165 C 
BRANCH  21  22
HETATM   22  C   UNL     1       8.705  29.654  58.027  1.00  0.00    -0.037 A 
HETATM   23  C   UNL     1       9.766  29.318  57.180  1.00  0.00     0.028 A 
HETATM   24  C   UNL     1      10.852  30.177  57.101  1.00  0.00     0.116 A 
HETATM   25  N   UNL     1      10.950  31.334  57.790  1.00  0.00    -0.273 NA
HETATM   26  C   UNL     1       9.921  31.635  58.611  1.00  0.00     0.116 A 
HETATM   27  C   UNL     1       8.794  30.841  58.759  1.00  0.00     0.028 A 
ENDBRANCH  21  22
ENDBRANCH   2  21
BRANCH  10  28
HETATM   28  C   UNL     1       5.061  28.280  52.607  1.00  0.00     0.028 A 
HETATM   29  C   UNL     1       5.454  28.876  51.396  1.00  0.00     0.078 A 
HETATM   30  C   UNL     1       5.535  28.138  50.216  1.00  0.00     0.037 A 
HETATM   31  C   UNL     1       5.244  26.777  50.231  1.00  0.00     0.003 A 
HETATM   32  C   UNL     1       4.884  26.157  51.426  1.00  0.00     0.001 A 
HETATM   33  C   UNL     1       4.799  26.902  52.608  1.00  0.00     0.017 A 
BRANCH  29  34
HETATM   34  O   UNL     1       5.781  30.205  51.301  1.00  0.00    -0.360 OA
HETATM   35  H   UNL     1       5.143  30.596  50.661  1.00  0.00     0.217 HD
ENDBRANCH  29  34
ENDBRANCH  10  28
TORSDOF 8
ENDMDL
MODEL 3
REMARK VINA RESULT:      -9.1      1.507      1.817
REMARK  8 active torsions:
REMARK  status: ('A' for Active; 'I' for Inactive)
REMARK    1  A    between atoms: C_2  and  C_3 
REMARK    2  A    between atoms: C_3  and  O_4 
REMARK    3  A    between atoms: O_4  and  C_5 
REMARK    4  A    between atoms: C_7  and  C_8 
REMARK    5  A    between atoms: N_9  and  C_10 
REMARK    6  A    between atoms: C_10  and  C_11 
REMARK    7  A    between atoms: C_24  and  C_25 
REMARK    8  A    between atoms: C_26  and  O_27 
ROOT
HETATM    1  C   UNL     1       6.266  28.417  54.711  1.00  0.00     0.159 C 
HETATM    2  N   UNL     1       6.137  28.465  56.191  1.00  0.00    -0.329 N 
HETATM    3  C   UNL     1       5.207  29.425  56.621  1.00  0.00     0.273 C 
HETATM    4  O   UNL     1       5.022  29.871  57.738  1.00  0.00    -0.266 OA
HETATM    5  C   UNL     1       4.545  29.799  55.428  1.00  0.00     0.129 A 
HETATM    6  C   UNL     1       5.097  29.235  54.315  1.00  0.00     0.034 A 
HETATM    7  N   UNL     1       3.495  30.536  55.049  1.00  0.00    -0.272 N 
HETATM    8  H   UNL     1       2.859  31.089  55.619  1.00  0.00     0.189 HD
HETATM    9  N   UNL     1       3.287  30.449  53.710  1.00  0.00    -0.173 NA
HETATM   10  C   UNL     1       4.289  29.655  53.243  1.00  0.00     0.101 A 
ENDROOT
BRANCH   1  11
HETATM   11  C   UNL     1       6.152  27.043  54.107  1.00  0.00    -0.028 A 
HETATM   12  C   UNL     1       7.249  26.177  53.963  1.00  0.00     0.046 A 
HETATM   13  C   UNL     1       7.097  24.892  53.430  1.00  0.00     0.069 A 
HETATM   14  C   UNL     1       5.834  24.466  53.019  1.00  0.00     0.037 A 
HETATM   15  C   UNL     1       4.737  25.319  53.131  1.00  0.00     0.003 A 
HETATM   16  C   UNL     1       4.895  26.597  53.664  1.00  0.00     0.010 A 
BRANCH  13  17
HETATM   17  O   UNL     1       8.251  24.162  53.356  1.00  0.00    -0.348 OA
BRANCH  17  18
HETATM   18  C   UNL     1       8.348  23.023  54.211  1.00  0.00     0.202 C 
BRANCH  18  19
HETATM   19  C   UNL     1       8.636  21.832  53.348  1.00  0.00    -0.011 C 
HETATM   20  C   UNL     1       7.820  20.779  53.205  1.00  0.00     0.009 C 
ENDBRANCH  18  19
ENDBRANCH  17  18
ENDBRANCH  13  17
ENDBRANCH   1  11
BRANCH   2  21
HETATM   21  C   UNL     1       7.179  27.961  57.058  1.00  0.00     0.165 C 
BRANCH  21  22
HETATM   22  C   UNL     1       8.338  28.916  57.194  1.00  0.00    -0.037 A 
HETATM   23  C   UNL     1       9.294  29.041  56.181  1.00  0.00     0.028 A 
HETATM   24  C   UNL     1      10.352  29.918  56.368  1.00  0.00     0.116 A 
HETATM   25  N   UNL     1      10.518  30.673  57.475  1.00  0.00    -0.273 NA
HETATM   26  C   UNL     1       9.592  30.531  58.446  1.00  0.00     0.116 A 
HETATM   27  C   UNL     1       8.500  29.681  58.353  1.00  0.00     0.028 A 
ENDBRANCH  21  22
ENDBRANCH   2  21
BRANCH  10  28
HETATM   28  C   UNL     1       4.356  29.306  51.822  1.00  0.00     0.028 A 
HETATM   29  C   UNL     1       3.240  28.781  51.147  1.00  0.00     0.078 A 
HETATM   30  C   UNL     1       3.319  28.380  49.815  1.00  0.00     0.037 A 
HETATM   31  C   UNL     1       4.518  28.520  49.121  1.00  0.00     0.003 A 
HETATM   32  C   UNL     1       5.628  29.070  49.758  1.00  0.00     0.001 A 
HETATM   33  C   UNL     1       5.547  29.466  51.098  1.00  0.00     0.017 A 
BRANCH  29  34
HETATM   34  O   UNL     1       2.017  28.633  51.751  1.00  0.00    -0.360 OA
HETATM   35  H   UNL     1       1.423  28.245  51.068  1.00  0.00     0.217 HD
ENDBRANCH  29  34
ENDBRANCH  10  28
TORSDOF 8
ENDMDL
MODEL 4
REMARK VINA RESULT:      -9.0      2.218      6.093
REMARK  8 active torsions:
REMARK  status: ('A' for Active; 'I' for Inactive)
REMARK    1  A    between atoms: C_2  and  C_3 
REMARK    2  A    between atoms: C_3  and  O_4 
REMARK    3  A    between atoms: O_4  and  C_5 
REMARK    4  A    between atoms: C_7  and  C_8 
REMARK    5  A    between atoms: N_9  and  C_10 
REMARK    6  A    between atoms: C_10  and  C_11 
REMARK    7  A    between atoms: C_24  and  C_25 
REMARK    8  A    between atoms: C_26  and  O_27 
ROOT
HETATM    1  C   UNL     1       5.434  26.146  55.534  1.00  0.00     0.159 C 
HETATM    2  N   UNL     1       5.332  27.523  56.085  1.00  0.00    -0.329 N 
HETATM    3  C   UNL     1       6.367  27.822  56.986  1.00  0.00     0.273 C 
HETATM    4  O   UNL     1       6.463  28.751  57.766  1.00  0.00    -0.266 OA
HETATM    5  C   UNL     1       7.275  26.753  56.810  1.00  0.00     0.129 A 
HETATM    6  C   UNL     1       6.800  25.783  55.976  1.00  0.00     0.034 A 
HETATM    7  N   UNL     1       8.507  26.404  57.200  1.00  0.00    -0.272 N 
HETATM    8  H   UNL     1       9.148  26.896  57.819  1.00  0.00     0.189 HD
HETATM    9  N   UNL     1       8.901  25.244  56.613  1.00  0.00    -0.173 NA
HETATM   10  C   UNL     1       7.840  24.843  55.863  1.00  0.00     0.101 A 
ENDROOT
BRANCH   1  11
HETATM   11  C   UNL     1       5.343  26.052  54.035  1.00  0.00    -0.028 A 
HETATM   12  C   UNL     1       5.796  27.068  53.176  1.00  0.00     0.046 A 
HETATM   13  C   UNL     1       5.728  26.928  51.786  1.00  0.00     0.069 A 
HETATM   14  C   UNL     1       5.186  25.765  51.239  1.00  0.00     0.037 A 
HETATM   15  C   UNL     1       4.708  24.756  52.074  1.00  0.00     0.003 A 
HETATM   16  C   UNL     1       4.780  24.901  53.459  1.00  0.00     0.010 A 
BRANCH  13  17
HETATM   17  O   UNL     1       6.212  27.995  51.078  1.00  0.00    -0.348 OA
BRANCH  17  18
HETATM   18  C   UNL     1       5.258  28.775  50.358  1.00  0.00     0.202 C 
BRANCH  18  19
HETATM   19  C   UNL     1       5.607  28.685  48.902  1.00  0.00    -0.011 C 
HETATM   20  C   UNL     1       5.093  27.789  48.049  1.00  0.00     0.009 C 
ENDBRANCH  18  19
ENDBRANCH  17  18
ENDBRANCH  13  17
ENDBRANCH   1  11
BRANCH   2  21
HETATM   21  C   UNL     1       4.081  28.249  56.081  1.00  0.00     0.165 C 
BRANCH  21  22
HETATM   22  C   UNL     1       4.147  29.520  55.274  1.00  0.00    -0.037 A 
HETATM   23  C   UNL     1       4.530  30.730  55.862  1.00  0.00     0.028 A 
HETATM   24  C   UNL     1       4.550  31.874  55.079  1.00  0.00     0.116 A 
HETATM   25  N   UNL     1       4.229  31.895  53.768  1.00  0.00    -0.273 NA
HETATM   26  C   UNL     1       3.852  30.721  53.221  1.00  0.00     0.116 A 
HETATM   27  C   UNL     1       3.798  29.525  53.921  1.00  0.00     0.028 A 
ENDBRANCH  21  22
ENDBRANCH   2  21
BRANCH  10  28
HETATM   28  C   UNL     1       7.926  23.629  55.047  1.00  0.00     0.028 A 
HETATM   29  C   UNL     1       8.110  22.366  55.638  1.00  0.00     0.078 A 
HETATM   30  C   UNL     1       8.264  21.218  54.864  1.00  0.00     0.037 A 
HETATM   31  C   UNL     1       8.215  21.309  53.475  1.00  0.00     0.003 A 
HETATM   32  C   UNL     1       8.000  22.544  52.868  1.00  0.00     0.001 A 
HETATM   33  C   UNL     1       7.850  23.696  53.648  1.00  0.00     0.017 A 
BRANCH  29  34
HETATM   34  O   UNL     1       8.146  22.188  56.998  1.00  0.00    -0.360 OA
HETATM   35  H   UNL     1       8.640  22.959  57.359  1.00  0.00     0.217 HD
ENDBRANCH  29  34
ENDBRANCH  10  28
TORSDOF 8
ENDMDL
MODEL 5
REMARK VINA RESULT:      -8.6      2.469      6.805
REMARK  8 active torsions:
REMARK  status: ('A' for Active; 'I' for Inactive)
REMARK    1  A    between atoms: C_2  and  C_3 
REMARK    2  A    between atoms: C_3  and  O_4 
REMARK    3  A    between atoms: O_4  and  C_5 
REMARK    4  A    between atoms: C_7  and  C_8 
REMARK    5  A    between atoms: N_9  and  C_10 
REMARK    6  A    between atoms: C_10  and  C_11 
REMARK    7  A    between atoms: C_24  and  C_25 
REMARK    8  A    between atoms: C_26  and  O_27 
ROOT
HETATM    1  C   UNL     1       6.180  27.978  52.820  1.00  0.00     0.159 C 
HETATM    2  N   UNL     1       5.262  28.634  51.852  1.00  0.00    -0.329 N 
HETATM    3  C   UNL     1       4.621  27.714  51.006  1.00  0.00     0.273 C 
HETATM    4  O   UNL     1       3.994  27.917  49.983  1.00  0.00    -0.266 OA
HETATM    5  C   UNL     1       4.912  26.464  51.599  1.00  0.00     0.129 A 
HETATM    6  C   UNL     1       5.778  26.562  52.649  1.00  0.00     0.034 A 
HETATM    7  N   UNL     1       4.565  25.179  51.460  1.00  0.00    -0.272 N 
HETATM    8  H   UNL     1       3.939  24.753  50.781  1.00  0.00     0.189 HD
HETATM    9  N   UNL     1       5.136  24.406  52.421  1.00  0.00    -0.173 NA
HETATM   10  C   UNL     1       5.904  25.256  53.155  1.00  0.00     0.101 A 
ENDROOT
BRANCH   1  11
HETATM   11  C   UNL     1       5.991  28.390  54.254  1.00  0.00    -0.028 A 
HETATM   12  C   UNL     1       7.047  28.829  55.070  1.00  0.00     0.046 A 
HETATM   13  C   UNL     1       6.826  29.240  56.389  1.00  0.00     0.069 A 
HETATM   14  C   UNL     1       5.533  29.197  56.912  1.00  0.00     0.037 A 
HETATM   15  C   UNL     1       4.475  28.742  56.127  1.00  0.00     0.003 A 
HETATM   16  C   UNL     1       4.702  28.336  54.813  1.00  0.00     0.010 A 
BRANCH  13  17
HETATM   17  O   UNL     1       7.947  29.646  57.059  1.00  0.00    -0.348 OA
BRANCH  17  18
HETATM   18  C   UNL     1       9.051  28.741  57.074  1.00  0.00     0.202 C 
BRANCH  18  19
HETATM   19  C   UNL     1      10.252  29.484  56.570  1.00  0.00    -0.011 C 
HETATM   20  C   UNL     1      11.204  30.013  57.350  1.00  0.00     0.009 C 
ENDBRANCH  18  19
ENDBRANCH  17  18
ENDBRANCH  13  17
ENDBRANCH   1  11
BRANCH   2  21
HETATM   21  C   UNL     1       5.402  30.031  51.504  1.00  0.00     0.165 C 
BRANCH  21  22
HETATM   22  C   UNL     1       4.193  30.849  51.882  1.00  0.00    -0.037 A 
HETATM   23  C   UNL     1       3.229  31.195  50.929  1.00  0.00     0.028 A 
HETATM   24  C   UNL     1       2.149  31.970  51.326  1.00  0.00     0.116 A 
HETATM   25  N   UNL     1       1.961  32.411  52.588  1.00  0.00    -0.273 NA
HETATM   26  C   UNL     1       2.907  32.076  53.490  1.00  0.00     0.116 A 
HETATM   27  C   UNL     1       4.022  31.308  53.191  1.00  0.00     0.028 A 
ENDBRANCH  21  22
ENDBRANCH   2  21
BRANCH  10  28
HETATM   28  C   UNL     1       6.646  24.766  54.320  1.00  0.00     0.028 A 
HETATM   29  C   UNL     1       7.738  23.893  54.172  1.00  0.00     0.078 A 
HETATM   30  C   UNL     1       8.402  23.367  55.279  1.00  0.00     0.037 A 
HETATM   31  C   UNL     1       7.996  23.725  56.562  1.00  0.00     0.003 A 
HETATM   32  C   UNL     1       6.938  24.615  56.733  1.00  0.00     0.001 A 
HETATM   33  C   UNL     1       6.270  25.137  55.619  1.00  0.00     0.017 A 
BRANCH  29  34
HETATM   34  O   UNL     1       8.215  23.510  52.944  1.00  0.00    -0.360 OA
HETATM   35  H   UNL     1       7.447  23.120  52.466  1.00  0.00     0.217 HD
ENDBRANCH  29  34
ENDBRANCH  10  28
TORSDOF 8
ENDMDL
MODEL 6
REMARK VINA RESULT:      -8.5      2.786      7.032
REMARK  8 active torsions:
REMARK  status: ('A' for Active; 'I' for Inactive)
REMARK    1  A    between atoms: C_2  and  C_3 
REMARK    2  A    between atoms: C_3  and  O_4 
REMARK    3  A    between atoms: O_4  and  C_5 
REMARK    4  A    between atoms: C_7  and  C_8 
REMARK    5  A    between atoms: N_9  and  C_10 
REMARK    6  A    between atoms: C_10  and  C_11 
REMARK    7  A    between atoms: C_24  and  C_25 
REMARK    8  A    between atoms: C_26  and  O_27 
ROOT
HETATM    1  C   UNL     1       5.154  29.693  57.349  1.00  0.00     0.159 C 
HETATM    2  N   UNL     1       4.359  29.906  56.112  1.00  0.00    -0.329 N 
HETATM    3  C   UNL     1       3.922  31.233  55.971  1.00  0.00     0.273 C 
HETATM    4  O   UNL     1       3.088  31.692  55.213  1.00  0.00    -0.266 OA
HETATM    5  C   UNL     1       4.655  31.926  56.962  1.00  0.00     0.129 A 
HETATM    6  C   UNL     1       5.389  31.097  57.758  1.00  0.00     0.034 A 
HETATM    7  N   UNL     1       4.878  33.187  57.350  1.00  0.00    -0.272 N 
HETATM    8  H   UNL     1       4.496  34.052  56.975  1.00  0.00     0.189 HD
HETATM    9  N   UNL     1       5.784  33.240  58.361  1.00  0.00    -0.173 NA
HETATM   10  C   UNL     1       6.095  31.944  58.632  1.00  0.00     0.101 A 
ENDROOT
BRANCH   1  11
HETATM   11  C   UNL     1       6.472  28.996  57.147  1.00  0.00    -0.028 A 
HETATM   12  C   UNL     1       6.787  27.764  57.746  1.00  0.00     0.046 A 
HETATM   13  C   UNL     1       8.009  27.129  57.504  1.00  0.00     0.069 A 
HETATM   14  C   UNL     1       8.942  27.736  56.663  1.00  0.00     0.037 A 
HETATM   15  C   UNL     1       8.659  28.968  56.078  1.00  0.00     0.003 A 
HETATM   16  C   UNL     1       7.438  29.596  56.321  1.00  0.00     0.010 A 
BRANCH  13  17
HETATM   17  O   UNL     1       8.173  25.935  58.152  1.00  0.00    -0.348 OA
BRANCH  17  18
HETATM   18  C   UNL     1       8.603  24.827  57.361  1.00  0.00     0.202 C 
BRANCH  18  19
HETATM   19  C   UNL     1       7.411  24.318  56.609  1.00  0.00    -0.011 C 
HETATM   20  C   UNL     1       7.354  24.173  55.278  1.00  0.00     0.009 C 
ENDBRANCH  18  19
ENDBRANCH  17  18
ENDBRANCH  13  17
ENDBRANCH   1  11
BRANCH   2  21
HETATM   21  C   UNL     1       3.711  28.806  55.430  1.00  0.00     0.165 C 
BRANCH  21  22
HETATM   22  C   UNL     1       4.450  28.372  54.190  1.00  0.00    -0.037 A 
HETATM   23  C   UNL     1       5.307  27.266  54.211  1.00  0.00     0.028 A 
HETATM   24  C   UNL     1       5.980  26.924  53.047  1.00  0.00     0.116 A 
HETATM   25  N   UNL     1       5.855  27.592  51.881  1.00  0.00    -0.273 NA
HETATM   26  C   UNL     1       5.033  28.662  51.883  1.00  0.00     0.116 A 
HETATM   27  C   UNL     1       4.318  29.083  52.995  1.00  0.00     0.028 A 
ENDBRANCH  21  22
ENDBRANCH   2  21
BRANCH  10  28
HETATM   28  C   UNL     1       7.089  31.619  59.658  1.00  0.00     0.028 A 
HETATM   29  C   UNL     1       6.867  31.929  61.011  1.00  0.00     0.078 A 
HETATM   30  C   UNL     1       7.838  31.688  61.981  1.00  0.00     0.037 A 
HETATM   31  C   UNL     1       9.050  31.107  61.615  1.00  0.00     0.003 A 
HETATM   32  C   UNL     1       9.280  30.760  60.285  1.00  0.00     0.001 A 
HETATM   33  C   UNL     1       8.304  31.008  59.313  1.00  0.00     0.017 A 
BRANCH  29  34
HETATM   34  O   UNL     1       5.692  32.480  61.457  1.00  0.00    -0.360 OA
HETATM   35  H   UNL     1       5.853  33.450  61.514  1.00  0.00     0.217 HD
ENDBRANCH  29  34
ENDBRANCH  10  28
TORSDOF 8
ENDMDL
MODEL 7
REMARK VINA RESULT:      -8.5      2.485      5.567
REMARK  8 active torsions:
REMARK  status: ('A' for Active; 'I' for Inactive)
REMARK    1  A    between atoms: C_2  and  C_3 
REMARK    2  A    between atoms: C_3  and  O_4 
REMARK    3  A    between atoms: O_4  and  C_5 
REMARK    4  A    between atoms: C_7  and  C_8 
REMARK    5  A    between atoms: N_9  and  C_10 
REMARK    6  A    between atoms: C_10  and  C_11 
REMARK    7  A    between atoms: C_24  and  C_25 
REMARK    8  A    between atoms: C_26  and  O_27 
ROOT
HETATM    1  C   UNL     1       4.826  26.987  53.984  1.00  0.00     0.159 C 
HETATM    2  N   UNL     1       5.479  25.653  54.051  1.00  0.00    -0.329 N 
HETATM    3  C   UNL     1       5.775  25.132  52.781  1.00  0.00     0.273 C 
HETATM    4  O   UNL     1       6.098  24.001  52.470  1.00  0.00    -0.266 OA
HETATM    5  C   UNL     1       5.565  26.232  51.918  1.00  0.00     0.129 A 
HETATM    6  C   UNL     1       5.046  27.319  52.558  1.00  0.00     0.034 A 
HETATM    7  N   UNL     1       5.752  26.552  50.632  1.00  0.00    -0.272 N 
HETATM    8  H   UNL     1       6.122  25.981  49.875  1.00  0.00     0.189 HD
HETATM    9  N   UNL     1       5.419  27.846  50.391  1.00  0.00    -0.173 NA
HETATM   10  C   UNL     1       4.964  28.326  51.580  1.00  0.00     0.101 A 
ENDROOT
BRANCH   1  11
HETATM   11  C   UNL     1       5.449  28.045  54.854  1.00  0.00    -0.028 A 
HETATM   12  C   UNL     1       6.837  28.253  54.931  1.00  0.00     0.046 A 
HETATM   13  C   UNL     1       7.377  29.271  55.724  1.00  0.00     0.069 A 
HETATM   14  C   UNL     1       6.524  30.088  56.466  1.00  0.00     0.037 A 
HETATM   15  C   UNL     1       5.146  29.882  56.423  1.00  0.00     0.003 A 
HETATM   16  C   UNL     1       4.614  28.867  55.629  1.00  0.00     0.010 A 
BRANCH  13  17
HETATM   17  O   UNL     1       8.742  29.357  55.695  1.00  0.00    -0.348 OA
BRANCH  17  18
HETATM   18  C   UNL     1       9.438  28.946  56.872  1.00  0.00     0.202 C 
BRANCH  18  19
HETATM   19  C   UNL     1      10.608  29.866  57.051  1.00  0.00    -0.011 C 
HETATM   20  C   UNL     1      10.588  30.992  57.777  1.00  0.00     0.009 C 
ENDBRANCH  18  19
ENDBRANCH  17  18
ENDBRANCH  13  17
ENDBRANCH   1  11
BRANCH   2  21
HETATM   21  C   UNL     1       5.360  24.810  55.220  1.00  0.00     0.165 C 
BRANCH  21  22
HETATM   22  C   UNL     1       6.670  24.630  55.945  1.00  0.00    -0.037 A 
HETATM   23  C   UNL     1       7.064  25.514  56.955  1.00  0.00     0.028 A 
HETATM   24  C   UNL     1       8.289  25.315  57.573  1.00  0.00     0.116 A 
HETATM   25  N   UNL     1       9.133  24.308  57.266  1.00  0.00    -0.273 NA
HETATM   26  C   UNL     1       8.741  23.471  56.282  1.00  0.00     0.116 A 
HETATM   27  C   UNL     1       7.536  23.588  55.605  1.00  0.00     0.028 A 
ENDBRANCH  21  22
ENDBRANCH   2  21
BRANCH  10  28
HETATM   28  C   UNL     1       4.548  29.726  51.703  1.00  0.00     0.028 A 
HETATM   29  C   UNL     1       5.232  30.751  51.025  1.00  0.00     0.078 A 
HETATM   30  C   UNL     1       4.887  32.090  51.195  1.00  0.00     0.037 A 
HETATM   31  C   UNL     1       3.829  32.430  52.035  1.00  0.00     0.003 A 
HETATM   32  C   UNL     1       3.115  31.430  52.691  1.00  0.00     0.001 A 
HETATM   33  C   UNL     1       3.468  30.086  52.522  1.00  0.00     0.017 A 
BRANCH  29  34
HETATM   34  O   UNL     1       6.268  30.499  50.162  1.00  0.00    -0.360 OA
HETATM   35  H   UNL     1       7.033  31.022  50.497  1.00  0.00     0.217 HD
ENDBRANCH  29  34
ENDBRANCH  10  28
TORSDOF 8
ENDMDL
MODEL 8
REMARK VINA RESULT:      -8.4      9.107     12.727
REMARK  8 active torsions:
REMARK  status: ('A' for Active; 'I' for Inactive)
REMARK    1  A    between atoms: C_2  and  C_3 
REMARK    2  A    between atoms: C_3  and  O_4 
REMARK    3  A    between atoms: O_4  and  C_5 
REMARK    4  A    between atoms: C_7  and  C_8 
REMARK    5  A    between atoms: N_9  and  C_10 
REMARK    6  A    between atoms: C_10  and  C_11 
REMARK    7  A    between atoms: C_24  and  C_25 
REMARK    8  A    between atoms: C_26  and  O_27 
ROOT
HETATM    1  C   UNL     1       5.285  35.083  62.129  1.00  0.00     0.159 C 
HETATM    2  N   UNL     1       3.896  35.613  62.143  1.00  0.00    -0.329 N 
HETATM    3  C   UNL     1       3.095  35.056  61.134  1.00  0.00     0.273 C 
HETATM    4  O   UNL     1       2.005  35.416  60.730  1.00  0.00    -0.266 OA
HETATM    5  C   UNL     1       3.877  33.982  60.649  1.00  0.00     0.129 A 
HETATM    6  C   UNL     1       5.124  33.941  61.201  1.00  0.00     0.034 A 
HETATM    7  N   UNL     1       3.754  32.945  59.812  1.00  0.00    -0.272 N 
HETATM    8  H   UNL     1       2.959  32.674  59.237  1.00  0.00     0.189 HD
HETATM    9  N   UNL     1       4.870  32.171  59.816  1.00  0.00    -0.173 NA
HETATM   10  C   UNL     1       5.733  32.792  60.665  1.00  0.00     0.101 A 
ENDROOT
BRANCH   1  11
HETATM   11  C   UNL     1       5.791  34.590  63.458  1.00  0.00    -0.028 A 
HETATM   12  C   UNL     1       4.958  34.411  64.576  1.00  0.00     0.046 A 
HETATM   13  C   UNL     1       5.459  33.915  65.784  1.00  0.00     0.069 A 
HETATM   14  C   UNL     1       6.816  33.607  65.889  1.00  0.00     0.037 A 
HETATM   15  C   UNL     1       7.663  33.800  64.799  1.00  0.00     0.003 A 
HETATM   16  C   UNL     1       7.157  34.293  63.597  1.00  0.00     0.010 A 
BRANCH  13  17
HETATM   17  O   UNL     1       4.530  33.789  66.781  1.00  0.00    -0.348 OA
BRANCH  17  18
HETATM   18  C   UNL     1       4.362  34.909  67.649  1.00  0.00     0.202 C 
BRANCH  18  19
HETATM   19  C   UNL     1       5.631  35.071  68.431  1.00  0.00    -0.011 C 
HETATM   20  C   UNL     1       5.839  34.575  69.658  1.00  0.00     0.009 C 
ENDBRANCH  18  19
ENDBRANCH  17  18
ENDBRANCH  13  17
ENDBRANCH   1  11
BRANCH   2  21
HETATM   21  C   UNL     1       3.574  36.875  62.773  1.00  0.00     0.165 C 
BRANCH  21  22
HETATM   22  C   UNL     1       4.696  37.877  62.679  1.00  0.00    -0.037 A 
HETATM   23  C   UNL     1       4.982  38.529  61.475  1.00  0.00     0.028 A 
HETATM   24  C   UNL     1       6.041  39.424  61.439  1.00  0.00     0.116 A 
HETATM   25  N   UNL     1       6.818  39.716  62.503  1.00  0.00    -0.273 NA
HETATM   26  C   UNL     1       6.533  39.070  63.653  1.00  0.00     0.116 A 
HETATM   27  C   UNL     1       5.497  38.157  63.789  1.00  0.00     0.028 A 
ENDBRANCH  21  22
ENDBRANCH   2  21
BRANCH  10  28
HETATM   28  C   UNL     1       7.046  32.205  60.947  1.00  0.00     0.028 A 
HETATM   29  C   UNL     1       7.220  31.281  61.993  1.00  0.00     0.078 A 
HETATM   30  C   UNL     1       8.478  30.774  62.312  1.00  0.00     0.037 A 
HETATM   31  C   UNL     1       9.590  31.167  61.572  1.00  0.00     0.003 A 
HETATM   32  C   UNL     1       9.437  32.055  60.509  1.00  0.00     0.001 A 
HETATM   33  C   UNL     1       8.173  32.567  60.195  1.00  0.00     0.017 A 
BRANCH  29  34
HETATM   34  O   UNL     1       6.173  30.825  62.754  1.00  0.00    -0.360 OA
HETATM   35  H   UNL     1       6.196  31.349  63.587  1.00  0.00     0.217 HD
ENDBRANCH  29  34
ENDBRANCH  10  28
TORSDOF 8
ENDMDL
MODEL 9
REMARK VINA RESULT:      -8.4      2.867      6.289
REMARK  8 active torsions:
REMARK  status: ('A' for Active; 'I' for Inactive)
REMARK    1  A    between atoms: C_2  and  C_3 
REMARK    2  A    between atoms: C_3  and  O_4 
REMARK    3  A    between atoms: O_4  and  C_5 
REMARK    4  A    between atoms: C_7  and  C_8 
REMARK    5  A    between atoms: N_9  and  C_10 
REMARK    6  A    between atoms: C_10  and  C_11 
REMARK    7  A    between atoms: C_24  and  C_25 
REMARK    8  A    between atoms: C_26  and  O_27 
ROOT
HETATM    1  C   UNL     1       5.671  28.839  51.778  1.00  0.00     0.159 C 
HETATM    2  N   UNL     1       4.778  29.803  51.084  1.00  0.00    -0.329 N 
HETATM    3  C   UNL     1       4.136  29.240  49.970  1.00  0.00     0.273 C 
HETATM    4  O   UNL     1       3.528  29.792  49.072  1.00  0.00    -0.266 OA
HETATM    5  C   UNL     1       4.400  27.857  50.104  1.00  0.00     0.129 A 
HETATM    6  C   UNL     1       5.251  27.575  51.131  1.00  0.00     0.034 A 
HETATM    7  N   UNL     1       4.035  26.704  49.531  1.00  0.00    -0.272 N 
HETATM    8  H   UNL     1       3.413  26.546  48.742  1.00  0.00     0.189 HD
HETATM    9  N   UNL     1       4.580  25.639  50.175  1.00  0.00    -0.173 NA
HETATM   10  C   UNL     1       5.350  26.172  51.162  1.00  0.00     0.101 A 
ENDROOT
BRANCH   1  11
HETATM   11  C   UNL     1       5.468  28.740  53.266  1.00  0.00    -0.028 A 
HETATM   12  C   UNL     1       6.532  28.689  54.183  1.00  0.00     0.046 A 
HETATM   13  C   UNL     1       6.301  28.635  55.562  1.00  0.00     0.069 A 
HETATM   14  C   UNL     1       4.990  28.615  56.038  1.00  0.00     0.037 A 
HETATM   15  C   UNL     1       3.921  28.641  55.144  1.00  0.00     0.003 A 
HETATM   16  C   UNL     1       4.157  28.697  53.771  1.00  0.00     0.010 A 
BRANCH  13  17
HETATM   17  O   UNL     1       7.433  28.594  56.330  1.00  0.00    -0.348 OA
BRANCH  17  18
HETATM   18  C   UNL     1       7.465  27.625  57.378  1.00  0.00     0.202 C 
BRANCH  18  19
HETATM   19  C   UNL     1       7.875  26.317  56.771  1.00  0.00    -0.011 C 
HETATM   20  C   UNL     1       8.329  25.264  57.465  1.00  0.00     0.009 C 
ENDBRANCH  18  19
ENDBRANCH  17  18
ENDBRANCH  13  17
ENDBRANCH   1  11
BRANCH   2  21
HETATM   21  C   UNL     1       4.944  31.232  51.236  1.00  0.00     0.165 C 
BRANCH  21  22
HETATM   22  C   UNL     1       3.820  31.871  52.012  1.00  0.00    -0.037 A 
HETATM   23  C   UNL     1       2.627  32.239  51.382  1.00  0.00     0.028 A 
HETATM   24  C   UNL     1       1.635  32.845  52.139  1.00  0.00     0.116 A 
HETATM   25  N   UNL     1       1.744  33.098  53.461  1.00  0.00    -0.273 NA
HETATM   26  C   UNL     1       2.906  32.745  54.048  1.00  0.00     0.116 A 
HETATM   27  C   UNL     1       3.956  32.137  53.377  1.00  0.00     0.028 A 
ENDBRANCH  21  22
ENDBRANCH   2  21
BRANCH  10  28
HETATM   28  C   UNL     1       6.067  25.300  52.096  1.00  0.00     0.028 A 
HETATM   29  C   UNL     1       5.466  24.863  53.290  1.00  0.00     0.078 A 
HETATM   30  C   UNL     1       6.168  24.092  54.215  1.00  0.00     0.037 A 
HETATM   31  C   UNL     1       7.484  23.723  53.951  1.00  0.00     0.003 A 
HETATM   32  C   UNL     1       8.089  24.115  52.758  1.00  0.00     0.001 A 
HETATM   33  C   UNL     1       7.384  24.893  51.834  1.00  0.00     0.017 A 
BRANCH  29  34
HETATM   34  O   UNL     1       4.168  25.163  53.614  1.00  0.00    -0.360 OA
HETATM   35  H   UNL     1       3.912  25.918  53.035  1.00  0.00     0.217 HD
ENDBRANCH  29  34
ENDBRANCH  10  28
TORSDOF 8
ENDMDL
MODEL 10
REMARK VINA RESULT:      -8.3      2.671      6.181
REMARK  8 active torsions:
REMARK  status: ('A' for Active; 'I' for Inactive)
REMARK    1  A    between atoms: C_2  and  C_3 
REMARK    2  A    between atoms: C_3  and  O_4 
REMARK    3  A    between atoms: O_4  and  C_5 
REMARK    4  A    between atoms: C_7  and  C_8 
REMARK    5  A    between atoms: N_9  and  C_10 
REMARK    6  A    between atoms: C_10  and  C_11 
REMARK    7  A    between atoms: C_24  and  C_25 
REMARK    8  A    between atoms: C_26  and  O_27 
ROOT
HETATM    1  C   UNL     1       4.245  27.668  53.587  1.00  0.00     0.159 C 
HETATM    2  N   UNL     1       4.827  26.515  52.850  1.00  0.00    -0.329 N 
HETATM    3  C   UNL     1       5.003  26.781  51.482  1.00  0.00     0.273 C 
HETATM    4  O   UNL     1       5.240  26.009  50.572  1.00  0.00    -0.266 OA
HETATM    5  C   UNL     1       4.794  28.177  51.390  1.00  0.00     0.129 A 
HETATM    6  C   UNL     1       4.382  28.732  52.566  1.00  0.00     0.034 A 
HETATM    7  N   UNL     1       4.907  29.153  50.482  1.00  0.00    -0.272 N 
HETATM    8  H   UNL     1       5.190  29.094  49.507  1.00  0.00     0.189 HD
HETATM    9  N   UNL     1       4.630  30.368  51.024  1.00  0.00    -0.173 NA
HETATM   10  C   UNL     1       4.287  30.113  52.316  1.00  0.00     0.101 A 
ENDROOT
BRANCH   1  11
HETATM   11  C   UNL     1       4.986  28.063  54.835  1.00  0.00    -0.028 A 
HETATM   12  C   UNL     1       6.365  28.334  54.854  1.00  0.00     0.046 A 
HETATM   13  C   UNL     1       7.012  28.734  56.029  1.00  0.00     0.069 A 
HETATM   14  C   UNL     1       6.278  28.853  57.209  1.00  0.00     0.037 A 
HETATM   15  C   UNL     1       4.914  28.566  57.217  1.00  0.00     0.003 A 
HETATM   16  C   UNL     1       4.275  28.169  56.043  1.00  0.00     0.010 A 
BRANCH  13  17
HETATM   17  O   UNL     1       8.353  28.967  55.893  1.00  0.00    -0.348 OA
BRANCH  17  18
HETATM   18  C   UNL     1       9.193  28.527  56.959  1.00  0.00     0.202 C 
BRANCH  18  19
HETATM   19  C   UNL     1      10.442  29.356  56.924  1.00  0.00    -0.011 C 
HETATM   20  C   UNL     1      10.541  30.604  57.401  1.00  0.00     0.009 C 
ENDBRANCH  18  19
ENDBRANCH  17  18
ENDBRANCH  13  17
ENDBRANCH   1  11
BRANCH   2  21
HETATM   21  C   UNL     1       4.743  25.167  53.367  1.00  0.00     0.165 C 
BRANCH  21  22
HETATM   22  C   UNL     1       6.074  24.643  53.845  1.00  0.00    -0.037 A 
HETATM   23  C   UNL     1       6.464  24.777  55.182  1.00  0.00     0.028 A 
HETATM   24  C   UNL     1       7.708  24.298  55.563  1.00  0.00     0.116 A 
HETATM   25  N   UNL     1       8.574  23.696  54.720  1.00  0.00    -0.273 NA
HETATM   26  C   UNL     1       8.185  23.585  53.433  1.00  0.00     0.116 A 
HETATM   27  C   UNL     1       6.963  24.034  52.956  1.00  0.00     0.028 A 
ENDBRANCH  21  22
ENDBRANCH   2  21
BRANCH  10  28
HETATM   28  C   UNL     1       3.960  31.214  53.226  1.00  0.00     0.028 A 
HETATM   29  C   UNL     1       2.847  32.043  52.995  1.00  0.00     0.078 A 
HETATM   30  C   UNL     1       2.573  33.134  53.817  1.00  0.00     0.037 A 
HETATM   31  C   UNL     1       3.398  33.405  54.905  1.00  0.00     0.003 A 
HETATM   32  C   UNL     1       4.486  32.578  55.174  1.00  0.00     0.001 A 
HETATM   33  C   UNL     1       4.762  31.485  54.344  1.00  0.00     0.017 A 
BRANCH  29  34
HETATM   34  O   UNL     1       1.973  31.830  51.960  1.00  0.00    -0.360 OA
HETATM   35  H   UNL     1       1.936  32.677  51.458  1.00  0.00     0.217 HD
ENDBRANCH  29  34
ENDBRANCH  10  28
TORSDOF 8
ENDMDL
