MODEL 1
REMARK VINA RESULT:      -8.4      0.000      0.000
REMARK  9 active torsions:
REMARK  status: ('A' for Active; 'I' for Inactive)
REMARK    1  A    between atoms: C_2  and  N_3 
REMARK    2  A    between atoms: C_2  and  C_23 
REMARK       I    between atoms: N_3  and  C_4 
REMARK       I    between atoms: C_4  and  N_5 
REMARK    3  A    between atoms: N_5  and  C_6 
REMARK    4  A    between atoms: C_6  and  C_7 
REMARK    5  A    between atoms: C_7  and  N_8 
REMARK    6  A    between atoms: C_7  and  C_14 
REMARK    7  A    between atoms: C_16  and  O_17 
REMARK    8  A    between atoms: C_23  and  C_24 
REMARK    9  A    between atoms: C_27  and  O_28 
ROOT
HETATM    1  N   UNL     1       8.306  23.613  56.080  1.00  0.00    -0.339 N 
HETATM    2  C   UNL     1       7.647  24.698  56.586  1.00  0.00     0.316 C 
HETATM    3  N   UNL     1       8.520  25.627  57.097  1.00  0.00    -0.341 N 
HETATM    4  O   UNL     1       6.443  24.894  56.521  1.00  0.00    -0.248 OA
HETATM    5  H   UNL     1       9.241  23.463  56.430  1.00  0.00     0.164 HD
HETATM    6  H   UNL     1       9.402  25.260  57.430  1.00  0.00     0.164 HD
ENDROOT
BRANCH   3   7
HETATM    7  C   UNL     1       8.028  26.852  57.711  1.00  0.00     0.162 C 
BRANCH   7   8
HETATM    8  C   UNL     1       8.265  28.142  56.867  1.00  0.00     0.238 C 
BRANCH   8   9
HETATM    9  N   UNL     1       7.108  28.575  55.980  1.00  0.00    -0.061 N 
HETATM   10  H   UNL     1       7.201  29.598  55.940  1.00  0.00     0.280 HD
HETATM   11  C   UNL     1       5.691  28.351  56.468  1.00  0.00     0.236 C 
HETATM   12  C   UNL     1       4.923  27.860  55.249  1.00  0.00     0.029 C 
HETATM   13  C   UNL     1       5.744  28.324  54.062  1.00  0.00     0.029 C 
HETATM   14  C   UNL     1       7.167  28.137  54.538  1.00  0.00     0.236 C 
ENDBRANCH   8   9
BRANCH   8  15
HETATM   15  C   UNL     1       8.755  29.319  57.701  1.00  0.00    -0.023 A 
HETATM   16  C   UNL     1       8.085  29.747  58.865  1.00  0.00     0.046 A 
HETATM   17  C   UNL     1       8.554  30.842  59.597  1.00  0.00     0.068 A 
HETATM   18  C   UNL     1       9.681  31.533  59.151  1.00  0.00     0.037 A 
HETATM   19  C   UNL     1      10.347  31.134  57.996  1.00  0.00     0.003 A 
HETATM   20  C   UNL     1       9.888  30.034  57.274  1.00  0.00     0.009 A 
BRANCH  17  21
HETATM   21  O   UNL     1       7.998  31.338  60.741  1.00  0.00    -0.356 OA
HETATM   22  C   UNL     1       7.097  32.431  60.615  1.00  0.00     0.210 C 
ENDBRANCH  17  21
ENDBRANCH   8  15
ENDBRANCH   7   8
ENDBRANCH   3   7
BRANCH   1  23
HETATM   23  C   UNL     1       7.641  22.373  55.664  1.00  0.00     0.086 C 
HETATM   24  C   UNL     1       8.103  21.141  56.441  1.00  0.00     0.032 C 
BRANCH  23  25
HETATM   25  C   UNL     1       7.742  22.146  54.138  1.00  0.00     0.063 C 
BRANCH  25  26
HETATM   26  C   UNL     1       7.290  23.352  53.339  1.00  0.00    -0.056 A 
HETATM   27  C   UNL     1       5.940  23.736  53.339  1.00  0.00     0.010 A 
HETATM   28  C   UNL     1       5.511  24.828  52.578  1.00  0.00     0.037 A 
HETATM   29  C   UNL     1       6.434  25.531  51.813  1.00  0.00     0.065 A 
HETATM   30  C   UNL     1       7.775  25.171  51.805  1.00  0.00     0.037 A 
HETATM   31  C   UNL     1       8.206  24.089  52.574  1.00  0.00     0.010 A 
BRANCH  29  32
HETATM   32  O   UNL     1       6.061  26.595  51.048  1.00  0.00    -0.361 OA
HETATM   33  H   UNL     1       6.819  27.196  50.951  1.00  0.00     0.217 HD
ENDBRANCH  29  32
ENDBRANCH  25  26
ENDBRANCH  23  25
ENDBRANCH   1  23
TORSDOF 9
ENDMDL
MODEL 2
REMARK VINA RESULT:      -8.3      2.417      9.164
REMARK  9 active torsions:
REMARK  status: ('A' for Active; 'I' for Inactive)
REMARK    1  A    between atoms: C_2  and  N_3 
REMARK    2  A    between atoms: C_2  and  C_23 
REMARK       I    between atoms: N_3  and  C_4 
REMARK       I    between atoms: C_4  and  N_5 
REMARK    3  A    between atoms: N_5  and  C_6 
REMARK    4  A    between atoms: C_6  and  C_7 
REMARK    5  A    between atoms: C_7  and  N_8 
REMARK    6  A    between atoms: C_7  and  C_14 
REMARK    7  A    between atoms: C_16  and  O_17 
REMARK    8  A    between atoms: C_23  and  C_24 
REMARK    9  A    between atoms: C_27  and  O_28 
ROOT
HETATM    1  N   UNL     1       8.043  30.263  59.993  1.00  0.00    -0.339 N 
HETATM    2  C   UNL     1       8.371  29.812  58.745  1.00  0.00     0.316 C 
HETATM    3  N   UNL     1       7.354  29.072  58.193  1.00  0.00    -0.341 N 
HETATM    4  O   UNL     1       9.390  30.092  58.131  1.00  0.00    -0.248 OA
HETATM    5  H   UNL     1       7.314  29.753  60.469  1.00  0.00     0.164 HD
HETATM    6  H   UNL     1       6.745  28.604  58.851  1.00  0.00     0.164 HD
ENDROOT
BRANCH   3   7
HETATM    7  C   UNL     1       7.503  28.472  56.875  1.00  0.00     0.162 C 
BRANCH   7   8
HETATM    8  C   UNL     1       6.524  27.293  56.583  1.00  0.00     0.238 C 
BRANCH   8   9
HETATM    9  N   UNL     1       5.607  27.476  55.383  1.00  0.00    -0.061 N 
HETATM   10  H   UNL     1       5.297  26.521  55.165  1.00  0.00     0.280 HD
HETATM   11  C   UNL     1       6.199  27.980  54.083  1.00  0.00     0.236 C 
HETATM   12  C   UNL     1       5.186  28.979  53.544  1.00  0.00     0.029 C 
HETATM   13  C   UNL     1       3.884  28.619  54.232  1.00  0.00     0.029 C 
HETATM   14  C   UNL     1       4.329  28.238  55.626  1.00  0.00     0.236 C 
ENDBRANCH   8   9
BRANCH   8  15
HETATM   15  C   UNL     1       7.223  25.942  56.507  1.00  0.00    -0.023 A 
HETATM   16  C   UNL     1       6.815  24.933  55.611  1.00  0.00     0.046 A 
HETATM   17  C   UNL     1       7.470  23.698  55.580  1.00  0.00     0.068 A 
HETATM   18  C   UNL     1       8.519  23.456  56.467  1.00  0.00     0.037 A 
HETATM   19  C   UNL     1       8.926  24.434  57.368  1.00  0.00     0.003 A 
HETATM   20  C   UNL     1       8.283  25.670  57.390  1.00  0.00     0.009 A 
BRANCH  17  21
HETATM   21  O   UNL     1       7.172  22.655  54.751  1.00  0.00    -0.356 OA
HETATM   22  C   UNL     1       7.960  22.499  53.577  1.00  0.00     0.210 C 
ENDBRANCH  17  21
ENDBRANCH   8  15
ENDBRANCH   7   8
ENDBRANCH   3   7
BRANCH   1  23
HETATM   23  C   UNL     1       8.998  30.894  60.912  1.00  0.00     0.086 C 
HETATM   24  C   UNL     1       9.153  30.151  62.238  1.00  0.00     0.032 C 
BRANCH  23  25
HETATM   25  C   UNL     1       8.681  32.390  61.138  1.00  0.00     0.063 C 
BRANCH  25  26
HETATM   26  C   UNL     1       7.614  32.606  62.193  1.00  0.00    -0.056 A 
HETATM   27  C   UNL     1       7.975  32.916  63.513  1.00  0.00     0.010 A 
HETATM   28  C   UNL     1       6.996  33.084  64.497  1.00  0.00     0.037 A 
HETATM   29  C   UNL     1       5.657  32.937  64.159  1.00  0.00     0.065 A 
HETATM   30  C   UNL     1       5.278  32.638  62.857  1.00  0.00     0.037 A 
HETATM   31  C   UNL     1       6.253  32.481  61.872  1.00  0.00     0.010 A 
BRANCH  29  32
HETATM   32  O   UNL     1       4.669  33.082  65.086  1.00  0.00    -0.361 OA
HETATM   33  H   UNL     1       5.071  33.173  65.966  1.00  0.00     0.217 HD
ENDBRANCH  29  32
ENDBRANCH  25  26
ENDBRANCH  23  25
ENDBRANCH   1  23
TORSDOF 9
ENDMDL
MODEL 3
REMARK VINA RESULT:      -8.3      3.666      7.572
REMARK  9 active torsions:
REMARK  status: ('A' for Active; 'I' for Inactive)
REMARK    1  A    between atoms: C_2  and  N_3 
REMARK    2  A    between atoms: C_2  and  C_23 
REMARK       I    between atoms: N_3  and  C_4 
REMARK       I    between atoms: C_4  and  N_5 
REMARK    3  A    between atoms: N_5  and  C_6 
REMARK    4  A    between atoms: C_6  and  C_7 
REMARK    5  A    between atoms: C_7  and  N_8 
REMARK    6  A    between atoms: C_7  and  C_14 
REMARK    7  A    between atoms: C_16  and  O_17 
REMARK    8  A    between atoms: C_23  and  C_24 
REMARK    9  A    between atoms: C_27  and  O_28 
ROOT
HETATM    1  N   UNL     1       3.889  28.217  51.870  1.00  0.00    -0.339 N 
HETATM    2  C   UNL     1       4.535  27.025  52.041  1.00  0.00     0.316 C 
HETATM    3  N   UNL     1       4.201  26.436  53.236  1.00  0.00    -0.341 N 
HETATM    4  O   UNL     1       5.249  26.476  51.214  1.00  0.00    -0.248 OA
HETATM    5  H   UNL     1       3.557  28.662  52.712  1.00  0.00     0.164 HD
HETATM    6  H   UNL     1       3.923  27.070  53.973  1.00  0.00     0.164 HD
ENDROOT
BRANCH   3   7
HETATM    7  C   UNL     1       4.797  25.168  53.632  1.00  0.00     0.162 C 
BRANCH   7   8
HETATM    8  C   UNL     1       6.277  25.267  54.113  1.00  0.00     0.238 C 
BRANCH   8   9
HETATM    9  N   UNL     1       6.496  25.990  55.433  1.00  0.00    -0.061 N 
HETATM   10  H   UNL     1       7.180  25.400  55.924  1.00  0.00     0.280 HD
HETATM   11  C   UNL     1       5.339  26.103  56.404  1.00  0.00     0.236 C 
HETATM   12  C   UNL     1       5.410  27.523  56.946  1.00  0.00     0.029 C 
HETATM   13  C   UNL     1       6.840  27.961  56.699  1.00  0.00     0.029 C 
HETATM   14  C   UNL     1       7.158  27.343  55.355  1.00  0.00     0.236 C 
ENDBRANCH   8   9
BRANCH   8  15
HETATM   15  C   UNL     1       6.992  23.922  54.128  1.00  0.00    -0.023 A 
HETATM   16  C   UNL     1       7.272  23.232  55.325  1.00  0.00     0.046 A 
HETATM   17  C   UNL     1       7.945  22.006  55.302  1.00  0.00     0.068 A 
HETATM   18  C   UNL     1       8.366  21.478  54.081  1.00  0.00     0.037 A 
HETATM   19  C   UNL     1       8.110  22.152  52.891  1.00  0.00     0.003 A 
HETATM   20  C   UNL     1       7.428  23.367  52.912  1.00  0.00     0.009 A 
BRANCH  17  21
HETATM   21  O   UNL     1       8.260  21.245  56.390  1.00  0.00    -0.356 OA
HETATM   22  C   UNL     1       9.317  20.304  56.253  1.00  0.00     0.210 C 
ENDBRANCH  17  21
ENDBRANCH   8  15
ENDBRANCH   7   8
ENDBRANCH   3   7
BRANCH   1  23
HETATM   23  C   UNL     1       4.203  29.171  50.799  1.00  0.00     0.086 C 
HETATM   24  C   UNL     1       4.725  30.513  51.310  1.00  0.00     0.032 C 
BRANCH  23  25
HETATM   25  C   UNL     1       3.015  29.362  49.829  1.00  0.00     0.063 C 
BRANCH  25  26
HETATM   26  C   UNL     1       2.904  28.240  48.816  1.00  0.00    -0.056 A 
HETATM   27  C   UNL     1       1.646  27.733  48.456  1.00  0.00     0.010 A 
HETATM   28  C   UNL     1       1.539  26.676  47.547  1.00  0.00     0.037 A 
HETATM   29  C   UNL     1       2.692  26.125  47.002  1.00  0.00     0.065 A 
HETATM   30  C   UNL     1       3.946  26.617  47.340  1.00  0.00     0.037 A 
HETATM   31  C   UNL     1       4.053  27.680  48.238  1.00  0.00     0.010 A 
BRANCH  29  32
HETATM   32  O   UNL     1       2.638  25.088  46.120  1.00  0.00    -0.361 OA
HETATM   33  H   UNL     1       2.169  24.344  46.534  1.00  0.00     0.217 HD
ENDBRANCH  29  32
ENDBRANCH  25  26
ENDBRANCH  23  25
ENDBRANCH   1  23
TORSDOF 9
ENDMDL
MODEL 4
REMARK VINA RESULT:      -8.2      4.507      8.574
REMARK  9 active torsions:
REMARK  status: ('A' for Active; 'I' for Inactive)
REMARK    1  A    between atoms: C_2  and  N_3 
REMARK    2  A    between atoms: C_2  and  C_23 
REMARK       I    between atoms: N_3  and  C_4 
REMARK       I    between atoms: C_4  and  N_5 
REMARK    3  A    between atoms: N_5  and  C_6 
REMARK    4  A    between atoms: C_6  and  C_7 
REMARK    5  A    between atoms: C_7  and  N_8 
REMARK    6  A    between atoms: C_7  and  C_14 
REMARK    7  A    between atoms: C_16  and  O_17 
REMARK    8  A    between atoms: C_23  and  C_24 
REMARK    9  A    between atoms: C_27  and  O_28 
ROOT
HETATM    1  N   UNL     1       4.976  25.554  54.138  1.00  0.00    -0.339 N 
HETATM    2  C   UNL     1       5.440  26.520  53.289  1.00  0.00     0.316 C 
HETATM    3  N   UNL     1       4.791  26.484  52.080  1.00  0.00    -0.341 N 
HETATM    4  O   UNL     1       6.258  27.383  53.572  1.00  0.00    -0.248 OA
HETATM    5  H   UNL     1       4.513  24.770  53.702  1.00  0.00     0.164 HD
HETATM    6  H   UNL     1       4.424  25.582  51.807  1.00  0.00     0.164 HD
ENDROOT
BRANCH   3   7
HETATM    7  C   UNL     1       5.148  27.412  51.017  1.00  0.00     0.162 C 
BRANCH   7   8
HETATM    8  C   UNL     1       3.949  28.215  50.425  1.00  0.00     0.238 C 
BRANCH   8   9
HETATM    9  N   UNL     1       4.226  29.676  50.103  1.00  0.00    -0.061 N 
HETATM   10  H   UNL     1       3.345  30.006  49.689  1.00  0.00     0.280 HD
HETATM   11  C   UNL     1       5.272  30.008  49.059  1.00  0.00     0.236 C 
HETATM   12  C   UNL     1       6.042  31.190  49.627  1.00  0.00     0.029 C 
HETATM   13  C   UNL     1       5.110  31.801  50.654  1.00  0.00     0.029 C 
HETATM   14  C   UNL     1       4.452  30.591  51.279  1.00  0.00     0.236 C 
ENDBRANCH   8   9
BRANCH   8  15
HETATM   15  C   UNL     1       3.303  27.529  49.228  1.00  0.00    -0.023 A 
HETATM   16  C   UNL     1       1.974  27.789  48.838  1.00  0.00     0.046 A 
HETATM   17  C   UNL     1       1.408  27.128  47.744  1.00  0.00     0.068 A 
HETATM   18  C   UNL     1       2.162  26.180  47.051  1.00  0.00     0.037 A 
HETATM   19  C   UNL     1       3.470  25.899  47.430  1.00  0.00     0.003 A 
HETATM   20  C   UNL     1       4.040  26.568  48.513  1.00  0.00     0.009 A 
BRANCH  17  21
HETATM   21  O   UNL     1       0.141  27.306  47.268  1.00  0.00    -0.356 OA
HETATM   22  C   UNL     1      -0.025  27.422  45.861  1.00  0.00     0.210 C 
ENDBRANCH  17  21
ENDBRANCH   8  15
ENDBRANCH   7   8
ENDBRANCH   3   7
BRANCH   1  23
HETATM   23  C   UNL     1       5.616  25.209  55.413  1.00  0.00     0.086 C 
HETATM   24  C   UNL     1       5.312  26.199  56.537  1.00  0.00     0.032 C 
BRANCH  23  25
HETATM   25  C   UNL     1       7.137  24.988  55.254  1.00  0.00     0.063 C 
BRANCH  25  26
HETATM   26  C   UNL     1       7.470  23.643  54.638  1.00  0.00    -0.056 A 
HETATM   27  C   UNL     1       7.763  23.545  53.269  1.00  0.00     0.010 A 
HETATM   28  C   UNL     1       8.039  22.304  52.689  1.00  0.00     0.037 A 
HETATM   29  C   UNL     1       8.016  21.160  53.479  1.00  0.00     0.065 A 
HETATM   30  C   UNL     1       7.734  21.238  54.837  1.00  0.00     0.037 A 
HETATM   31  C   UNL     1       7.471  22.478  55.419  1.00  0.00     0.010 A 
BRANCH  29  32
HETATM   32  O   UNL     1       8.268  19.928  52.955  1.00  0.00    -0.361 OA
HETATM   33  H   UNL     1       8.999  19.518  53.448  1.00  0.00     0.217 HD
ENDBRANCH  29  32
ENDBRANCH  25  26
ENDBRANCH  23  25
ENDBRANCH   1  23
TORSDOF 9
ENDMDL
MODEL 5
REMARK VINA RESULT:      -8.2      1.895      3.661
REMARK  9 active torsions:
REMARK  status: ('A' for Active; 'I' for Inactive)
REMARK    1  A    between atoms: C_2  and  N_3 
REMARK    2  A    between atoms: C_2  and  C_23 
REMARK       I    between atoms: N_3  and  C_4 
REMARK       I    between atoms: C_4  and  N_5 
REMARK    3  A    between atoms: N_5  and  C_6 
REMARK    4  A    between atoms: C_6  and  C_7 
REMARK    5  A    between atoms: C_7  and  N_8 
REMARK    6  A    between atoms: C_7  and  C_14 
REMARK    7  A    between atoms: C_16  and  O_17 
REMARK    8  A    between atoms: C_23  and  C_24 
REMARK    9  A    between atoms: C_27  and  O_28 
ROOT
HETATM    1  N   UNL     1       7.889  26.324  53.370  1.00  0.00    -0.339 N 
HETATM    2  C   UNL     1       7.033  27.252  53.894  1.00  0.00     0.316 C 
HETATM    3  N   UNL     1       7.702  28.194  54.636  1.00  0.00    -0.341 N 
HETATM    4  O   UNL     1       5.833  27.320  53.672  1.00  0.00    -0.248 OA
HETATM    5  H   UNL     1       8.779  26.233  53.837  1.00  0.00     0.164 HD
HETATM    6  H   UNL     1       8.570  27.886  55.054  1.00  0.00     0.164 HD
ENDROOT
BRANCH   3   7
HETATM    7  C   UNL     1       6.977  29.263  55.308  1.00  0.00     0.162 C 
BRANCH   7   8
HETATM    8  C   UNL     1       7.033  29.208  56.865  1.00  0.00     0.238 C 
BRANCH   8   9
HETATM    9  N   UNL     1       6.922  27.822  57.483  1.00  0.00    -0.061 N 
HETATM   10  H   UNL     1       6.768  28.012  58.481  1.00  0.00     0.280 HD
HETATM   11  C   UNL     1       8.134  26.914  57.460  1.00  0.00     0.236 C 
HETATM   12  C   UNL     1       7.592  25.535  57.114  1.00  0.00     0.029 C 
HETATM   13  C   UNL     1       6.121  25.595  57.475  1.00  0.00     0.029 C 
HETATM   14  C   UNL     1       5.728  26.999  57.071  1.00  0.00     0.236 C 
ENDBRANCH   8   9
BRANCH   8  15
HETATM   15  C   UNL     1       8.233  29.945  57.446  1.00  0.00    -0.023 A 
HETATM   16  C   UNL     1       8.111  30.864  58.508  1.00  0.00     0.046 A 
HETATM   17  C   UNL     1       9.232  31.535  59.005  1.00  0.00     0.068 A 
HETATM   18  C   UNL     1      10.480  31.310  58.422  1.00  0.00     0.037 A 
HETATM   19  C   UNL     1      10.618  30.416  57.364  1.00  0.00     0.003 A 
HETATM   20  C   UNL     1       9.503  29.737  56.877  1.00  0.00     0.009 A 
BRANCH  17  21
HETATM   21  O   UNL     1       9.238  32.434  60.031  1.00  0.00    -0.356 OA
HETATM   22  C   UNL     1       9.626  31.966  61.317  1.00  0.00     0.210 C 
ENDBRANCH  17  21
ENDBRANCH   8  15
ENDBRANCH   7   8
ENDBRANCH   3   7
BRANCH   1  23
HETATM   23  C   UNL     1       7.452  25.085  52.716  1.00  0.00     0.086 C 
HETATM   24  C   UNL     1       6.734  25.316  51.387  1.00  0.00     0.032 C 
BRANCH  23  25
HETATM   25  C   UNL     1       6.612  24.197  53.663  1.00  0.00     0.063 C 
BRANCH  25  26
HETATM   26  C   UNL     1       7.277  22.867  53.956  1.00  0.00    -0.056 A 
HETATM   27  C   UNL     1       7.418  22.423  55.280  1.00  0.00     0.010 A 
HETATM   28  C   UNL     1       8.059  21.212  55.559  1.00  0.00     0.037 A 
HETATM   29  C   UNL     1       8.561  20.448  54.512  1.00  0.00     0.065 A 
HETATM   30  C   UNL     1       8.424  20.867  53.194  1.00  0.00     0.037 A 
HETATM   31  C   UNL     1       7.775  22.070  52.914  1.00  0.00     0.010 A 
BRANCH  29  32
HETATM   32  O   UNL     1       9.201  19.267  54.735  1.00  0.00    -0.361 OA
HETATM   33  H   UNL     1       8.954  18.935  55.615  1.00  0.00     0.217 HD
ENDBRANCH  29  32
ENDBRANCH  25  26
ENDBRANCH  23  25
ENDBRANCH   1  23
TORSDOF 9
ENDMDL
MODEL 6
REMARK VINA RESULT:      -8.1      2.304      3.708
REMARK  9 active torsions:
REMARK  status: ('A' for Active; 'I' for Inactive)
REMARK    1  A    between atoms: C_2  and  N_3 
REMARK    2  A    between atoms: C_2  and  C_23 
REMARK       I    between atoms: N_3  and  C_4 
REMARK       I    between atoms: C_4  and  N_5 
REMARK    3  A    between atoms: N_5  and  C_6 
REMARK    4  A    between atoms: C_6  and  C_7 
REMARK    5  A    between atoms: C_7  and  N_8 
REMARK    6  A    between atoms: C_7  and  C_14 
REMARK    7  A    between atoms: C_16  and  O_17 
REMARK    8  A    between atoms: C_23  and  C_24 
REMARK    9  A    between atoms: C_27  and  O_28 
ROOT
HETATM    1  N   UNL     1       7.035  26.702  54.495  1.00  0.00    -0.339 N 
HETATM    2  C   UNL     1       7.129  27.046  55.815  1.00  0.00     0.316 C 
HETATM    3  N   UNL     1       6.753  28.350  56.025  1.00  0.00    -0.341 N 
HETATM    4  O   UNL     1       7.414  26.287  56.729  1.00  0.00    -0.248 OA
HETATM    5  H   UNL     1       7.049  27.468  53.838  1.00  0.00     0.164 HD
HETATM    6  H   UNL     1       6.881  28.974  55.239  1.00  0.00     0.164 HD
ENDROOT
BRANCH   3   7
HETATM    7  C   UNL     1       6.802  28.931  57.359  1.00  0.00     0.162 C 
BRANCH   7   8
HETATM    8  C   UNL     1       6.717  30.489  57.392  1.00  0.00     0.238 C 
BRANCH   8   9
HETATM    9  N   UNL     1       5.313  31.074  57.375  1.00  0.00    -0.061 N 
HETATM   10  H   UNL     1       5.326  31.761  58.139  1.00  0.00     0.280 HD
HETATM   11  C   UNL     1       4.142  30.173  57.707  1.00  0.00     0.236 C 
HETATM   12  C   UNL     1       3.057  30.544  56.707  1.00  0.00     0.029 C 
HETATM   13  C   UNL     1       3.427  31.935  56.233  1.00  0.00     0.029 C 
HETATM   14  C   UNL     1       4.936  31.878  56.156  1.00  0.00     0.236 C 
ENDBRANCH   8   9
BRANCH   8  15
HETATM   15  C   UNL     1       7.529  31.107  58.522  1.00  0.00    -0.023 A 
HETATM   16  C   UNL     1       6.929  31.840  59.567  1.00  0.00     0.046 A 
HETATM   17  C   UNL     1       7.708  32.407  60.580  1.00  0.00     0.068 A 
HETATM   18  C   UNL     1       9.095  32.270  60.537  1.00  0.00     0.037 A 
HETATM   19  C   UNL     1       9.706  31.562  59.506  1.00  0.00     0.003 A 
HETATM   20  C   UNL     1       8.930  30.984  58.503  1.00  0.00     0.009 A 
BRANCH  17  21
HETATM   21  O   UNL     1       7.240  33.125  61.642  1.00  0.00    -0.356 OA
HETATM   22  C   UNL     1       5.878  33.533  61.614  1.00  0.00     0.210 C 
ENDBRANCH  17  21
ENDBRANCH   8  15
ENDBRANCH   7   8
ENDBRANCH   3   7
BRANCH   1  23
HETATM   23  C   UNL     1       7.567  25.453  53.935  1.00  0.00     0.086 C 
HETATM   24  C   UNL     1       8.034  25.584  52.486  1.00  0.00     0.032 C 
BRANCH  23  25
HETATM   25  C   UNL     1       6.578  24.278  54.104  1.00  0.00     0.063 C 
BRANCH  25  26
HETATM   26  C   UNL     1       7.280  22.943  54.258  1.00  0.00    -0.056 A 
HETATM   27  C   UNL     1       7.664  22.210  53.125  1.00  0.00     0.010 A 
HETATM   28  C   UNL     1       8.283  20.964  53.260  1.00  0.00     0.037 A 
HETATM   29  C   UNL     1       8.512  20.450  54.531  1.00  0.00     0.065 A 
HETATM   30  C   UNL     1       8.145  21.163  55.665  1.00  0.00     0.037 A 
HETATM   31  C   UNL     1       7.538  22.413  55.531  1.00  0.00     0.010 A 
BRANCH  29  32
HETATM   32  O   UNL     1       9.102  19.236  54.712  1.00  0.00    -0.361 OA
HETATM   33  H   UNL     1       9.364  19.148  55.644  1.00  0.00     0.217 HD
ENDBRANCH  29  32
ENDBRANCH  25  26
ENDBRANCH  23  25
ENDBRANCH   1  23
TORSDOF 9
ENDMDL
MODEL 7
REMARK VINA RESULT:      -8.1      2.712      5.170
REMARK  9 active torsions:
REMARK  status: ('A' for Active; 'I' for Inactive)
REMARK    1  A    between atoms: C_2  and  N_3 
REMARK    2  A    between atoms: C_2  and  C_23 
REMARK       I    between atoms: N_3  and  C_4 
REMARK       I    between atoms: C_4  and  N_5 
REMARK    3  A    between atoms: N_5  and  C_6 
REMARK    4  A    between atoms: C_6  and  C_7 
REMARK    5  A    between atoms: C_7  and  N_8 
REMARK    6  A    between atoms: C_7  and  C_14 
REMARK    7  A    between atoms: C_16  and  O_17 
REMARK    8  A    between atoms: C_23  and  C_24 
REMARK    9  A    between atoms: C_27  and  O_28 
ROOT
HETATM    1  N   UNL     1       8.025  26.245  57.265  1.00  0.00    -0.339 N 
HETATM    2  C   UNL     1       7.937  27.548  56.860  1.00  0.00     0.316 C 
HETATM    3  N   UNL     1       8.318  28.413  57.857  1.00  0.00    -0.341 N 
HETATM    4  O   UNL     1       7.654  27.926  55.734  1.00  0.00    -0.248 OA
HETATM    5  H   UNL     1       8.011  26.091  58.262  1.00  0.00     0.164 HD
HETATM    6  H   UNL     1       8.189  28.075  58.802  1.00  0.00     0.164 HD
ENDROOT
BRANCH   3   7
HETATM    7  C   UNL     1       8.276  29.853  57.648  1.00  0.00     0.162 C 
BRANCH   7   8
HETATM    8  C   UNL     1       7.240  30.608  58.536  1.00  0.00     0.238 C 
BRANCH   8   9
HETATM    9  N   UNL     1       7.822  31.587  59.544  1.00  0.00    -0.061 N 
HETATM   10  H   UNL     1       7.353  32.474  59.323  1.00  0.00     0.280 HD
HETATM   11  C   UNL     1       9.298  31.920  59.470  1.00  0.00     0.236 C 
HETATM   12  C   UNL     1       9.775  31.943  60.914  1.00  0.00     0.029 C 
HETATM   13  C   UNL     1       8.518  32.157  61.734  1.00  0.00     0.029 C 
HETATM   14  C   UNL     1       7.485  31.338  60.993  1.00  0.00     0.236 C 
ENDBRANCH   8   9
BRANCH   8  15
HETATM   15  C   UNL     1       6.139  31.283  57.728  1.00  0.00    -0.023 A 
HETATM   16  C   UNL     1       5.680  30.763  56.501  1.00  0.00     0.046 A 
HETATM   17  C   UNL     1       4.678  31.418  55.777  1.00  0.00     0.068 A 
HETATM   18  C   UNL     1       4.151  32.614  56.265  1.00  0.00     0.037 A 
HETATM   19  C   UNL     1       4.602  33.150  57.467  1.00  0.00     0.003 A 
HETATM   20  C   UNL     1       5.590  32.490  58.196  1.00  0.00     0.009 A 
BRANCH  17  21
HETATM   21  O   UNL     1       4.149  31.005  54.589  1.00  0.00    -0.356 OA
HETATM   22  C   UNL     1       4.149  29.609  54.316  1.00  0.00     0.210 C 
ENDBRANCH  17  21
ENDBRANCH   8  15
ENDBRANCH   7   8
ENDBRANCH   3   7
BRANCH   1  23
HETATM   23  C   UNL     1       7.488  25.113  56.500  1.00  0.00     0.086 C 
HETATM   24  C   UNL     1       5.968  24.983  56.588  1.00  0.00     0.032 C 
BRANCH  23  25
HETATM   25  C   UNL     1       8.189  23.785  56.864  1.00  0.00     0.063 C 
BRANCH  25  26
HETATM   26  C   UNL     1       8.179  22.788  55.722  1.00  0.00    -0.056 A 
HETATM   27  C   UNL     1       8.315  23.229  54.396  1.00  0.00     0.010 A 
HETATM   28  C   UNL     1       8.275  22.318  53.337  1.00  0.00     0.037 A 
HETATM   29  C   UNL     1       8.093  20.967  53.605  1.00  0.00     0.065 A 
HETATM   30  C   UNL     1       7.963  20.510  54.910  1.00  0.00     0.037 A 
HETATM   31  C   UNL     1       8.016  21.417  55.969  1.00  0.00     0.010 A 
BRANCH  29  32
HETATM   32  O   UNL     1       8.037  20.043  52.605  1.00  0.00    -0.361 OA
HETATM   33  H   UNL     1       7.589  20.436  51.837  1.00  0.00     0.217 HD
ENDBRANCH  29  32
ENDBRANCH  25  26
ENDBRANCH  23  25
ENDBRANCH   1  23
TORSDOF 9
ENDMDL
MODEL 8
REMARK VINA RESULT:      -7.9      3.467      7.069
REMARK  9 active torsions:
REMARK  status: ('A' for Active; 'I' for Inactive)
REMARK    1  A    between atoms: C_2  and  N_3 
REMARK    2  A    between atoms: C_2  and  C_23 
REMARK       I    between atoms: N_3  and  C_4 
REMARK       I    between atoms: C_4  and  N_5 
REMARK    3  A    between atoms: N_5  and  C_6 
REMARK    4  A    between atoms: C_6  and  C_7 
REMARK    5  A    between atoms: C_7  and  N_8 
REMARK    6  A    between atoms: C_7  and  C_14 
REMARK    7  A    between atoms: C_16  and  O_17 
REMARK    8  A    between atoms: C_23  and  C_24 
REMARK    9  A    between atoms: C_27  and  O_28 
ROOT
HETATM    1  N   UNL     1       5.376  29.655  51.722  1.00  0.00    -0.339 N 
HETATM    2  C   UNL     1       5.353  28.562  52.542  1.00  0.00     0.316 C 
HETATM    3  N   UNL     1       5.782  28.872  53.809  1.00  0.00    -0.341 N 
HETATM    4  O   UNL     1       4.920  27.458  52.245  1.00  0.00    -0.248 OA
HETATM    5  H   UNL     1       5.987  30.406  52.006  1.00  0.00     0.164 HD
HETATM    6  H   UNL     1       6.426  29.649  53.874  1.00  0.00     0.164 HD
ENDROOT
BRANCH   3   7
HETATM    7  C   UNL     1       5.861  27.846  54.839  1.00  0.00     0.162 C 
BRANCH   7   8
HETATM    8  C   UNL     1       7.298  27.301  55.104  1.00  0.00     0.238 C 
BRANCH   8   9
HETATM    9  N   UNL     1       7.973  27.803  56.370  1.00  0.00    -0.061 N 
HETATM   10  H   UNL     1       8.574  27.019  56.654  1.00  0.00     0.280 HD
HETATM   11  C   UNL     1       7.121  28.077  57.592  1.00  0.00     0.236 C 
HETATM   12  C   UNL     1       7.665  29.373  58.175  1.00  0.00     0.029 C 
HETATM   13  C   UNL     1       9.071  29.487  57.620  1.00  0.00     0.029 C 
HETATM   14  C   UNL     1       8.923  28.963  56.209  1.00  0.00     0.236 C 
ENDBRANCH   8   9
BRANCH   8  15
HETATM   15  C   UNL     1       7.382  25.782  55.032  1.00  0.00    -0.023 A 
HETATM   16  C   UNL     1       7.826  25.000  56.118  1.00  0.00     0.046 A 
HETATM   17  C   UNL     1       7.906  23.609  56.012  1.00  0.00     0.068 A 
HETATM   18  C   UNL     1       7.569  22.993  54.806  1.00  0.00     0.037 A 
HETATM   19  C   UNL     1       7.143  23.749  53.718  1.00  0.00     0.003 A 
HETATM   20  C   UNL     1       7.049  25.135  53.828  1.00  0.00     0.009 A 
BRANCH  17  21
HETATM   21  O   UNL     1       8.309  22.752  56.995  1.00  0.00    -0.356 OA
HETATM   22  C   UNL     1       8.454  21.379  56.655  1.00  0.00     0.210 C 
ENDBRANCH  17  21
ENDBRANCH   8  15
ENDBRANCH   7   8
ENDBRANCH   3   7
BRANCH   1  23
HETATM   23  C   UNL     1       5.179  29.591  50.268  1.00  0.00     0.086 C 
HETATM   24  C   UNL     1       5.876  30.719  49.507  1.00  0.00     0.032 C 
BRANCH  23  25
HETATM   25  C   UNL     1       3.684  29.498  49.891  1.00  0.00     0.063 C 
BRANCH  25  26
HETATM   26  C   UNL     1       3.397  28.373  48.917  1.00  0.00    -0.056 A 
HETATM   27  C   UNL     1       4.369  27.394  48.660  1.00  0.00     0.010 A 
HETATM   28  C   UNL     1       4.122  26.372  47.739  1.00  0.00     0.037 A 
HETATM   29  C   UNL     1       2.904  26.333  47.072  1.00  0.00     0.065 A 
HETATM   30  C   UNL     1       1.926  27.289  47.317  1.00  0.00     0.037 A 
HETATM   31  C   UNL     1       2.167  28.303  48.246  1.00  0.00     0.010 A 
BRANCH  29  32
HETATM   32  O   UNL     1       2.622  25.363  46.158  1.00  0.00    -0.361 OA
HETATM   33  H   UNL     1       3.356  24.726  46.137  1.00  0.00     0.217 HD
ENDBRANCH  29  32
ENDBRANCH  25  26
ENDBRANCH  23  25
ENDBRANCH   1  23
TORSDOF 9
ENDMDL
MODEL 9
REMARK VINA RESULT:      -7.9      2.531      6.838
REMARK  9 active torsions:
REMARK  status: ('A' for Active; 'I' for Inactive)
REMARK    1  A    between atoms: C_2  and  N_3 
REMARK    2  A    between atoms: C_2  and  C_23 
REMARK       I    between atoms: N_3  and  C_4 
REMARK       I    between atoms: C_4  and  N_5 
REMARK    3  A    between atoms: N_5  and  C_6 
REMARK    4  A    between atoms: C_6  and  C_7 
REMARK    5  A    between atoms: C_7  and  N_8 
REMARK    6  A    between atoms: C_7  and  C_14 
REMARK    7  A    between atoms: C_16  and  O_17 
REMARK    8  A    between atoms: C_23  and  C_24 
REMARK    9  A    between atoms: C_27  and  O_28 
ROOT
HETATM    1  N   UNL     1       3.467  27.363  53.166  1.00  0.00    -0.339 N 
HETATM    2  C   UNL     1       4.630  26.720  52.848  1.00  0.00     0.316 C 
HETATM    3  N   UNL     1       4.690  25.472  53.419  1.00  0.00    -0.341 N 
HETATM    4  O   UNL     1       5.485  27.132  52.078  1.00  0.00    -0.248 OA
HETATM    5  H   UNL     1       2.994  27.034  53.995  1.00  0.00     0.164 HD
HETATM    6  H   UNL     1       4.164  25.358  54.276  1.00  0.00     0.164 HD
ENDROOT
BRANCH   3   7
HETATM    7  C   UNL     1       5.857  24.623  53.229  1.00  0.00     0.162 C 
BRANCH   7   8
HETATM    8  C   UNL     1       6.495  24.091  54.550  1.00  0.00     0.238 C 
BRANCH   8   9
HETATM    9  N   UNL     1       7.594  23.053  54.382  1.00  0.00    -0.061 N 
HETATM   10  H   UNL     1       8.449  23.557  54.649  1.00  0.00     0.280 HD
HETATM   11  C   UNL     1       7.893  22.525  52.994  1.00  0.00     0.236 C 
HETATM   12  C   UNL     1       8.107  21.029  53.174  1.00  0.00     0.029 C 
HETATM   13  C   UNL     1       8.448  20.861  54.641  1.00  0.00     0.029 C 
HETATM   14  C   UNL     1       7.549  21.871  55.318  1.00  0.00     0.236 C 
ENDBRANCH   8   9
BRANCH   8  15
HETATM   15  C   UNL     1       6.963  25.204  55.477  1.00  0.00    -0.023 A 
HETATM   16  C   UNL     1       7.496  26.415  54.992  1.00  0.00     0.046 A 
HETATM   17  C   UNL     1       7.931  27.409  55.873  1.00  0.00     0.068 A 
HETATM   18  C   UNL     1       7.862  27.184  57.248  1.00  0.00     0.037 A 
HETATM   19  C   UNL     1       7.352  25.989  57.747  1.00  0.00     0.003 A 
HETATM   20  C   UNL     1       6.905  25.003  56.868  1.00  0.00     0.009 A 
BRANCH  17  21
HETATM   21  O   UNL     1       8.452  28.620  55.520  1.00  0.00    -0.356 OA
HETATM   22  C   UNL     1       8.893  29.478  56.565  1.00  0.00     0.210 C 
ENDBRANCH  17  21
ENDBRANCH   8  15
ENDBRANCH   7   8
ENDBRANCH   3   7
BRANCH   1  23
HETATM   23  C   UNL     1       3.213  28.781  52.883  1.00  0.00     0.086 C 
HETATM   24  C   UNL     1       2.941  29.069  51.407  1.00  0.00     0.032 C 
BRANCH  23  25
HETATM   25  C   UNL     1       4.332  29.691  53.437  1.00  0.00     0.063 C 
BRANCH  25  26
HETATM   26  C   UNL     1       4.187  29.956  54.922  1.00  0.00    -0.056 A 
HETATM   27  C   UNL     1       3.302  30.943  55.382  1.00  0.00     0.010 A 
HETATM   28  C   UNL     1       3.187  31.215  56.748  1.00  0.00     0.037 A 
HETATM   29  C   UNL     1       3.961  30.500  57.654  1.00  0.00     0.065 A 
HETATM   30  C   UNL     1       4.838  29.513  57.219  1.00  0.00     0.037 A 
HETATM   31  C   UNL     1       4.944  29.234  55.856  1.00  0.00     0.010 A 
BRANCH  29  32
HETATM   32  O   UNL     1       3.891  30.736  58.994  1.00  0.00    -0.361 OA
HETATM   33  H   UNL     1       4.791  30.744  59.361  1.00  0.00     0.217 HD
ENDBRANCH  29  32
ENDBRANCH  25  26
ENDBRANCH  23  25
ENDBRANCH   1  23
TORSDOF 9
ENDMDL
MODEL 10
REMARK VINA RESULT:      -7.8      2.995      5.063
REMARK  9 active torsions:
REMARK  status: ('A' for Active; 'I' for Inactive)
REMARK    1  A    between atoms: C_2  and  N_3 
REMARK    2  A    between atoms: C_2  and  C_23 
REMARK       I    between atoms: N_3  and  C_4 
REMARK       I    between atoms: C_4  and  N_5 
REMARK    3  A    between atoms: N_5  and  C_6 
REMARK    4  A    between atoms: C_6  and  C_7 
REMARK    5  A    between atoms: C_7  and  N_8 
REMARK    6  A    between atoms: C_7  and  C_14 
REMARK    7  A    between atoms: C_16  and  O_17 
REMARK    8  A    between atoms: C_23  and  C_24 
REMARK    9  A    between atoms: C_27  and  O_28 
ROOT
HETATM    1  N   UNL     1       7.643  26.395  57.352  1.00  0.00    -0.339 N 
HETATM    2  C   UNL     1       7.910  27.700  57.045  1.00  0.00     0.316 C 
HETATM    3  N   UNL     1       7.814  28.509  58.152  1.00  0.00    -0.341 N 
HETATM    4  O   UNL     1       8.285  28.115  55.958  1.00  0.00    -0.248 OA
HETATM    5  H   UNL     1       7.105  26.241  58.191  1.00  0.00     0.164 HD
HETATM    6  H   UNL     1       7.185  28.186  58.875  1.00  0.00     0.164 HD
ENDROOT
BRANCH   3   7
HETATM    7  C   UNL     1       8.035  29.944  58.045  1.00  0.00     0.162 C 
BRANCH   7   8
HETATM    8  C   UNL     1       7.082  30.814  58.921  1.00  0.00     0.238 C 
BRANCH   8   9
HETATM    9  N   UNL     1       7.761  31.711  59.946  1.00  0.00    -0.061 N 
HETATM   10  H   UNL     1       7.370  32.642  59.752  1.00  0.00     0.280 HD
HETATM   11  C   UNL     1       9.259  31.913  59.860  1.00  0.00     0.236 C 
HETATM   12  C   UNL     1       9.753  31.856  61.298  1.00  0.00     0.029 C 
HETATM   13  C   UNL     1       8.529  32.159  62.139  1.00  0.00     0.029 C 
HETATM   14  C   UNL     1       7.419  31.455  61.392  1.00  0.00     0.236 C 
ENDBRANCH   8   9
BRANCH   8  15
HETATM   15  C   UNL     1       6.085  31.620  58.099  1.00  0.00    -0.023 A 
HETATM   16  C   UNL     1       5.425  32.754  58.616  1.00  0.00     0.046 A 
HETATM   17  C   UNL     1       4.503  33.460  57.838  1.00  0.00     0.068 A 
HETATM   18  C   UNL     1       4.215  33.018  56.547  1.00  0.00     0.037 A 
HETATM   19  C   UNL     1       4.846  31.894  56.024  1.00  0.00     0.003 A 
HETATM   20  C   UNL     1       5.775  31.197  56.794  1.00  0.00     0.009 A 
BRANCH  17  21
HETATM   21  O   UNL     1       3.814  34.573  58.226  1.00  0.00    -0.356 OA
HETATM   22  C   UNL     1       3.069  35.266  57.233  1.00  0.00     0.210 C 
ENDBRANCH  17  21
ENDBRANCH   8  15
ENDBRANCH   7   8
ENDBRANCH   3   7
BRANCH   1  23
HETATM   23  C   UNL     1       7.460  25.341  56.347  1.00  0.00     0.086 C 
HETATM   24  C   UNL     1       6.011  24.872  56.211  1.00  0.00     0.032 C 
BRANCH  23  25
HETATM   25  C   UNL     1       8.417  24.150  56.579  1.00  0.00     0.063 C 
BRANCH  25  26
HETATM   26  C   UNL     1       8.246  23.055  55.544  1.00  0.00    -0.056 A 
HETATM   27  C   UNL     1       8.035  21.727  55.946  1.00  0.00     0.010 A 
HETATM   28  C   UNL     1       7.909  20.709  54.998  1.00  0.00     0.037 A 
HETATM   29  C   UNL     1       8.000  21.019  53.646  1.00  0.00     0.065 A 
HETATM   30  C   UNL     1       8.201  22.328  53.228  1.00  0.00     0.037 A 
HETATM   31  C   UNL     1       8.315  23.348  54.174  1.00  0.00     0.010 A 
BRANCH  29  32
HETATM   32  O   UNL     1       7.893  20.059  52.686  1.00  0.00    -0.361 OA
HETATM   33  H   UNL     1       8.784  19.758  52.439  1.00  0.00     0.217 HD
ENDBRANCH  29  32
ENDBRANCH  25  26
ENDBRANCH  23  25
ENDBRANCH   1  23
TORSDOF 9
ENDMDL
