MODEL 1
REMARK VINA RESULT:      -8.8      0.000      0.000
REMARK  9 active torsions:
REMARK  status: ('A' for Active; 'I' for Inactive)
REMARK    1  A    between atoms: C_2  and  C_3 
REMARK    2  A    between atoms: C_4  and  N_5 
REMARK    3  A    between atoms: C_6  and  S_7 
REMARK    4  A    between atoms: S_7  and  C_8 
REMARK    5  A    between atoms: C_8  and  C_9 
REMARK       I    between atoms: C_9  and  N_10 
REMARK    6  A    between atoms: N_10  and  C_11 
REMARK    7  A    between atoms: C_12  and  O_13 
REMARK    8  A    between atoms: C_16  and  O_17 
REMARK    9  A    between atoms: C_26  and  N_27 
ROOT
HETATM    1  N   UNL     1       7.699  25.373  55.563  1.00  0.00    -0.275 N 
HETATM    2  C   UNL     1       7.613  25.300  54.147  1.00  0.00     0.177 A 
HETATM    3  N   UNL     1       7.823  24.229  53.420  1.00  0.00    -0.204 NA
HETATM    4  C   UNL     1       8.059  23.114  54.149  1.00  0.00     0.162 A 
HETATM    5  C   UNL     1       8.161  22.972  55.508  1.00  0.00     0.081 A 
HETATM    6  C   UNL     1       8.029  24.160  56.296  1.00  0.00     0.124 A 
HETATM    7  N   UNL     1       8.166  21.848  53.652  1.00  0.00    -0.260 N 
HETATM    8  H   UNL     1       8.095  21.547  52.686  1.00  0.00     0.191 HD
HETATM    9  N   UNL     1       8.360  20.917  54.611  1.00  0.00    -0.177 NA
HETATM   10  C   UNL     1       8.328  21.605  55.763  1.00  0.00     0.068 A 
HETATM   11  C   UNL     1       8.435  20.878  57.050  1.00  0.00     0.073 C 
ENDROOT
BRANCH   2  12
HETATM   12  S   UNL     1       7.123  26.743  53.237  1.00  0.00    -0.082 SA
BRANCH  12  13
HETATM   13  C   UNL     1       6.336  26.008  51.785  1.00  0.00     0.185 C 
BRANCH  13  14
HETATM   14  C   UNL     1       5.294  26.942  51.186  1.00  0.00     0.232 C 
HETATM   15  N   UNL     1       5.416  27.079  49.812  1.00  0.00    -0.324 N 
HETATM   16  H   UNL     1       6.258  26.695  49.402  1.00  0.00     0.169 HD
HETATM   17  O   UNL     1       4.519  27.561  51.911  1.00  0.00    -0.272 OA
BRANCH  15  18
HETATM   18  C   UNL     1       4.592  27.856  48.967  1.00  0.00     0.070 A 
HETATM   19  C   UNL     1       4.845  29.196  48.622  1.00  0.00     0.097 A 
HETATM   20  C   UNL     1       3.992  29.849  47.717  1.00  0.00     0.077 A 
HETATM   21  C   UNL     1       2.880  29.191  47.179  1.00  0.00     0.092 A 
HETATM   22  C   UNL     1       2.589  27.890  47.602  1.00  0.00     0.069 A 
HETATM   23 CL   UNL     1       1.195  27.043  47.029  1.00  0.00    -0.081 Cl
HETATM   24  C   UNL     1       3.435  27.228  48.491  1.00  0.00     0.059 A 
BRANCH  19  25
HETATM   25  O   UNL     1       5.830  29.845  49.318  1.00  0.00    -0.354 OA
HETATM   26  C   UNL     1       5.440  30.661  50.413  1.00  0.00     0.210 C 
ENDBRANCH  19  25
BRANCH  21  27
HETATM   27  O   UNL     1       2.005  29.784  46.306  1.00  0.00    -0.354 OA
HETATM   28  C   UNL     1       2.218  31.171  46.062  1.00  0.00     0.210 C 
ENDBRANCH  21  27
ENDBRANCH  15  18
ENDBRANCH  13  14
ENDBRANCH  12  13
ENDBRANCH   2  12
BRANCH   1  29
HETATM   29  C   UNL     1       7.568  26.613  56.260  1.00  0.00     0.049 A 
HETATM   30  C   UNL     1       6.312  27.075  56.716  1.00  0.00    -0.031 A 
HETATM   31  C   UNL     1       6.264  28.250  57.486  1.00  0.00     0.009 A 
HETATM   32  C   UNL     1       7.425  28.961  57.791  1.00  0.00     0.001 A 
HETATM   33  C   UNL     1       8.658  28.509  57.335  1.00  0.00     0.002 A 
HETATM   34  C   UNL     1       8.731  27.337  56.582  1.00  0.00     0.031 A 
BRANCH  30  35
HETATM   35  C   UNL     1       5.010  26.372  56.392  1.00  0.00     0.036 C 
HETATM   36  C   UNL     1       4.678  25.261  57.378  1.00  0.00     0.010 C 
ENDBRANCH  30  35
ENDBRANCH   1  29
BRANCH   6  37
HETATM   37  N   UNL     1       8.225  24.144  57.600  1.00  0.00    -0.384 N 
HETATM   38  H   UNL     1       8.231  24.989  58.152  1.00  0.00     0.157 HD
HETATM   39  H   UNL     1       8.351  23.258  58.075  1.00  0.00     0.157 HD
ENDBRANCH   6  37
TORSDOF 9
ENDMDL
MODEL 2
REMARK VINA RESULT:      -8.8      1.300      1.929
REMARK  9 active torsions:
REMARK  status: ('A' for Active; 'I' for Inactive)
REMARK    1  A    between atoms: C_2  and  C_3 
REMARK    2  A    between atoms: C_4  and  N_5 
REMARK    3  A    between atoms: C_6  and  S_7 
REMARK    4  A    between atoms: S_7  and  C_8 
REMARK    5  A    between atoms: C_8  and  C_9 
REMARK       I    between atoms: C_9  and  N_10 
REMARK    6  A    between atoms: N_10  and  C_11 
REMARK    7  A    between atoms: C_12  and  O_13 
REMARK    8  A    between atoms: C_16  and  O_17 
REMARK    9  A    between atoms: C_26  and  N_27 
ROOT
HETATM    1  N   UNL     1       7.683  25.496  55.609  1.00  0.00    -0.275 N 
HETATM    2  C   UNL     1       7.615  25.406  54.193  1.00  0.00     0.177 A 
HETATM    3  N   UNL     1       7.861  24.332  53.481  1.00  0.00    -0.204 NA
HETATM    4  C   UNL     1       8.119  23.232  54.226  1.00  0.00     0.162 A 
HETATM    5  C   UNL     1       8.210  23.109  55.586  1.00  0.00     0.081 A 
HETATM    6  C   UNL     1       8.037  24.301  56.360  1.00  0.00     0.124 A 
HETATM    7  N   UNL     1       8.266  21.964  53.743  1.00  0.00    -0.260 N 
HETATM    8  H   UNL     1       8.213  21.651  52.780  1.00  0.00     0.191 HD
HETATM    9  N   UNL     1       8.474  21.050  54.715  1.00  0.00    -0.177 NA
HETATM   10  C   UNL     1       8.411  21.749  55.859  1.00  0.00     0.068 A 
HETATM   11  C   UNL     1       8.523  21.040  57.155  1.00  0.00     0.073 C 
ENDROOT
BRANCH   2  12
HETATM   12  S   UNL     1       7.096  26.824  53.262  1.00  0.00    -0.082 SA
BRANCH  12  13
HETATM   13  C   UNL     1       6.371  26.053  51.796  1.00  0.00     0.185 C 
BRANCH  13  14
HETATM   14  C   UNL     1       5.348  26.966  51.137  1.00  0.00     0.232 C 
HETATM   15  N   UNL     1       5.422  26.952  49.753  1.00  0.00    -0.324 N 
HETATM   16  H   UNL     1       6.230  26.486  49.357  1.00  0.00     0.169 HD
HETATM   17  O   UNL     1       4.630  27.696  51.817  1.00  0.00    -0.272 OA
BRANCH  15  18
HETATM   18  C   UNL     1       4.600  27.672  48.858  1.00  0.00     0.070 A 
HETATM   19  C   UNL     1       3.392  27.189  48.321  1.00  0.00     0.097 A 
HETATM   20  C   UNL     1       2.622  28.022  47.493  1.00  0.00     0.077 A 
HETATM   21  C   UNL     1       3.056  29.314  47.173  1.00  0.00     0.092 A 
HETATM   22  C   UNL     1       4.303  29.747  47.638  1.00  0.00     0.069 A 
HETATM   23 CL   UNL     1       4.930  31.304  47.227  1.00  0.00    -0.081 Cl
HETATM   24  C   UNL     1       5.070  28.932  48.471  1.00  0.00     0.059 A 
BRANCH  19  25
HETATM   25  O   UNL     1       3.110  25.862  48.512  1.00  0.00    -0.354 OA
HETATM   26  C   UNL     1       3.022  25.032  47.363  1.00  0.00     0.210 C 
ENDBRANCH  19  25
BRANCH  21  27
HETATM   27  O   UNL     1       2.355  30.162  46.356  1.00  0.00    -0.354 OA
HETATM   28  C   UNL     1       0.936  30.053  46.422  1.00  0.00     0.210 C 
ENDBRANCH  21  27
ENDBRANCH  15  18
ENDBRANCH  13  14
ENDBRANCH  12  13
ENDBRANCH   2  12
BRANCH   1  29
HETATM   29  C   UNL     1       7.510  26.740  56.291  1.00  0.00     0.049 A 
HETATM   30  C   UNL     1       6.237  27.175  56.723  1.00  0.00    -0.031 A 
HETATM   31  C   UNL     1       6.148  28.357  57.480  1.00  0.00     0.009 A 
HETATM   32  C   UNL     1       7.287  29.100  57.794  1.00  0.00     0.001 A 
HETATM   33  C   UNL     1       8.537  28.673  57.361  1.00  0.00     0.002 A 
HETATM   34  C   UNL     1       8.650  27.496  56.622  1.00  0.00     0.031 A 
BRANCH  30  35
HETATM   35  C   UNL     1       4.957  26.437  56.387  1.00  0.00     0.036 C 
HETATM   36  C   UNL     1       4.682  25.275  57.331  1.00  0.00     0.010 C 
ENDBRANCH  30  35
ENDBRANCH   1  29
BRANCH   6  37
HETATM   37  N   UNL     1       8.219  24.305  57.666  1.00  0.00    -0.384 N 
HETATM   38  H   UNL     1       8.232  25.159  58.203  1.00  0.00     0.157 HD
HETATM   39  H   UNL     1       8.327  23.425  58.158  1.00  0.00     0.157 HD
ENDBRANCH   6  37
TORSDOF 9
ENDMDL
MODEL 3
REMARK VINA RESULT:      -8.7      3.489     10.055
REMARK  9 active torsions:
REMARK  status: ('A' for Active; 'I' for Inactive)
REMARK    1  A    between atoms: C_2  and  C_3 
REMARK    2  A    between atoms: C_4  and  N_5 
REMARK    3  A    between atoms: C_6  and  S_7 
REMARK    4  A    between atoms: S_7  and  C_8 
REMARK    5  A    between atoms: C_8  and  C_9 
REMARK       I    between atoms: C_9  and  N_10 
REMARK    6  A    between atoms: N_10  and  C_11 
REMARK    7  A    between atoms: C_12  and  O_13 
REMARK    8  A    between atoms: C_16  and  O_17 
REMARK    9  A    between atoms: C_26  and  N_27 
ROOT
HETATM    1  N   UNL     1       4.359  29.218  49.162  1.00  0.00    -0.275 N 
HETATM    2  C   UNL     1       4.830  29.291  50.500  1.00  0.00     0.177 A 
HETATM    3  N   UNL     1       5.501  30.289  51.023  1.00  0.00    -0.204 NA
HETATM    4  C   UNL     1       5.654  31.340  50.185  1.00  0.00     0.162 A 
HETATM    5  C   UNL     1       5.261  31.473  48.880  1.00  0.00     0.081 A 
HETATM    6  C   UNL     1       4.615  30.345  48.279  1.00  0.00     0.124 A 
HETATM    7  N   UNL     1       6.184  32.552  50.520  1.00  0.00    -0.260 N 
HETATM    8  H   UNL     1       6.542  32.851  51.421  1.00  0.00     0.191 HD
HETATM    9  N   UNL     1       6.177  33.434  49.497  1.00  0.00    -0.177 NA
HETATM   10  C   UNL     1       5.580  32.780  48.488  1.00  0.00     0.068 A 
HETATM   11  C   UNL     1       5.331  33.483  47.209  1.00  0.00     0.073 C 
ENDROOT
BRANCH   2  12
HETATM   12  S   UNL     1       4.451  27.969  51.621  1.00  0.00    -0.082 SA
BRANCH  12  13
HETATM   13  C   UNL     1       5.937  26.948  51.498  1.00  0.00     0.185 C 
BRANCH  13  14
HETATM   14  C   UNL     1       5.835  25.709  52.374  1.00  0.00     0.232 C 
HETATM   15  N   UNL     1       7.071  25.193  52.730  1.00  0.00    -0.324 N 
HETATM   16  H   UNL     1       7.870  25.582  52.243  1.00  0.00     0.169 HD
HETATM   17  O   UNL     1       4.741  25.205  52.619  1.00  0.00    -0.272 OA
BRANCH  15  18
HETATM   18  C   UNL     1       7.310  24.066  53.548  1.00  0.00     0.070 A 
HETATM   19  C   UNL     1       7.194  24.062  54.950  1.00  0.00     0.097 A 
HETATM   20  C   UNL     1       7.390  22.863  55.656  1.00  0.00     0.077 A 
HETATM   21  C   UNL     1       7.727  21.683  54.983  1.00  0.00     0.092 A 
HETATM   22  C   UNL     1       7.930  21.723  53.600  1.00  0.00     0.069 A 
HETATM   23 CL   UNL     1       8.412  20.318  52.715  1.00  0.00    -0.081 Cl
HETATM   24  C   UNL     1       7.727  22.905  52.888  1.00  0.00     0.059 A 
BRANCH  19  25
HETATM   25  O   UNL     1       7.049  25.275  55.569  1.00  0.00    -0.354 OA
HETATM   26  C   UNL     1       5.880  25.486  56.348  1.00  0.00     0.210 C 
ENDBRANCH  19  25
BRANCH  21  27
HETATM   27  O   UNL     1       7.947  20.490  55.622  1.00  0.00    -0.354 OA
HETATM   28  C   UNL     1       9.224  20.341  56.233  1.00  0.00     0.210 C 
ENDBRANCH  21  27
ENDBRANCH  15  18
ENDBRANCH  13  14
ENDBRANCH  12  13
ENDBRANCH   2  12
BRANCH   1  29
HETATM   29  C   UNL     1       3.737  28.038  48.649  1.00  0.00     0.049 A 
HETATM   30  C   UNL     1       2.331  27.919  48.569  1.00  0.00    -0.031 A 
HETATM   31  C   UNL     1       1.784  26.777  47.958  1.00  0.00     0.009 A 
HETATM   32  C   UNL     1       2.603  25.769  47.448  1.00  0.00     0.001 A 
HETATM   33  C   UNL     1       3.985  25.885  47.534  1.00  0.00     0.002 A 
HETATM   34  C   UNL     1       4.550  27.016  48.123  1.00  0.00     0.031 A 
BRANCH  30  35
HETATM   35  C   UNL     1       1.384  28.957  49.133  1.00  0.00     0.036 C 
HETATM   36  C   UNL     1       0.889  29.939  48.080  1.00  0.00     0.010 C 
ENDBRANCH  30  35
ENDBRANCH   1  29
BRANCH   6  37
HETATM   37  N   UNL     1       4.303  30.335  46.998  1.00  0.00    -0.384 N 
HETATM   38  H   UNL     1       4.734  30.964  46.336  1.00  0.00     0.157 HD
HETATM   39  H   UNL     1       3.627  29.663  46.652  1.00  0.00     0.157 HD
ENDBRANCH   6  37
TORSDOF 9
ENDMDL
MODEL 4
REMARK VINA RESULT:      -8.4      9.709     13.624
REMARK  9 active torsions:
REMARK  status: ('A' for Active; 'I' for Inactive)
REMARK    1  A    between atoms: C_2  and  C_3 
REMARK    2  A    between atoms: C_4  and  N_5 
REMARK    3  A    between atoms: C_6  and  S_7 
REMARK    4  A    between atoms: S_7  and  C_8 
REMARK    5  A    between atoms: C_8  and  C_9 
REMARK       I    between atoms: C_9  and  N_10 
REMARK    6  A    between atoms: N_10  and  C_11 
REMARK    7  A    between atoms: C_12  and  O_13 
REMARK    8  A    between atoms: C_16  and  O_17 
REMARK    9  A    between atoms: C_26  and  N_27 
ROOT
HETATM    1  N   UNL     1       4.894  36.314  63.040  1.00  0.00    -0.275 N 
HETATM    2  C   UNL     1       4.182  36.008  61.849  1.00  0.00     0.177 A 
HETATM    3  N   UNL     1       4.169  36.734  60.757  1.00  0.00    -0.204 NA
HETATM    4  C   UNL     1       4.986  37.811  60.808  1.00  0.00     0.162 A 
HETATM    5  C   UNL     1       5.761  38.262  61.843  1.00  0.00     0.081 A 
HETATM    6  C   UNL     1       5.700  37.524  63.069  1.00  0.00     0.124 A 
HETATM    7  N   UNL     1       5.266  38.645  59.765  1.00  0.00    -0.260 N 
HETATM    8  H   UNL     1       4.915  38.599  58.815  1.00  0.00     0.191 HD
HETATM    9  N   UNL     1       6.149  39.615  60.087  1.00  0.00    -0.177 NA
HETATM   10  C   UNL     1       6.480  39.365  61.363  1.00  0.00     0.068 A 
HETATM   11  C   UNL     1       7.504  40.202  62.030  1.00  0.00     0.073 C 
ENDROOT
BRANCH   2  12
HETATM   12  S   UNL     1       3.266  34.491  61.757  1.00  0.00    -0.082 SA
BRANCH  12  13
HETATM   13  C   UNL     1       3.023  34.319  59.974  1.00  0.00     0.185 C 
BRANCH  13  14
HETATM   14  C   UNL     1       4.280  33.801  59.290  1.00  0.00     0.232 C 
HETATM   15  N   UNL     1       4.907  32.791  60.002  1.00  0.00    -0.324 N 
HETATM   16  H   UNL     1       4.568  32.637  60.944  1.00  0.00     0.169 HD
HETATM   17  O   UNL     1       4.701  34.337  58.267  1.00  0.00    -0.272 OA
BRANCH  15  18
HETATM   18  C   UNL     1       6.077  32.096  59.624  1.00  0.00     0.070 A 
HETATM   19  C   UNL     1       6.154  31.194  58.546  1.00  0.00     0.097 A 
HETATM   20  C   UNL     1       7.390  30.612  58.221  1.00  0.00     0.077 A 
HETATM   21  C   UNL     1       8.536  30.894  58.973  1.00  0.00     0.092 A 
HETATM   22  C   UNL     1       8.425  31.719  60.097  1.00  0.00     0.069 A 
HETATM   23 CL   UNL     1       9.785  32.056  61.110  1.00  0.00    -0.081 Cl
HETATM   24  C   UNL     1       7.205  32.312  60.423  1.00  0.00     0.059 A 
BRANCH  19  25
HETATM   25  O   UNL     1       4.974  30.811  57.966  1.00  0.00    -0.354 OA
HETATM   26  C   UNL     1       4.957  29.587  57.245  1.00  0.00     0.210 C 
ENDBRANCH  19  25
BRANCH  21  27
HETATM   27  O   UNL     1       9.763  30.341  58.711  1.00  0.00    -0.354 OA
HETATM   28  C   UNL     1      10.508  30.953  57.663  1.00  0.00     0.210 C 
ENDBRANCH  21  27
ENDBRANCH  15  18
ENDBRANCH  13  14
ENDBRANCH  12  13
ENDBRANCH   2  12
BRANCH   1  29
HETATM   29  C   UNL     1       4.755  35.521  64.221  1.00  0.00     0.049 A 
HETATM   30  C   UNL     1       5.697  34.522  64.555  1.00  0.00    -0.031 A 
HETATM   31  C   UNL     1       5.562  33.850  65.782  1.00  0.00     0.009 A 
HETATM   32  C   UNL     1       4.515  34.147  66.656  1.00  0.00     0.001 A 
HETATM   33  C   UNL     1       3.586  35.125  66.322  1.00  0.00     0.002 A 
HETATM   34  C   UNL     1       3.709  35.815  65.116  1.00  0.00     0.031 A 
BRANCH  30  35
HETATM   35  C   UNL     1       6.836  34.125  63.638  1.00  0.00     0.036 C 
HETATM   36  C   UNL     1       7.652  32.961  64.181  1.00  0.00     0.010 C 
ENDBRANCH  30  35
ENDBRANCH   1  29
BRANCH   6  37
HETATM   37  N   UNL     1       6.320  37.944  64.154  1.00  0.00    -0.384 N 
HETATM   38  H   UNL     1       6.200  38.880  64.513  1.00  0.00     0.157 HD
HETATM   39  H   UNL     1       6.921  37.308  64.665  1.00  0.00     0.157 HD
ENDBRANCH   6  37
TORSDOF 9
ENDMDL
MODEL 5
REMARK VINA RESULT:      -8.3      1.639      2.653
REMARK  9 active torsions:
REMARK  status: ('A' for Active; 'I' for Inactive)
REMARK    1  A    between atoms: C_2  and  C_3 
REMARK    2  A    between atoms: C_4  and  N_5 
REMARK    3  A    between atoms: C_6  and  S_7 
REMARK    4  A    between atoms: S_7  and  C_8 
REMARK    5  A    between atoms: C_8  and  C_9 
REMARK       I    between atoms: C_9  and  N_10 
REMARK    6  A    between atoms: N_10  and  C_11 
REMARK    7  A    between atoms: C_12  and  O_13 
REMARK    8  A    between atoms: C_16  and  O_17 
REMARK    9  A    between atoms: C_26  and  N_27 
ROOT
HETATM    1  N   UNL     1       6.879  25.939  55.266  1.00  0.00    -0.275 N 
HETATM    2  C   UNL     1       7.077  25.967  53.860  1.00  0.00     0.177 A 
HETATM    3  N   UNL     1       7.671  25.038  53.151  1.00  0.00    -0.204 NA
HETATM    4  C   UNL     1       8.031  23.951  53.872  1.00  0.00     0.162 A 
HETATM    5  C   UNL     1       7.911  23.724  55.217  1.00  0.00     0.081 A 
HETATM    6  C   UNL     1       7.351  24.779  56.006  1.00  0.00     0.124 A 
HETATM    7  N   UNL     1       8.533  22.789  53.359  1.00  0.00    -0.260 N 
HETATM    8  H   UNL     1       8.717  22.562  52.389  1.00  0.00     0.191 HD
HETATM    9  N   UNL     1       8.765  21.852  54.304  1.00  0.00    -0.177 NA
HETATM   10  C   UNL     1       8.354  22.415  55.451  1.00  0.00     0.068 A 
HETATM   11  C   UNL     1       8.393  21.628  56.705  1.00  0.00     0.073 C 
ENDROOT
BRANCH   2  12
HETATM   12  S   UNL     1       6.429  27.329  52.924  1.00  0.00    -0.082 SA
BRANCH  12  13
HETATM   13  C   UNL     1       5.777  26.489  51.462  1.00  0.00     0.185 C 
BRANCH  13  14
HETATM   14  C   UNL     1       5.115  27.470  50.506  1.00  0.00     0.232 C 
HETATM   15  N   UNL     1       3.874  27.041  50.064  1.00  0.00    -0.324 N 
HETATM   16  H   UNL     1       3.633  26.082  50.281  1.00  0.00     0.169 HD
HETATM   17  O   UNL     1       5.716  28.471  50.123  1.00  0.00    -0.272 OA
BRANCH  15  18
HETATM   18  C   UNL     1       3.006  27.733  49.190  1.00  0.00     0.070 A 
HETATM   19  C   UNL     1       2.759  27.362  47.855  1.00  0.00     0.097 A 
HETATM   20  C   UNL     1       1.822  28.086  47.099  1.00  0.00     0.077 A 
HETATM   21  C   UNL     1       1.155  29.186  47.649  1.00  0.00     0.092 A 
HETATM   22  C   UNL     1       1.478  29.599  48.945  1.00  0.00     0.069 A 
HETATM   23 CL   UNL     1       0.741  30.989  49.662  1.00  0.00    -0.081 Cl
HETATM   24  C   UNL     1       2.398  28.881  49.709  1.00  0.00     0.059 A 
BRANCH  19  25
HETATM   25  O   UNL     1       3.573  26.403  47.312  1.00  0.00    -0.354 OA
HETATM   26  C   UNL     1       3.101  25.063  47.304  1.00  0.00     0.210 C 
ENDBRANCH  19  25
BRANCH  21  27
HETATM   27  O   UNL     1       0.245  29.939  46.952  1.00  0.00    -0.354 OA
HETATM   28  C   UNL     1       0.783  30.773  45.931  1.00  0.00     0.210 C 
ENDBRANCH  21  27
ENDBRANCH  15  18
ENDBRANCH  13  14
ENDBRANCH  12  13
ENDBRANCH   2  12
BRANCH   1  29
HETATM   29  C   UNL     1       6.323  27.054  55.968  1.00  0.00     0.049 A 
HETATM   30  C   UNL     1       7.144  28.062  56.521  1.00  0.00    -0.031 A 
HETATM   31  C   UNL     1       6.532  29.185  57.107  1.00  0.00     0.009 A 
HETATM   32  C   UNL     1       5.143  29.305  57.156  1.00  0.00     0.001 A 
HETATM   33  C   UNL     1       4.338  28.309  56.617  1.00  0.00     0.002 A 
HETATM   34  C   UNL     1       4.923  27.193  56.019  1.00  0.00     0.031 A 
BRANCH  30  35
HETATM   35  C   UNL     1       8.656  27.978  56.533  1.00  0.00     0.036 C 
HETATM   36  C   UNL     1       9.304  29.119  57.303  1.00  0.00     0.010 C 
ENDBRANCH  30  35
ENDBRANCH   1  29
BRANCH   6  37
HETATM   37  N   UNL     1       7.299  24.700  57.321  1.00  0.00    -0.384 N 
HETATM   38  H   UNL     1       6.704  24.037  57.796  1.00  0.00     0.157 HD
HETATM   39  H   UNL     1       7.890  25.304  57.882  1.00  0.00     0.157 HD
ENDBRANCH   6  37
TORSDOF 9
ENDMDL
MODEL 6
REMARK VINA RESULT:      -8.2      5.314      9.647
REMARK  9 active torsions:
REMARK  status: ('A' for Active; 'I' for Inactive)
REMARK    1  A    between atoms: C_2  and  C_3 
REMARK    2  A    between atoms: C_4  and  N_5 
REMARK    3  A    between atoms: C_6  and  S_7 
REMARK    4  A    between atoms: S_7  and  C_8 
REMARK    5  A    between atoms: C_8  and  C_9 
REMARK       I    between atoms: C_9  and  N_10 
REMARK    6  A    between atoms: N_10  and  C_11 
REMARK    7  A    between atoms: C_12  and  O_13 
REMARK    8  A    between atoms: C_16  and  O_17 
REMARK    9  A    between atoms: C_26  and  N_27 
ROOT
HETATM    1  N   UNL     1       5.242  27.402  54.103  1.00  0.00    -0.275 N 
HETATM    2  C   UNL     1       4.427  28.543  54.329  1.00  0.00     0.177 A 
HETATM    3  N   UNL     1       3.785  29.221  53.408  1.00  0.00    -0.204 NA
HETATM    4  C   UNL     1       3.887  28.687  52.169  1.00  0.00     0.162 A 
HETATM    5  C   UNL     1       4.599  27.594  51.752  1.00  0.00     0.081 A 
HETATM    6  C   UNL     1       5.378  26.911  52.741  1.00  0.00     0.124 A 
HETATM    7  N   UNL     1       3.205  29.109  51.065  1.00  0.00    -0.260 N 
HETATM    8  H   UNL     1       2.538  29.870  50.994  1.00  0.00     0.191 HD
HETATM    9  N   UNL     1       3.467  28.367  49.967  1.00  0.00    -0.177 NA
HETATM   10  C   UNL     1       4.305  27.410  50.395  1.00  0.00     0.068 A 
HETATM   11  C   UNL     1       4.748  26.354  49.454  1.00  0.00     0.073 C 
ENDROOT
BRANCH   2  12
HETATM   12  S   UNL     1       4.172  29.106  55.993  1.00  0.00    -0.082 SA
BRANCH  12  13
HETATM   13  C   UNL     1       5.423  30.403  56.135  1.00  0.00     0.185 C 
BRANCH  13  14
HETATM   14  C   UNL     1       5.945  30.519  57.560  1.00  0.00     0.232 C 
HETATM   15  N   UNL     1       5.780  31.786  58.095  1.00  0.00    -0.324 N 
HETATM   16  H   UNL     1       5.500  32.510  57.444  1.00  0.00     0.169 HD
HETATM   17  O   UNL     1       6.536  29.580  58.088  1.00  0.00    -0.272 OA
BRANCH  15  18
HETATM   18  C   UNL     1       6.142  32.205  59.395  1.00  0.00     0.070 A 
HETATM   19  C   UNL     1       7.465  32.422  59.822  1.00  0.00     0.097 A 
HETATM   20  C   UNL     1       7.701  32.904  61.120  1.00  0.00     0.077 A 
HETATM   21  C   UNL     1       6.640  33.144  62.000  1.00  0.00     0.092 A 
HETATM   22  C   UNL     1       5.337  32.837  61.593  1.00  0.00     0.069 A 
HETATM   23 CL   UNL     1       3.986  33.046  62.652  1.00  0.00    -0.081 Cl
HETATM   24  C   UNL     1       5.090  32.368  60.303  1.00  0.00     0.059 A 
BRANCH  19  25
HETATM   25  O   UNL     1       8.467  31.995  58.992  1.00  0.00    -0.354 OA
HETATM   26  C   UNL     1       9.425  31.089  59.522  1.00  0.00     0.210 C 
ENDBRANCH  19  25
BRANCH  21  27
HETATM   27  O   UNL     1       6.813  33.598  63.282  1.00  0.00    -0.354 OA
HETATM   28  C   UNL     1       7.784  32.903  64.059  1.00  0.00     0.210 C 
ENDBRANCH  21  27
ENDBRANCH  15  18
ENDBRANCH  13  14
ENDBRANCH  12  13
ENDBRANCH   2  12
BRANCH   1  29
HETATM   29  C   UNL     1       5.996  26.798  55.157  1.00  0.00     0.049 A 
HETATM   30  C   UNL     1       7.278  27.275  55.515  1.00  0.00    -0.031 A 
HETATM   31  C   UNL     1       7.923  26.706  56.627  1.00  0.00     0.009 A 
HETATM   32  C   UNL     1       7.324  25.683  57.363  1.00  0.00     0.001 A 
HETATM   33  C   UNL     1       6.066  25.211  57.005  1.00  0.00     0.002 A 
HETATM   34  C   UNL     1       5.402  25.771  55.914  1.00  0.00     0.031 A 
BRANCH  30  35
HETATM   35  C   UNL     1       8.000  28.356  54.739  1.00  0.00     0.036 C 
HETATM   36  C   UNL     1       8.949  29.170  55.606  1.00  0.00     0.010 C 
ENDBRANCH  30  35
ENDBRANCH   1  29
BRANCH   6  37
HETATM   37  N   UNL     1       6.184  25.920  52.415  1.00  0.00    -0.384 N 
HETATM   38  H   UNL     1       6.476  25.223  53.084  1.00  0.00     0.157 HD
HETATM   39  H   UNL     1       6.507  25.832  51.458  1.00  0.00     0.157 HD
ENDBRANCH   6  37
TORSDOF 9
ENDMDL
MODEL 7
REMARK VINA RESULT:      -8.2      2.793      5.112
REMARK  9 active torsions:
REMARK  status: ('A' for Active; 'I' for Inactive)
REMARK    1  A    between atoms: C_2  and  C_3 
REMARK    2  A    between atoms: C_4  and  N_5 
REMARK    3  A    between atoms: C_6  and  S_7 
REMARK    4  A    between atoms: S_7  and  C_8 
REMARK    5  A    between atoms: C_8  and  C_9 
REMARK       I    between atoms: C_9  and  N_10 
REMARK    6  A    between atoms: N_10  and  C_11 
REMARK    7  A    between atoms: C_12  and  O_13 
REMARK    8  A    between atoms: C_16  and  O_17 
REMARK    9  A    between atoms: C_26  and  N_27 
ROOT
HETATM    1  N   UNL     1       6.451  27.628  54.832  1.00  0.00    -0.275 N 
HETATM    2  C   UNL     1       5.345  28.387  54.364  1.00  0.00     0.177 A 
HETATM    3  N   UNL     1       4.869  29.474  54.923  1.00  0.00    -0.204 NA
HETATM    4  C   UNL     1       5.589  29.899  55.986  1.00  0.00     0.162 A 
HETATM    5  C   UNL     1       6.686  29.327  56.575  1.00  0.00     0.081 A 
HETATM    6  C   UNL     1       7.146  28.088  56.024  1.00  0.00     0.124 A 
HETATM    7  N   UNL     1       5.399  31.073  56.656  1.00  0.00    -0.260 N 
HETATM    8  H   UNL     1       4.706  31.790  56.476  1.00  0.00     0.191 HD
HETATM    9  N   UNL     1       6.290  31.263  57.653  1.00  0.00    -0.177 NA
HETATM   10  C   UNL     1       7.106  30.200  57.587  1.00  0.00     0.068 A 
HETATM   11  C   UNL     1       8.269  30.115  58.502  1.00  0.00     0.073 C 
ENDROOT
BRANCH   2  12
HETATM   12  S   UNL     1       4.538  27.899  52.860  1.00  0.00    -0.082 SA
BRANCH  12  13
HETATM   13  C   UNL     1       5.585  28.683  51.613  1.00  0.00     0.185 C 
BRANCH  13  14
HETATM   14  C   UNL     1       4.857  28.822  50.284  1.00  0.00     0.232 C 
HETATM   15  N   UNL     1       3.597  28.246  50.294  1.00  0.00    -0.324 N 
HETATM   16  H   UNL     1       3.380  27.669  51.098  1.00  0.00     0.169 HD
HETATM   17  O   UNL     1       5.423  29.312  49.309  1.00  0.00    -0.272 OA
BRANCH  15  18
HETATM   18  C   UNL     1       2.672  28.225  49.227  1.00  0.00     0.070 A 
HETATM   19  C   UNL     1       2.472  27.128  48.368  1.00  0.00     0.097 A 
HETATM   20  C   UNL     1       1.474  27.196  47.382  1.00  0.00     0.077 A 
HETATM   21  C   UNL     1       0.698  28.350  47.226  1.00  0.00     0.092 A 
HETATM   22  C   UNL     1       0.970  29.465  48.025  1.00  0.00     0.069 A 
HETATM   23 CL   UNL     1       0.095  30.945  47.841  1.00  0.00    -0.081 Cl
HETATM   24  C   UNL     1       1.950  29.405  49.016  1.00  0.00     0.059 A 
BRANCH  19  25
HETATM   25  O   UNL     1       3.379  26.104  48.441  1.00  0.00    -0.354 OA
HETATM   26  C   UNL     1       2.985  24.834  47.942  1.00  0.00     0.210 C 
ENDBRANCH  19  25
BRANCH  21  27
HETATM   27  O   UNL     1      -0.276  28.478  46.270  1.00  0.00    -0.354 OA
HETATM   28  C   UNL     1      -0.379  27.402  45.342  1.00  0.00     0.210 C 
ENDBRANCH  21  27
ENDBRANCH  15  18
ENDBRANCH  13  14
ENDBRANCH  12  13
ENDBRANCH   2  12
BRANCH   1  29
HETATM   29  C   UNL     1       6.824  26.391  54.222  1.00  0.00     0.049 A 
HETATM   30  C   UNL     1       6.220  25.170  54.598  1.00  0.00    -0.031 A 
HETATM   31  C   UNL     1       6.555  24.004  53.887  1.00  0.00     0.009 A 
HETATM   32  C   UNL     1       7.474  24.038  52.837  1.00  0.00     0.001 A 
HETATM   33  C   UNL     1       8.072  25.240  52.474  1.00  0.00     0.002 A 
HETATM   34  C   UNL     1       7.743  26.411  53.156  1.00  0.00     0.031 A 
BRANCH  30  35
HETATM   35  C   UNL     1       5.243  25.056  55.749  1.00  0.00     0.036 C 
HETATM   36  C   UNL     1       5.933  24.862  57.092  1.00  0.00     0.010 C 
ENDBRANCH  30  35
ENDBRANCH   1  29
BRANCH   6  37
HETATM   37  N   UNL     1       8.121  27.405  56.591  1.00  0.00    -0.384 N 
HETATM   38  H   UNL     1       8.555  27.704  57.452  1.00  0.00     0.157 HD
HETATM   39  H   UNL     1       8.436  26.539  56.170  1.00  0.00     0.157 HD
ENDBRANCH   6  37
TORSDOF 9
ENDMDL
MODEL 8
REMARK VINA RESULT:      -8.0      6.666     10.730
REMARK  9 active torsions:
REMARK  status: ('A' for Active; 'I' for Inactive)
REMARK    1  A    between atoms: C_2  and  C_3 
REMARK    2  A    between atoms: C_4  and  N_5 
REMARK    3  A    between atoms: C_6  and  S_7 
REMARK    4  A    between atoms: S_7  and  C_8 
REMARK    5  A    between atoms: C_8  and  C_9 
REMARK       I    between atoms: C_9  and  N_10 
REMARK    6  A    between atoms: N_10  and  C_11 
REMARK    7  A    between atoms: C_12  and  O_13 
REMARK    8  A    between atoms: C_16  and  O_17 
REMARK    9  A    between atoms: C_26  and  N_27 
ROOT
HETATM    1  N   UNL     1       6.223  29.328  55.775  1.00  0.00    -0.275 N 
HETATM    2  C   UNL     1       5.567  29.792  56.947  1.00  0.00     0.177 A 
HETATM    3  N   UNL     1       6.152  30.112  58.076  1.00  0.00    -0.204 NA
HETATM    4  C   UNL     1       7.502  30.049  58.027  1.00  0.00     0.162 A 
HETATM    5  C   UNL     1       8.315  29.651  56.999  1.00  0.00     0.081 A 
HETATM    6  C   UNL     1       7.672  29.208  55.798  1.00  0.00     0.124 A 
HETATM    7  N   UNL     1       8.353  30.464  59.011  1.00  0.00    -0.260 N 
HETATM    8  H   UNL     1       8.119  30.869  59.910  1.00  0.00     0.191 HD
HETATM    9  N   UNL     1       9.654  30.324  58.678  1.00  0.00    -0.177 NA
HETATM   10  C   UNL     1       9.636  29.849  57.423  1.00  0.00     0.068 A 
HETATM   11  C   UNL     1      10.913  29.643  56.701  1.00  0.00     0.073 C 
ENDROOT
BRANCH   2  12
HETATM   12  S   UNL     1       3.810  30.035  56.914  1.00  0.00    -0.082 SA
BRANCH  12  13
HETATM   13  C   UNL     1       3.663  31.723  57.541  1.00  0.00     0.185 C 
BRANCH  13  14
HETATM   14  C   UNL     1       3.624  31.750  59.062  1.00  0.00     0.232 C 
HETATM   15  N   UNL     1       4.580  32.588  59.614  1.00  0.00    -0.324 N 
HETATM   16  H   UNL     1       5.281  32.942  58.974  1.00  0.00     0.169 HD
HETATM   17  O   UNL     1       2.871  31.002  59.682  1.00  0.00    -0.272 OA
BRANCH  15  18
HETATM   18  C   UNL     1       4.785  32.842  60.988  1.00  0.00     0.070 A 
HETATM   19  C   UNL     1       3.819  33.396  61.848  1.00  0.00     0.097 A 
HETATM   20  C   UNL     1       4.112  33.541  63.214  1.00  0.00     0.077 A 
HETATM   21  C   UNL     1       5.362  33.168  63.722  1.00  0.00     0.092 A 
HETATM   22  C   UNL     1       6.344  32.706  62.840  1.00  0.00     0.069 A 
HETATM   23 CL   UNL     1       7.930  32.291  63.389  1.00  0.00    -0.081 Cl
HETATM   24  C   UNL     1       6.060  32.547  61.484  1.00  0.00     0.059 A 
BRANCH  19  25
HETATM   25  O   UNL     1       2.691  33.915  61.269  1.00  0.00    -0.354 OA
HETATM   26  C   UNL     1       2.500  35.321  61.334  1.00  0.00     0.210 C 
ENDBRANCH  19  25
BRANCH  21  27
HETATM   27  O   UNL     1       5.708  33.304  65.042  1.00  0.00    -0.354 OA
HETATM   28  C   UNL     1       4.744  33.942  65.873  1.00  0.00     0.210 C 
ENDBRANCH  21  27
ENDBRANCH  15  18
ENDBRANCH  13  14
ENDBRANCH  12  13
ENDBRANCH   2  12
BRANCH   1  29
HETATM   29  C   UNL     1       5.490  28.892  54.628  1.00  0.00     0.049 A 
HETATM   30  C   UNL     1       5.084  27.547  54.478  1.00  0.00    -0.031 A 
HETATM   31  C   UNL     1       4.276  27.204  53.380  1.00  0.00     0.009 A 
HETATM   32  C   UNL     1       3.886  28.163  52.444  1.00  0.00     0.001 A 
HETATM   33  C   UNL     1       4.293  29.484  52.590  1.00  0.00     0.002 A 
HETATM   34  C   UNL     1       5.082  29.849  53.680  1.00  0.00     0.031 A 
BRANCH  30  35
HETATM   35  C   UNL     1       5.500  26.451  55.437  1.00  0.00     0.036 C 
HETATM   36  C   UNL     1       6.036  25.217  54.725  1.00  0.00     0.010 C 
ENDBRANCH  30  35
ENDBRANCH   1  29
BRANCH   6  37
HETATM   37  N   UNL     1       8.363  28.699  54.798  1.00  0.00    -0.384 N 
HETATM   38  H   UNL     1       8.104  27.831  54.353  1.00  0.00     0.157 HD
HETATM   39  H   UNL     1       9.169  29.200  54.441  1.00  0.00     0.157 HD
ENDBRANCH   6  37
TORSDOF 9
ENDMDL
MODEL 9
REMARK VINA RESULT:      -8.0      3.842      9.556
REMARK  9 active torsions:
REMARK  status: ('A' for Active; 'I' for Inactive)
REMARK    1  A    between atoms: C_2  and  C_3 
REMARK    2  A    between atoms: C_4  and  N_5 
REMARK    3  A    between atoms: C_6  and  S_7 
REMARK    4  A    between atoms: S_7  and  C_8 
REMARK    5  A    between atoms: C_8  and  C_9 
REMARK       I    between atoms: C_9  and  N_10 
REMARK    6  A    between atoms: N_10  and  C_11 
REMARK    7  A    between atoms: C_12  and  O_13 
REMARK    8  A    between atoms: C_16  and  O_17 
REMARK    9  A    between atoms: C_26  and  N_27 
ROOT
HETATM    1  N   UNL     1       3.507  29.504  50.948  1.00  0.00    -0.275 N 
HETATM    2  C   UNL     1       4.605  28.737  51.420  1.00  0.00     0.177 A 
HETATM    3  N   UNL     1       5.206  28.889  52.576  1.00  0.00    -0.204 NA
HETATM    4  C   UNL     1       4.630  29.821  53.370  1.00  0.00     0.162 A 
HETATM    5  C   UNL     1       3.567  30.644  53.110  1.00  0.00     0.081 A 
HETATM    6  C   UNL     1       2.971  30.545  51.811  1.00  0.00     0.124 A 
HETATM    7  N   UNL     1       4.966  30.075  54.668  1.00  0.00    -0.260 N 
HETATM    8  H   UNL     1       5.682  29.625  55.229  1.00  0.00     0.191 HD
HETATM    9  N   UNL     1       4.198  31.030  55.236  1.00  0.00    -0.177 NA
HETATM   10  C   UNL     1       3.312  31.364  54.285  1.00  0.00     0.068 A 
HETATM   11  C   UNL     1       2.248  32.349  54.592  1.00  0.00     0.073 C 
ENDROOT
BRANCH   2  12
HETATM   12  S   UNL     1       5.216  27.401  50.424  1.00  0.00    -0.082 SA
BRANCH  12  13
HETATM   13  C   UNL     1       4.833  25.969  51.459  1.00  0.00     0.185 C 
BRANCH  13  14
HETATM   14  C   UNL     1       6.095  25.348  52.038  1.00  0.00     0.232 C 
HETATM   15  N   UNL     1       5.836  24.443  53.055  1.00  0.00    -0.324 N 
HETATM   16  H   UNL     1       4.885  24.426  53.401  1.00  0.00     0.169 HD
HETATM   17  O   UNL     1       7.205  25.730  51.672  1.00  0.00    -0.272 OA
BRANCH  15  18
HETATM   18  C   UNL     1       6.790  23.690  53.775  1.00  0.00     0.070 A 
HETATM   19  C   UNL     1       7.242  24.007  55.069  1.00  0.00     0.097 A 
HETATM   20  C   UNL     1       8.143  23.146  55.717  1.00  0.00     0.077 A 
HETATM   21  C   UNL     1       8.617  21.994  55.079  1.00  0.00     0.092 A 
HETATM   22  C   UNL     1       8.231  21.740  53.759  1.00  0.00     0.069 A 
HETATM   23 CL   UNL     1       8.830  20.371  52.889  1.00  0.00    -0.081 Cl
HETATM   24  C   UNL     1       7.327  22.582  53.111  1.00  0.00     0.059 A 
BRANCH  19  25
HETATM   25  O   UNL     1       6.895  25.235  55.568  1.00  0.00    -0.354 OA
HETATM   26  C   UNL     1       5.866  25.286  56.546  1.00  0.00     0.210 C 
ENDBRANCH  19  25
BRANCH  21  27
HETATM   27  O   UNL     1       9.510  21.129  55.656  1.00  0.00    -0.354 OA
HETATM   28  C   UNL     1       8.986  20.290  56.681  1.00  0.00     0.210 C 
ENDBRANCH  21  27
ENDBRANCH  15  18
ENDBRANCH  13  14
ENDBRANCH  12  13
ENDBRANCH   2  12
BRANCH   1  29
HETATM   29  C   UNL     1       2.992  29.341  49.625  1.00  0.00     0.049 A 
HETATM   30  C   UNL     1       3.608  29.956  48.512  1.00  0.00    -0.031 A 
HETATM   31  C   UNL     1       3.115  29.672  47.225  1.00  0.00     0.009 A 
HETATM   32  C   UNL     1       2.033  28.810  47.041  1.00  0.00     0.001 A 
HETATM   33  C   UNL     1       1.425  28.212  48.139  1.00  0.00     0.002 A 
HETATM   34  C   UNL     1       1.906  28.468  49.422  1.00  0.00     0.031 A 
BRANCH  30  35
HETATM   35  C   UNL     1       4.761  30.929  48.643  1.00  0.00     0.036 C 
HETATM   36  C   UNL     1       4.310  32.382  48.650  1.00  0.00     0.010 C 
ENDBRANCH  30  35
ENDBRANCH   1  29
BRANCH   6  37
HETATM   37  N   UNL     1       2.019  31.372  51.429  1.00  0.00    -0.384 N 
HETATM   38  H   UNL     1       1.670  32.104  52.030  1.00  0.00     0.157 HD
HETATM   39  H   UNL     1       1.633  31.293  50.495  1.00  0.00     0.157 HD
ENDBRANCH   6  37
TORSDOF 9
ENDMDL
MODEL 10
REMARK VINA RESULT:      -7.8      1.771      2.444
REMARK  9 active torsions:
REMARK  status: ('A' for Active; 'I' for Inactive)
REMARK    1  A    between atoms: C_2  and  C_3 
REMARK    2  A    between atoms: C_4  and  N_5 
REMARK    3  A    between atoms: C_6  and  S_7 
REMARK    4  A    between atoms: S_7  and  C_8 
REMARK    5  A    between atoms: C_8  and  C_9 
REMARK       I    between atoms: C_9  and  N_10 
REMARK    6  A    between atoms: N_10  and  C_11 
REMARK    7  A    between atoms: C_12  and  O_13 
REMARK    8  A    between atoms: C_16  and  O_17 
REMARK    9  A    between atoms: C_26  and  N_27 
ROOT
HETATM    1  N   UNL     1       6.369  26.060  55.007  1.00  0.00    -0.275 N 
HETATM    2  C   UNL     1       6.062  25.812  53.642  1.00  0.00     0.177 A 
HETATM    3  N   UNL     1       6.395  24.740  52.965  1.00  0.00    -0.204 NA
HETATM    4  C   UNL     1       7.013  23.795  53.710  1.00  0.00     0.162 A 
HETATM    5  C   UNL     1       7.378  23.833  55.029  1.00  0.00     0.081 A 
HETATM    6  C   UNL     1       7.101  25.043  55.745  1.00  0.00     0.124 A 
HETATM    7  N   UNL     1       7.335  22.537  53.289  1.00  0.00    -0.260 N 
HETATM    8  H   UNL     1       7.173  22.121  52.379  1.00  0.00     0.191 HD
HETATM    9  N   UNL     1       7.908  21.787  54.256  1.00  0.00    -0.177 NA
HETATM   10  C   UNL     1       7.910  22.575  55.342  1.00  0.00     0.068 A 
HETATM   11  C   UNL     1       8.407  22.040  56.631  1.00  0.00     0.073 C 
ENDROOT
BRANCH   2  12
HETATM   12  S   UNL     1       5.091  26.997  52.747  1.00  0.00    -0.082 SA
BRANCH  12  13
HETATM   13  C   UNL     1       5.585  26.659  51.041  1.00  0.00     0.185 C 
BRANCH  13  14
HETATM   14  C   UNL     1       4.885  27.593  50.065  1.00  0.00     0.232 C 
HETATM   15  N   UNL     1       3.503  27.516  50.137  1.00  0.00    -0.324 N 
HETATM   16  H   UNL     1       3.130  26.752  50.688  1.00  0.00     0.169 HD
HETATM   17  O   UNL     1       5.533  28.244  49.249  1.00  0.00    -0.272 OA
BRANCH  15  18
HETATM   18  C   UNL     1       2.576  28.265  49.379  1.00  0.00     0.070 A 
HETATM   19  C   UNL     1       2.235  29.606  49.638  1.00  0.00     0.097 A 
HETATM   20  C   UNL     1       1.351  30.273  48.774  1.00  0.00     0.077 A 
HETATM   21  C   UNL     1       0.784  29.611  47.679  1.00  0.00     0.092 A 
HETATM   22  C   UNL     1       1.059  28.253  47.488  1.00  0.00     0.069 A 
HETATM   23 CL   UNL     1       0.341  27.358  46.195  1.00  0.00    -0.081 Cl
HETATM   24  C   UNL     1       1.945  27.584  48.332  1.00  0.00     0.059 A 
BRANCH  19  25
HETATM   25  O   UNL     1       2.669  30.143  50.821  1.00  0.00    -0.354 OA
HETATM   26  C   UNL     1       2.934  31.539  50.856  1.00  0.00     0.210 C 
ENDBRANCH  19  25
BRANCH  21  27
HETATM   27  O   UNL     1      -0.098  30.207  46.814  1.00  0.00    -0.354 OA
HETATM   28  C   UNL     1       0.364  31.396  46.180  1.00  0.00     0.210 C 
ENDBRANCH  21  27
ENDBRANCH  15  18
ENDBRANCH  13  14
ENDBRANCH  12  13
ENDBRANCH   2  12
BRANCH   1  29
HETATM   29  C   UNL     1       6.064  27.310  55.629  1.00  0.00     0.049 A 
HETATM   30  C   UNL     1       6.916  28.430  55.494  1.00  0.00    -0.031 A 
HETATM   31  C   UNL     1       6.508  29.659  56.042  1.00  0.00     0.009 A 
HETATM   32  C   UNL     1       5.293  29.780  56.717  1.00  0.00     0.001 A 
HETATM   33  C   UNL     1       4.461  28.675  56.855  1.00  0.00     0.002 A 
HETATM   34  C   UNL     1       4.839  27.450  56.307  1.00  0.00     0.031 A 
BRANCH  30  35
HETATM   35  C   UNL     1       8.263  28.360  54.804  1.00  0.00     0.036 C 
HETATM   36  C   UNL     1       9.314  29.234  55.474  1.00  0.00     0.010 C 
ENDBRANCH  30  35
ENDBRANCH   1  29
BRANCH   6  37
HETATM   37  N   UNL     1       7.516  25.217  56.984  1.00  0.00    -0.384 N 
HETATM   38  H   UNL     1       8.260  24.665  57.383  1.00  0.00     0.157 HD
HETATM   39  H   UNL     1       7.096  25.942  57.554  1.00  0.00     0.157 HD
ENDBRANCH   6  37
TORSDOF 9
ENDMDL
