MODEL 1
REMARK VINA RESULT:     -11.5      0.000      0.000
REMARK  6 active torsions:
REMARK  status: ('A' for Active; 'I' for Inactive)
REMARK    1  A    between atoms: C_5  and  N_6 
REMARK       I    between atoms: N_6  and  C_7 
REMARK       I    between atoms: C_7  and  N_8 
REMARK    2  A    between atoms: N_8  and  C_9 
REMARK    3  A    between atoms: C_12  and  C_13 
REMARK    4  A    between atoms: C_13  and  C_14 
REMARK       I    between atoms: C_14  and  N_15 
REMARK    5  A    between atoms: N_18  and  C_19 
REMARK    6  A    between atoms: C_21  and  C_22 
ROOT
HETATM    1  C   UNL     1       4.095  29.123  56.788  1.00  0.00     0.162 C 
ENDROOT
BRANCH   1   2
HETATM    2  C   UNL     1       4.860  30.332  57.209  1.00  0.00     0.052 A 
HETATM    3  C   UNL     1       4.329  31.599  57.382  1.00  0.00     0.081 A 
HETATM    4  S   UNL     1       5.486  32.627  58.114  1.00  0.00    -0.062 SA
HETATM    5  C   UNL     1       6.604  31.344  58.093  1.00  0.00     0.174 A 
HETATM    6  N   UNL     1       6.203  30.211  57.567  1.00  0.00    -0.228 NA
BRANCH   5   7
HETATM    7  N   UNL     1       7.807  31.641  58.658  1.00  0.00    -0.287 N 
HETATM    8  C   UNL     1       8.026  32.219  59.874  1.00  0.00     0.326 C 
HETATM    9  N   UNL     1       6.943  32.335  60.704  1.00  0.00    -0.309 N 
HETATM   10  O   UNL     1       9.184  32.525  60.153  1.00  0.00    -0.247 OA
HETATM   11  H   UNL     1       6.077  31.965  60.327  1.00  0.00     0.170 HD
HETATM   12  H   UNL     1       8.639  31.444  58.122  1.00  0.00     0.172 HD
BRANCH   9  13
HETATM   13  C   UNL     1       6.930  32.765  62.046  1.00  0.00     0.036 A 
HETATM   14  C   UNL     1       7.900  32.424  62.987  1.00  0.00     0.030 A 
HETATM   15  C   UNL     1       7.794  32.869  64.310  1.00  0.00     0.009 A 
HETATM   16  C   UNL     1       6.718  33.667  64.712  1.00  0.00    -0.062 A 
HETATM   17  C   UNL     1       6.582  34.086  66.146  1.00  0.00     0.048 C 
HETATM   18  C   UNL     1       5.743  34.007  63.771  1.00  0.00     0.009 A 
HETATM   19  C   UNL     1       5.858  33.567  62.448  1.00  0.00     0.030 A 
ENDBRANCH   9  13
ENDBRANCH   5   7
ENDBRANCH   1   2
BRANCH   1  20
HETATM   20  C   UNL     1       4.356  28.724  55.345  1.00  0.00     0.225 C 
HETATM   21  N   UNL     1       5.105  27.576  55.094  1.00  0.00    -0.349 N 
HETATM   22  C   UNL     1       4.875  26.913  53.801  1.00  0.00     0.145 C 
HETATM   23  C   UNL     1       5.637  26.722  56.163  1.00  0.00     0.145 C 
HETATM   24  C   UNL     1       5.957  25.895  53.388  1.00  0.00     0.143 C 
HETATM   25  N   UNL     1       6.281  24.997  54.518  1.00  0.00    -0.378 N 
HETATM   26  C   UNL     1       6.743  25.765  55.693  1.00  0.00     0.143 C 
HETATM   27  O   UNL     1       3.859  29.388  54.430  1.00  0.00    -0.273 OA
BRANCH  25  28
HETATM   28  C   UNL     1       7.008  23.825  54.278  1.00  0.00     0.030 A 
HETATM   29  C   UNL     1       7.319  22.977  55.357  1.00  0.00     0.045 A 
HETATM   30  C   UNL     1       8.051  21.787  55.196  1.00  0.00     0.050 A 
HETATM   31  C   UNL     1       8.459  21.418  53.910  1.00  0.00     0.016 A 
HETATM   32  C   UNL     1       8.141  22.225  52.821  1.00  0.00     0.003 A 
HETATM   33  C   UNL     1       7.422  23.412  53.006  1.00  0.00     0.029 A 
BRANCH  30  34
HETATM   34  C   UNL     1       8.378  20.916  56.380  1.00  0.00     0.417 C 
HETATM   35  F   UNL     1       9.618  20.353  56.322  1.00  0.00    -0.166 F 
HETATM   36  F   UNL     1       8.333  21.596  57.559  1.00  0.00    -0.166 F 
HETATM   37  F   UNL     1       7.508  19.875  56.516  1.00  0.00    -0.166 F 
ENDBRANCH  30  34
ENDBRANCH  25  28
ENDBRANCH   1  20
TORSDOF 6
ENDMDL
MODEL 2
REMARK VINA RESULT:     -11.4      4.960     11.882
REMARK  6 active torsions:
REMARK  status: ('A' for Active; 'I' for Inactive)
REMARK    1  A    between atoms: C_5  and  N_6 
REMARK       I    between atoms: N_6  and  C_7 
REMARK       I    between atoms: C_7  and  N_8 
REMARK    2  A    between atoms: N_8  and  C_9 
REMARK    3  A    between atoms: C_12  and  C_13 
REMARK    4  A    between atoms: C_13  and  C_14 
REMARK       I    between atoms: C_14  and  N_15 
REMARK    5  A    between atoms: N_18  and  C_19 
REMARK    6  A    between atoms: C_21  and  C_22 
ROOT
HETATM    1  C   UNL     1       7.303  30.267  56.656  1.00  0.00     0.162 C 
ENDROOT
BRANCH   1   2
HETATM    2  C   UNL     1       6.463  29.045  56.507  1.00  0.00     0.052 A 
HETATM    3  C   UNL     1       5.690  28.475  57.504  1.00  0.00     0.081 A 
HETATM    4  S   UNL     1       4.694  27.247  56.848  1.00  0.00    -0.062 SA
HETATM    5  C   UNL     1       5.396  27.526  55.323  1.00  0.00     0.174 A 
HETATM    6  N   UNL     1       6.331  28.444  55.255  1.00  0.00    -0.228 NA
BRANCH   5   7
HETATM    7  N   UNL     1       4.879  26.762  54.321  1.00  0.00    -0.287 N 
HETATM    8  C   UNL     1       5.409  25.617  53.800  1.00  0.00     0.326 C 
HETATM    9  N   UNL     1       6.460  25.062  54.479  1.00  0.00    -0.309 N 
HETATM   10  O   UNL     1       4.858  25.141  52.809  1.00  0.00    -0.247 OA
HETATM   11  H   UNL     1       6.737  25.562  55.318  1.00  0.00     0.170 HD
HETATM   12  H   UNL     1       4.026  27.076  53.883  1.00  0.00     0.172 HD
BRANCH   9  13
HETATM   13  C   UNL     1       7.087  23.825  54.231  1.00  0.00     0.036 A 
HETATM   14  C   UNL     1       7.517  23.403  52.973  1.00  0.00     0.030 A 
HETATM   15  C   UNL     1       8.105  22.144  52.809  1.00  0.00     0.009 A 
HETATM   16  C   UNL     1       8.275  21.286  53.901  1.00  0.00    -0.062 A 
HETATM   17  C   UNL     1       8.848  19.914  53.702  1.00  0.00     0.048 C 
HETATM   18  C   UNL     1       7.842  21.706  55.160  1.00  0.00     0.009 A 
HETATM   19  C   UNL     1       7.264  22.970  55.322  1.00  0.00     0.030 A 
ENDBRANCH   9  13
ENDBRANCH   5   7
ENDBRANCH   1   2
BRANCH   1  20
HETATM   20  C   UNL     1       8.267  30.191  57.828  1.00  0.00     0.225 C 
HETATM   21  N   UNL     1       7.957  30.888  58.995  1.00  0.00    -0.349 N 
HETATM   22  C   UNL     1       8.549  30.376  60.241  1.00  0.00     0.145 C 
HETATM   23  C   UNL     1       6.727  31.676  59.150  1.00  0.00     0.145 C 
HETATM   24  C   UNL     1       8.510  31.356  61.432  1.00  0.00     0.143 C 
HETATM   25  N   UNL     1       7.165  31.957  61.563  1.00  0.00    -0.378 N 
HETATM   26  C   UNL     1       6.773  32.663  60.326  1.00  0.00     0.143 C 
HETATM   27  O   UNL     1       9.271  29.478  57.746  1.00  0.00    -0.273 OA
BRANCH  25  28
HETATM   28  C   UNL     1       6.827  32.635  62.740  1.00  0.00     0.030 A 
HETATM   29  C   UNL     1       5.528  33.155  62.885  1.00  0.00     0.045 A 
HETATM   30  C   UNL     1       5.117  33.853  64.035  1.00  0.00     0.050 A 
HETATM   31  C   UNL     1       6.026  34.011  65.085  1.00  0.00     0.016 A 
HETATM   32  C   UNL     1       7.310  33.482  64.981  1.00  0.00     0.003 A 
HETATM   33  C   UNL     1       7.701  32.801  63.821  1.00  0.00     0.029 A 
BRANCH  30  34
HETATM   34  C   UNL     1       3.722  34.409  64.142  1.00  0.00     0.417 C 
HETATM   35  F   UNL     1       3.609  35.696  63.709  1.00  0.00    -0.166 F 
HETATM   36  F   UNL     1       2.816  33.693  63.420  1.00  0.00    -0.166 F 
HETATM   37  F   UNL     1       3.259  34.411  65.425  1.00  0.00    -0.166 F 
ENDBRANCH  30  34
ENDBRANCH  25  28
ENDBRANCH   1  20
TORSDOF 6
ENDMDL
MODEL 3
REMARK VINA RESULT:     -11.3      4.407      8.370
REMARK  6 active torsions:
REMARK  status: ('A' for Active; 'I' for Inactive)
REMARK    1  A    between atoms: C_5  and  N_6 
REMARK       I    between atoms: N_6  and  C_7 
REMARK       I    between atoms: C_7  and  N_8 
REMARK    2  A    between atoms: N_8  and  C_9 
REMARK    3  A    between atoms: C_12  and  C_13 
REMARK    4  A    between atoms: C_13  and  C_14 
REMARK       I    between atoms: C_14  and  N_15 
REMARK    5  A    between atoms: N_18  and  C_19 
REMARK    6  A    between atoms: C_21  and  C_22 
ROOT
HETATM    1  C   UNL     1       4.077  29.589  56.662  1.00  0.00     0.162 C 
ENDROOT
BRANCH   1   2
HETATM    2  C   UNL     1       3.733  30.401  55.460  1.00  0.00     0.052 A 
HETATM    3  C   UNL     1       2.825  31.446  55.430  1.00  0.00     0.081 A 
HETATM    4  S   UNL     1       2.921  32.265  53.930  1.00  0.00    -0.062 SA
HETATM    5  C   UNL     1       4.104  31.151  53.424  1.00  0.00     0.174 A 
HETATM    6  N   UNL     1       4.426  30.198  54.267  1.00  0.00    -0.228 NA
BRANCH   5   7
HETATM    7  N   UNL     1       4.607  31.394  52.182  1.00  0.00    -0.287 N 
HETATM    8  C   UNL     1       4.638  30.535  51.122  1.00  0.00     0.326 C 
HETATM    9  N   UNL     1       3.914  29.379  51.247  1.00  0.00    -0.309 N 
HETATM   10  O   UNL     1       5.252  30.897  50.120  1.00  0.00    -0.247 OA
HETATM   11  H   UNL     1       3.414  29.283  52.124  1.00  0.00     0.170 HD
HETATM   12  H   UNL     1       5.034  32.293  52.017  1.00  0.00     0.172 HD
BRANCH   9  13
HETATM   13  C   UNL     1       3.673  28.405  50.258  1.00  0.00     0.036 A 
HETATM   14  C   UNL     1       2.592  28.433  49.377  1.00  0.00     0.030 A 
HETATM   15  C   UNL     1       2.410  27.407  48.443  1.00  0.00     0.009 A 
HETATM   16  C   UNL     1       3.308  26.337  48.372  1.00  0.00    -0.062 A 
HETATM   17  C   UNL     1       3.068  25.211  47.410  1.00  0.00     0.048 C 
HETATM   18  C   UNL     1       4.390  26.306  49.255  1.00  0.00     0.009 A 
HETATM   19  C   UNL     1       4.573  27.339  50.181  1.00  0.00     0.030 A 
ENDBRANCH   9  13
ENDBRANCH   5   7
ENDBRANCH   1   2
BRANCH   1  20
HETATM   20  C   UNL     1       5.555  29.245  56.749  1.00  0.00     0.225 C 
HETATM   21  N   UNL     1       5.971  27.976  56.350  1.00  0.00    -0.349 N 
HETATM   22  C   UNL     1       7.370  27.853  55.909  1.00  0.00     0.145 C 
HETATM   23  C   UNL     1       5.046  26.962  55.827  1.00  0.00     0.145 C 
HETATM   24  C   UNL     1       7.907  26.409  55.839  1.00  0.00     0.143 C 
HETATM   25  N   UNL     1       6.939  25.531  55.147  1.00  0.00    -0.378 N 
HETATM   26  C   UNL     1       5.628  25.540  55.829  1.00  0.00     0.143 C 
HETATM   27  O   UNL     1       6.360  30.105  57.118  1.00  0.00    -0.273 OA
BRANCH  25  28
HETATM   28  C   UNL     1       7.349  24.264  54.713  1.00  0.00     0.030 A 
HETATM   29  C   UNL     1       7.590  23.256  55.665  1.00  0.00     0.045 A 
HETATM   30  C   UNL     1       8.010  21.963  55.306  1.00  0.00     0.050 A 
HETATM   31  C   UNL     1       8.165  21.659  53.950  1.00  0.00     0.016 A 
HETATM   32  C   UNL     1       7.906  22.630  52.985  1.00  0.00     0.003 A 
HETATM   33  C   UNL     1       7.501  23.915  53.366  1.00  0.00     0.029 A 
BRANCH  30  34
HETATM   34  C   UNL     1       8.274  20.917  56.357  1.00  0.00     0.417 C 
HETATM   35  F   UNL     1       8.297  21.410  57.627  1.00  0.00    -0.166 F 
HETATM   36  F   UNL     1       7.337  19.929  56.359  1.00  0.00    -0.166 F 
HETATM   37  F   UNL     1       9.474  20.294  56.182  1.00  0.00    -0.166 F 
ENDBRANCH  30  34
ENDBRANCH  25  28
ENDBRANCH   1  20
TORSDOF 6
ENDMDL
MODEL 4
REMARK VINA RESULT:     -11.3      1.849      2.360
REMARK  6 active torsions:
REMARK  status: ('A' for Active; 'I' for Inactive)
REMARK    1  A    between atoms: C_5  and  N_6 
REMARK       I    between atoms: N_6  and  C_7 
REMARK       I    between atoms: C_7  and  N_8 
REMARK    2  A    between atoms: N_8  and  C_9 
REMARK    3  A    between atoms: C_12  and  C_13 
REMARK    4  A    between atoms: C_13  and  C_14 
REMARK       I    between atoms: C_14  and  N_15 
REMARK    5  A    between atoms: N_18  and  C_19 
REMARK    6  A    between atoms: C_21  and  C_22 
ROOT
HETATM    1  C   UNL     1       6.525  30.238  56.456  1.00  0.00     0.162 C 
ENDROOT
BRANCH   1   2
HETATM    2  C   UNL     1       7.627  30.215  57.460  1.00  0.00     0.052 A 
HETATM    3  C   UNL     1       8.970  30.409  57.183  1.00  0.00     0.081 A 
HETATM    4  S   UNL     1       9.855  30.558  58.640  1.00  0.00    -0.062 SA
HETATM    5  C   UNL     1       8.416  30.302  59.513  1.00  0.00     0.174 A 
HETATM    6  N   UNL     1       7.325  30.091  58.815  1.00  0.00    -0.228 NA
BRANCH   5   7
HETATM    7  N   UNL     1       8.562  30.369  60.865  1.00  0.00    -0.287 N 
HETATM    8  C   UNL     1       7.956  31.245  61.717  1.00  0.00     0.326 C 
HETATM    9  N   UNL     1       6.946  32.009  61.197  1.00  0.00    -0.309 N 
HETATM   10  O   UNL     1       8.316  31.229  62.893  1.00  0.00    -0.247 OA
HETATM   11  H   UNL     1       6.742  31.836  60.218  1.00  0.00     0.170 HD
HETATM   12  H   UNL     1       9.207  29.726  61.300  1.00  0.00     0.172 HD
BRANCH   9  13
HETATM   13  C   UNL     1       6.081  32.879  61.890  1.00  0.00     0.036 A 
HETATM   14  C   UNL     1       4.754  32.583  62.198  1.00  0.00     0.030 A 
HETATM   15  C   UNL     1       3.953  33.518  62.864  1.00  0.00     0.009 A 
HETATM   16  C   UNL     1       4.469  34.764  63.237  1.00  0.00    -0.062 A 
HETATM   17  C   UNL     1       3.584  35.783  63.893  1.00  0.00     0.048 C 
HETATM   18  C   UNL     1       5.797  35.063  62.926  1.00  0.00     0.009 A 
HETATM   19  C   UNL     1       6.596  34.122  62.268  1.00  0.00     0.030 A 
ENDBRANCH   9  13
ENDBRANCH   5   7
ENDBRANCH   1   2
BRANCH   1  20
HETATM   20  C   UNL     1       5.596  29.040  56.561  1.00  0.00     0.225 C 
HETATM   21  N   UNL     1       5.986  27.838  55.973  1.00  0.00    -0.349 N 
HETATM   22  C   UNL     1       5.401  26.611  56.540  1.00  0.00     0.145 C 
HETATM   23  C   UNL     1       7.266  27.670  55.275  1.00  0.00     0.145 C 
HETATM   24  C   UNL     1       5.539  25.355  55.656  1.00  0.00     0.143 C 
HETATM   25  N   UNL     1       6.923  25.228  55.150  1.00  0.00    -0.378 N 
HETATM   26  C   UNL     1       7.320  26.424  54.378  1.00  0.00     0.143 C 
HETATM   27  O   UNL     1       4.546  29.138  57.203  1.00  0.00    -0.273 OA
BRANCH  25  28
HETATM   28  C   UNL     1       7.340  24.018  54.584  1.00  0.00     0.030 A 
HETATM   29  C   UNL     1       7.504  22.892  55.411  1.00  0.00     0.045 A 
HETATM   30  C   UNL     1       7.926  21.645  54.916  1.00  0.00     0.050 A 
HETATM   31  C   UNL     1       8.163  21.512  53.545  1.00  0.00     0.016 A 
HETATM   32  C   UNL     1       7.982  22.603  52.698  1.00  0.00     0.003 A 
HETATM   33  C   UNL     1       7.573  23.838  53.215  1.00  0.00     0.029 A 
BRANCH  30  34
HETATM   34  C   UNL     1       8.106  20.469  55.840  1.00  0.00     0.417 C 
HETATM   35  F   UNL     1       8.925  20.723  56.899  1.00  0.00    -0.166 F 
HETATM   36  F   UNL     1       6.929  20.038  56.374  1.00  0.00    -0.166 F 
HETATM   37  F   UNL     1       8.646  19.389  55.208  1.00  0.00    -0.166 F 
ENDBRANCH  30  34
ENDBRANCH  25  28
ENDBRANCH   1  20
TORSDOF 6
ENDMDL
MODEL 5
REMARK VINA RESULT:     -11.1      1.495      1.926
REMARK  6 active torsions:
REMARK  status: ('A' for Active; 'I' for Inactive)
REMARK    1  A    between atoms: C_5  and  N_6 
REMARK       I    between atoms: N_6  and  C_7 
REMARK       I    between atoms: C_7  and  N_8 
REMARK    2  A    between atoms: N_8  and  C_9 
REMARK    3  A    between atoms: C_12  and  C_13 
REMARK    4  A    between atoms: C_13  and  C_14 
REMARK       I    between atoms: C_14  and  N_15 
REMARK    5  A    between atoms: N_18  and  C_19 
REMARK    6  A    between atoms: C_21  and  C_22 
ROOT
HETATM    1  C   UNL     1       4.658  29.145  57.282  1.00  0.00     0.162 C 
ENDROOT
BRANCH   1   2
HETATM    2  C   UNL     1       5.317  30.259  58.020  1.00  0.00     0.052 A 
HETATM    3  C   UNL     1       6.683  30.412  58.194  1.00  0.00     0.081 A 
HETATM    4  S   UNL     1       7.022  31.946  58.872  1.00  0.00    -0.062 SA
HETATM    5  C   UNL     1       5.350  32.263  58.933  1.00  0.00     0.174 A 
HETATM    6  N   UNL     1       4.548  31.314  58.511  1.00  0.00    -0.228 NA
BRANCH   5   7
HETATM    7  N   UNL     1       5.032  33.500  59.403  1.00  0.00    -0.287 N 
HETATM    8  C   UNL     1       5.004  33.906  60.706  1.00  0.00     0.326 C 
HETATM    9  N   UNL     1       5.541  33.047  61.628  1.00  0.00    -0.309 N 
HETATM   10  O   UNL     1       4.566  35.031  60.937  1.00  0.00    -0.247 OA
HETATM   11  H   UNL     1       5.919  32.189  61.241  1.00  0.00     0.170 HD
HETATM   12  H   UNL     1       4.756  34.201  58.732  1.00  0.00     0.172 HD
BRANCH   9  13
HETATM   13  C   UNL     1       5.756  33.284  63.000  1.00  0.00     0.036 A 
HETATM   14  C   UNL     1       4.736  33.452  63.936  1.00  0.00     0.030 A 
HETATM   15  C   UNL     1       5.038  33.715  65.277  1.00  0.00     0.009 A 
HETATM   16  C   UNL     1       6.366  33.811  65.705  1.00  0.00    -0.062 A 
HETATM   17  C   UNL     1       6.676  34.156  67.132  1.00  0.00     0.048 C 
HETATM   18  C   UNL     1       7.389  33.647  64.769  1.00  0.00     0.009 A 
HETATM   19  C   UNL     1       7.083  33.375  63.431  1.00  0.00     0.030 A 
ENDBRANCH   9  13
ENDBRANCH   5   7
ENDBRANCH   1   2
BRANCH   1  20
HETATM   20  C   UNL     1       5.216  28.943  55.882  1.00  0.00     0.225 C 
HETATM   21  N   UNL     1       5.800  27.718  55.565  1.00  0.00    -0.349 N 
HETATM   22  C   UNL     1       5.807  27.345  54.142  1.00  0.00     0.145 C 
HETATM   23  C   UNL     1       5.881  26.604  56.517  1.00  0.00     0.145 C 
HETATM   24  C   UNL     1       6.772  26.199  53.773  1.00  0.00     0.143 C 
HETATM   25  N   UNL     1       6.632  25.078  54.727  1.00  0.00    -0.378 N 
HETATM   26  C   UNL     1       6.893  25.521  56.113  1.00  0.00     0.143 C 
HETATM   27  O   UNL     1       5.096  29.841  55.043  1.00  0.00    -0.273 OA
BRANCH  25  28
HETATM   28  C   UNL     1       7.187  23.832  54.411  1.00  0.00     0.030 A 
HETATM   29  C   UNL     1       7.484  22.929  55.448  1.00  0.00     0.045 A 
HETATM   30  C   UNL     1       8.049  21.663  55.209  1.00  0.00     0.050 A 
HETATM   31  C   UNL     1       8.297  21.277  53.888  1.00  0.00     0.016 A 
HETATM   32  C   UNL     1       7.987  22.140  52.840  1.00  0.00     0.003 A 
HETATM   33  C   UNL     1       7.437  23.401  53.103  1.00  0.00     0.029 A 
BRANCH  30  34
HETATM   34  C   UNL     1       8.367  20.733  56.349  1.00  0.00     0.417 C 
HETATM   35  F   UNL     1       7.489  19.699  56.475  1.00  0.00    -0.166 F 
HETATM   36  F   UNL     1       9.599  20.162  56.231  1.00  0.00    -0.166 F 
HETATM   37  F   UNL     1       8.365  21.367  57.555  1.00  0.00    -0.166 F 
ENDBRANCH  30  34
ENDBRANCH  25  28
ENDBRANCH   1  20
TORSDOF 6
ENDMDL
MODEL 6
REMARK VINA RESULT:     -10.8      2.429      3.280
REMARK  6 active torsions:
REMARK  status: ('A' for Active; 'I' for Inactive)
REMARK    1  A    between atoms: C_5  and  N_6 
REMARK       I    between atoms: N_6  and  C_7 
REMARK       I    between atoms: C_7  and  N_8 
REMARK    2  A    between atoms: N_8  and  C_9 
REMARK    3  A    between atoms: C_12  and  C_13 
REMARK    4  A    between atoms: C_13  and  C_14 
REMARK       I    between atoms: C_14  and  N_15 
REMARK    5  A    between atoms: N_18  and  C_19 
REMARK    6  A    between atoms: C_21  and  C_22 
ROOT
HETATM    1  C   UNL     1       6.507  29.655  55.618  1.00  0.00     0.162 C 
ENDROOT
BRANCH   1   2
HETATM    2  C   UNL     1       5.255  30.426  55.862  1.00  0.00     0.052 A 
HETATM    3  C   UNL     1       3.983  30.034  55.478  1.00  0.00     0.081 A 
HETATM    4  S   UNL     1       2.813  31.072  56.173  1.00  0.00    -0.062 SA
HETATM    5  C   UNL     1       4.070  31.980  56.875  1.00  0.00     0.174 A 
HETATM    6  N   UNL     1       5.298  31.595  56.621  1.00  0.00    -0.228 NA
BRANCH   5   7
HETATM    7  N   UNL     1       3.646  33.013  57.654  1.00  0.00    -0.287 N 
HETATM    8  C   UNL     1       3.937  33.226  58.970  1.00  0.00     0.326 C 
HETATM    9  N   UNL     1       4.913  32.438  59.519  1.00  0.00    -0.309 N 
HETATM   10  O   UNL     1       3.353  34.150  59.535  1.00  0.00    -0.247 OA
HETATM   11  H   UNL     1       5.333  31.772  58.878  1.00  0.00     0.170 HD
HETATM   12  H   UNL     1       3.024  33.691  57.239  1.00  0.00     0.172 HD
BRANCH   9  13
HETATM   13  C   UNL     1       5.488  32.548  60.801  1.00  0.00     0.036 A 
HETATM   14  C   UNL     1       4.766  32.479  61.992  1.00  0.00     0.030 A 
HETATM   15  C   UNL     1       5.412  32.629  63.224  1.00  0.00     0.009 A 
HETATM   16  C   UNL     1       6.792  32.849  63.286  1.00  0.00    -0.062 A 
HETATM   17  C   UNL     1       7.464  33.071  64.609  1.00  0.00     0.048 C 
HETATM   18  C   UNL     1       7.516  32.922  62.094  1.00  0.00     0.009 A 
HETATM   19  C   UNL     1       6.868  32.762  60.864  1.00  0.00     0.030 A 
ENDBRANCH   9  13
ENDBRANCH   5   7
ENDBRANCH   1   2
BRANCH   1  20
HETATM   20  C   UNL     1       6.941  28.825  56.814  1.00  0.00     0.225 C 
HETATM   21  N   UNL     1       7.100  27.450  56.651  1.00  0.00    -0.349 N 
HETATM   22  C   UNL     1       8.021  26.782  57.585  1.00  0.00     0.145 C 
HETATM   23  C   UNL     1       6.889  26.770  55.368  1.00  0.00     0.145 C 
HETATM   24  C   UNL     1       7.895  25.246  57.638  1.00  0.00     0.143 C 
HETATM   25  N   UNL     1       7.852  24.683  56.271  1.00  0.00    -0.378 N 
HETATM   26  C   UNL     1       6.726  25.248  55.497  1.00  0.00     0.143 C 
HETATM   27  O   UNL     1       7.193  29.385  57.886  1.00  0.00    -0.273 OA
BRANCH  25  28
HETATM   28  C   UNL     1       8.039  23.308  56.087  1.00  0.00     0.030 A 
HETATM   29  C   UNL     1       8.040  22.783  54.781  1.00  0.00     0.045 A 
HETATM   30  C   UNL     1       8.215  21.413  54.518  1.00  0.00     0.050 A 
HETATM   31  C   UNL     1       8.427  20.544  55.593  1.00  0.00     0.016 A 
HETATM   32  C   UNL     1       8.459  21.040  56.894  1.00  0.00     0.003 A 
HETATM   33  C   UNL     1       8.269  22.407  57.133  1.00  0.00     0.029 A 
BRANCH  30  34
HETATM   34  C   UNL     1       8.192  20.889  53.106  1.00  0.00     0.417 C 
HETATM   35  F   UNL     1       7.128  20.082  52.838  1.00  0.00    -0.166 F 
HETATM   36  F   UNL     1       8.146  21.886  52.179  1.00  0.00    -0.166 F 
HETATM   37  F   UNL     1       9.298  20.151  52.807  1.00  0.00    -0.166 F 
ENDBRANCH  30  34
ENDBRANCH  25  28
ENDBRANCH   1  20
TORSDOF 6
ENDMDL
MODEL 7
REMARK VINA RESULT:     -10.6      2.031      2.921
REMARK  6 active torsions:
REMARK  status: ('A' for Active; 'I' for Inactive)
REMARK    1  A    between atoms: C_5  and  N_6 
REMARK       I    between atoms: N_6  and  C_7 
REMARK       I    between atoms: C_7  and  N_8 
REMARK    2  A    between atoms: N_8  and  C_9 
REMARK    3  A    between atoms: C_12  and  C_13 
REMARK    4  A    between atoms: C_13  and  C_14 
REMARK       I    between atoms: C_14  and  N_15 
REMARK    5  A    between atoms: N_18  and  C_19 
REMARK    6  A    between atoms: C_21  and  C_22 
ROOT
HETATM    1  C   UNL     1       4.613  29.916  54.144  1.00  0.00     0.162 C 
ENDROOT
BRANCH   1   2
HETATM    2  C   UNL     1       3.947  31.191  54.534  1.00  0.00     0.052 A 
HETATM    3  C   UNL     1       2.618  31.506  54.304  1.00  0.00     0.081 A 
HETATM    4  S   UNL     1       2.203  32.945  55.131  1.00  0.00    -0.062 SA
HETATM    5  C   UNL     1       3.811  33.067  55.677  1.00  0.00     0.174 A 
HETATM    6  N   UNL     1       4.648  32.138  55.281  1.00  0.00    -0.228 NA
BRANCH   5   7
HETATM    7  N   UNL     1       4.044  34.128  56.500  1.00  0.00    -0.287 N 
HETATM    8  C   UNL     1       4.543  34.092  57.769  1.00  0.00     0.326 C 
HETATM    9  N   UNL     1       5.051  32.894  58.197  1.00  0.00    -0.309 N 
HETATM   10  O   UNL     1       4.560  35.148  58.399  1.00  0.00    -0.247 OA
HETATM   11  H   UNL     1       5.011  32.146  57.511  1.00  0.00     0.170 HD
HETATM   12  H   UNL     1       3.801  35.046  56.162  1.00  0.00     0.172 HD
BRANCH   9  13
HETATM   13  C   UNL     1       5.739  32.631  59.397  1.00  0.00     0.036 A 
HETATM   14  C   UNL     1       5.213  32.861  60.668  1.00  0.00     0.030 A 
HETATM   15  C   UNL     1       5.978  32.600  61.811  1.00  0.00     0.009 A 
HETATM   16  C   UNL     1       7.280  32.102  61.702  1.00  0.00    -0.062 A 
HETATM   17  C   UNL     1       8.112  31.886  62.932  1.00  0.00     0.048 C 
HETATM   18  C   UNL     1       7.809  31.874  60.430  1.00  0.00     0.009 A 
HETATM   19  C   UNL     1       7.038  32.127  59.290  1.00  0.00     0.030 A 
ENDBRANCH   9  13
ENDBRANCH   5   7
ENDBRANCH   1   2
BRANCH   1  20
HETATM   20  C   UNL     1       4.515  28.840  55.213  1.00  0.00     0.225 C 
HETATM   21  N   UNL     1       5.062  27.585  54.950  1.00  0.00    -0.349 N 
HETATM   22  C   UNL     1       5.460  26.785  56.120  1.00  0.00     0.145 C 
HETATM   23  C   UNL     1       5.749  27.262  53.694  1.00  0.00     0.145 C 
HETATM   24  C   UNL     1       5.698  25.288  55.836  1.00  0.00     0.143 C 
HETATM   25  N   UNL     1       6.538  25.118  54.631  1.00  0.00    -0.378 N 
HETATM   26  C   UNL     1       5.913  25.754  53.452  1.00  0.00     0.143 C 
HETATM   27  O   UNL     1       4.004  29.109  56.305  1.00  0.00    -0.273 OA
BRANCH  25  28
HETATM   28  C   UNL     1       7.119  23.872  54.368  1.00  0.00     0.030 A 
HETATM   29  C   UNL     1       7.373  22.992  55.436  1.00  0.00     0.045 A 
HETATM   30  C   UNL     1       7.960  21.728  55.251  1.00  0.00     0.050 A 
HETATM   31  C   UNL     1       8.275  21.317  53.952  1.00  0.00     0.016 A 
HETATM   32  C   UNL     1       8.009  22.156  52.873  1.00  0.00     0.003 A 
HETATM   33  C   UNL     1       7.435  23.416  53.082  1.00  0.00     0.029 A 
BRANCH  30  34
HETATM   34  C   UNL     1       8.231  20.824  56.424  1.00  0.00     0.417 C 
HETATM   35  F   UNL     1       8.324  21.482  57.614  1.00  0.00    -0.166 F 
HETATM   36  F   UNL     1       7.263  19.882  56.594  1.00  0.00    -0.166 F 
HETATM   37  F   UNL     1       9.401  20.136  56.293  1.00  0.00    -0.166 F 
ENDBRANCH  30  34
ENDBRANCH  25  28
ENDBRANCH   1  20
TORSDOF 6
ENDMDL
MODEL 8
REMARK VINA RESULT:     -10.6      2.409      3.222
REMARK  6 active torsions:
REMARK  status: ('A' for Active; 'I' for Inactive)
REMARK    1  A    between atoms: C_5  and  N_6 
REMARK       I    between atoms: N_6  and  C_7 
REMARK       I    between atoms: C_7  and  N_8 
REMARK    2  A    between atoms: N_8  and  C_9 
REMARK    3  A    between atoms: C_12  and  C_13 
REMARK    4  A    between atoms: C_13  and  C_14 
REMARK       I    between atoms: C_14  and  N_15 
REMARK    5  A    between atoms: N_18  and  C_19 
REMARK    6  A    between atoms: C_21  and  C_22 
ROOT
HETATM    1  C   UNL     1       7.351  30.406  56.961  1.00  0.00     0.162 C 
ENDROOT
BRANCH   1   2
HETATM    2  C   UNL     1       5.982  30.911  57.264  1.00  0.00     0.052 A 
HETATM    3  C   UNL     1       4.957  31.056  56.344  1.00  0.00     0.081 A 
HETATM    4  S   UNL     1       3.490  31.416  57.148  1.00  0.00    -0.062 SA
HETATM    5  C   UNL     1       4.328  31.407  58.630  1.00  0.00     0.174 A 
HETATM    6  N   UNL     1       5.620  31.179  58.584  1.00  0.00    -0.228 NA
BRANCH   5   7
HETATM    7  N   UNL     1       3.540  31.619  59.721  1.00  0.00    -0.287 N 
HETATM    8  C   UNL     1       3.701  32.576  60.680  1.00  0.00     0.326 C 
HETATM    9  N   UNL     1       4.628  33.552  60.426  1.00  0.00    -0.309 N 
HETATM   10  O   UNL     1       2.957  32.525  61.657  1.00  0.00    -0.247 OA
HETATM   11  H   UNL     1       5.101  33.466  59.532  1.00  0.00     0.170 HD
HETATM   12  H   UNL     1       2.763  30.993  59.867  1.00  0.00     0.172 HD
BRANCH   9  13
HETATM   13  C   UNL     1       4.884  34.712  61.182  1.00  0.00     0.036 A 
HETATM   14  C   UNL     1       4.362  35.971  60.885  1.00  0.00     0.030 A 
HETATM   15  C   UNL     1       4.692  37.081  61.672  1.00  0.00     0.009 A 
HETATM   16  C   UNL     1       5.547  36.949  62.771  1.00  0.00    -0.062 A 
HETATM   17  C   UNL     1       5.943  38.156  63.569  1.00  0.00     0.048 C 
HETATM   18  C   UNL     1       6.073  35.689  63.068  1.00  0.00     0.009 A 
HETATM   19  C   UNL     1       5.733  34.581  62.284  1.00  0.00     0.030 A 
ENDBRANCH   9  13
ENDBRANCH   5   7
ENDBRANCH   1   2
BRANCH   1  20
HETATM   20  C   UNL     1       7.689  29.117  57.691  1.00  0.00     0.225 C 
HETATM   21  N   UNL     1       7.633  27.916  56.988  1.00  0.00    -0.349 N 
HETATM   22  C   UNL     1       8.469  26.817  57.499  1.00  0.00     0.145 C 
HETATM   23  C   UNL     1       7.284  27.841  55.564  1.00  0.00     0.145 C 
HETATM   24  C   UNL     1       8.113  25.419  56.954  1.00  0.00     0.143 C 
HETATM   25  N   UNL     1       7.945  25.464  55.486  1.00  0.00    -0.378 N 
HETATM   26  C   UNL     1       6.896  26.430  55.098  1.00  0.00     0.143 C 
HETATM   27  O   UNL     1       8.054  29.163  58.870  1.00  0.00    -0.273 OA
BRANCH  25  28
HETATM   28  C   UNL     1       7.916  24.267  54.760  1.00  0.00     0.030 A 
HETATM   29  C   UNL     1       8.071  23.045  55.442  1.00  0.00     0.045 A 
HETATM   30  C   UNL     1       8.060  21.805  54.781  1.00  0.00     0.050 A 
HETATM   31  C   UNL     1       7.858  21.782  53.397  1.00  0.00     0.016 A 
HETATM   32  C   UNL     1       7.674  22.974  52.701  1.00  0.00     0.003 A 
HETATM   33  C   UNL     1       7.702  24.199  53.378  1.00  0.00     0.029 A 
BRANCH  30  34
HETATM   34  C   UNL     1       8.247  20.521  55.546  1.00  0.00     0.417 C 
HETATM   35  F   UNL     1       8.604  19.463  54.765  1.00  0.00    -0.166 F 
HETATM   36  F   UNL     1       9.210  20.618  56.504  1.00  0.00    -0.166 F 
HETATM   37  F   UNL     1       7.113  20.132  56.195  1.00  0.00    -0.166 F 
ENDBRANCH  30  34
ENDBRANCH  25  28
ENDBRANCH   1  20
TORSDOF 6
ENDMDL
MODEL 9
REMARK VINA RESULT:     -10.5      4.654     11.407
REMARK  6 active torsions:
REMARK  status: ('A' for Active; 'I' for Inactive)
REMARK    1  A    between atoms: C_5  and  N_6 
REMARK       I    between atoms: N_6  and  C_7 
REMARK       I    between atoms: C_7  and  N_8 
REMARK    2  A    between atoms: N_8  and  C_9 
REMARK    3  A    between atoms: C_12  and  C_13 
REMARK    4  A    between atoms: C_13  and  C_14 
REMARK       I    between atoms: C_14  and  N_15 
REMARK    5  A    between atoms: N_18  and  C_19 
REMARK    6  A    between atoms: C_21  and  C_22 
ROOT
HETATM    1  C   UNL     1       5.305  29.903  56.048  1.00  0.00     0.162 C 
ENDROOT
BRANCH   1   2
HETATM    2  C   UNL     1       4.769  29.383  54.757  1.00  0.00     0.052 A 
HETATM    3  C   UNL     1       4.573  30.131  53.609  1.00  0.00     0.081 A 
HETATM    4  S   UNL     1       4.191  29.104  52.294  1.00  0.00    -0.062 SA
HETATM    5  C   UNL     1       4.259  27.769  53.349  1.00  0.00     0.174 A 
HETATM    6  N   UNL     1       4.522  28.018  54.610  1.00  0.00    -0.228 NA
BRANCH   5   7
HETATM    7  N   UNL     1       4.051  26.567  52.744  1.00  0.00    -0.287 N 
HETATM    8  C   UNL     1       4.815  25.442  52.860  1.00  0.00     0.326 C 
HETATM    9  N   UNL     1       5.777  25.451  53.834  1.00  0.00    -0.309 N 
HETATM   10  O   UNL     1       4.533  24.492  52.132  1.00  0.00    -0.247 OA
HETATM   11  H   UNL     1       5.818  26.303  54.384  1.00  0.00     0.170 HD
HETATM   12  H   UNL     1       3.265  26.488  52.116  1.00  0.00     0.172 HD
BRANCH   9  13
HETATM   13  C   UNL     1       6.595  24.379  54.244  1.00  0.00     0.036 A 
HETATM   14  C   UNL     1       6.870  24.068  55.575  1.00  0.00     0.030 A 
HETATM   15  C   UNL     1       7.720  23.003  55.894  1.00  0.00     0.009 A 
HETATM   16  C   UNL     1       8.307  22.230  54.887  1.00  0.00    -0.062 A 
HETATM   17  C   UNL     1       9.266  21.131  55.240  1.00  0.00     0.048 C 
HETATM   18  C   UNL     1       8.035  22.542  53.554  1.00  0.00     0.009 A 
HETATM   19  C   UNL     1       7.178  23.602  53.239  1.00  0.00     0.030 A 
ENDBRANCH   9  13
ENDBRANCH   5   7
ENDBRANCH   1   2
BRANCH   1  20
HETATM   20  C   UNL     1       4.221  30.184  57.075  1.00  0.00     0.225 C 
HETATM   21  N   UNL     1       4.531  30.988  58.170  1.00  0.00    -0.349 N 
HETATM   22  C   UNL     1       3.405  31.692  58.806  1.00  0.00     0.145 C 
HETATM   23  C   UNL     1       5.853  31.595  58.365  1.00  0.00     0.145 C 
HETATM   24  C   UNL     1       3.698  32.255  60.212  1.00  0.00     0.143 C 
HETATM   25  N   UNL     1       4.990  32.976  60.220  1.00  0.00    -0.378 N 
HETATM   26  C   UNL     1       6.097  32.093  59.798  1.00  0.00     0.143 C 
HETATM   27  O   UNL     1       3.081  29.743  56.895  1.00  0.00    -0.273 OA
BRANCH  25  28
HETATM   28  C   UNL     1       5.304  33.811  61.299  1.00  0.00     0.030 A 
HETATM   29  C   UNL     1       6.117  33.318  62.336  1.00  0.00     0.045 A 
HETATM   30  C   UNL     1       6.469  34.094  63.454  1.00  0.00     0.050 A 
HETATM   31  C   UNL     1       6.019  35.416  63.524  1.00  0.00     0.016 A 
HETATM   32  C   UNL     1       5.235  35.939  62.498  1.00  0.00     0.003 A 
HETATM   33  C   UNL     1       4.886  35.143  61.400  1.00  0.00     0.029 A 
BRANCH  30  34
HETATM   34  C   UNL     1       7.329  33.522  64.551  1.00  0.00     0.417 C 
HETATM   35  F   UNL     1       6.627  33.140  65.655  1.00  0.00    -0.166 F 
HETATM   36  F   UNL     1       8.023  32.421  64.151  1.00  0.00    -0.166 F 
HETATM   37  F   UNL     1       8.262  34.410  64.998  1.00  0.00    -0.166 F 
ENDBRANCH  30  34
ENDBRANCH  25  28
ENDBRANCH   1  20
TORSDOF 6
ENDMDL
MODEL 10
REMARK VINA RESULT:     -10.4      2.164      2.657
REMARK  6 active torsions:
REMARK  status: ('A' for Active; 'I' for Inactive)
REMARK    1  A    between atoms: C_5  and  N_6 
REMARK       I    between atoms: N_6  and  C_7 
REMARK       I    between atoms: C_7  and  N_8 
REMARK    2  A    between atoms: N_8  and  C_9 
REMARK    3  A    between atoms: C_12  and  C_13 
REMARK    4  A    between atoms: C_13  and  C_14 
REMARK       I    between atoms: C_14  and  N_15 
REMARK    5  A    between atoms: N_18  and  C_19 
REMARK    6  A    between atoms: C_21  and  C_22 
ROOT
HETATM    1  C   UNL     1       4.688  29.681  57.164  1.00  0.00     0.162 C 
ENDROOT
BRANCH   1   2
HETATM    2  C   UNL     1       4.788  31.118  56.784  1.00  0.00     0.052 A 
HETATM    3  C   UNL     1       4.914  31.601  55.492  1.00  0.00     0.081 A 
HETATM    4  S   UNL     1       4.738  33.303  55.479  1.00  0.00    -0.062 SA
HETATM    5  C   UNL     1       4.565  33.274  57.172  1.00  0.00     0.174 A 
HETATM    6  N   UNL     1       4.649  32.104  57.761  1.00  0.00    -0.228 NA
BRANCH   5   7
HETATM    7  N   UNL     1       4.333  34.494  57.732  1.00  0.00    -0.287 N 
HETATM    8  C   UNL     1       4.209  34.781  59.060  1.00  0.00     0.326 C 
HETATM    9  N   UNL     1       4.549  33.786  59.938  1.00  0.00    -0.309 N 
HETATM   10  O   UNL     1       3.872  35.925  59.361  1.00  0.00    -0.247 OA
HETATM   11  H   UNL     1       4.871  32.927  59.504  1.00  0.00     0.170 HD
HETATM   12  H   UNL     1       4.208  35.279  57.111  1.00  0.00     0.172 HD
BRANCH   9  13
HETATM   13  C   UNL     1       4.639  33.872  61.341  1.00  0.00     0.036 A 
HETATM   14  C   UNL     1       5.833  34.048  62.040  1.00  0.00     0.030 A 
HETATM   15  C   UNL     1       5.838  34.092  63.439  1.00  0.00     0.009 A 
HETATM   16  C   UNL     1       4.648  33.965  64.162  1.00  0.00    -0.062 A 
HETATM   17  C   UNL     1       4.673  33.951  65.663  1.00  0.00     0.048 C 
HETATM   18  C   UNL     1       3.451  33.786  63.464  1.00  0.00     0.009 A 
HETATM   19  C   UNL     1       3.450  33.752  62.066  1.00  0.00     0.030 A 
ENDBRANCH   9  13
ENDBRANCH   5   7
ENDBRANCH   1   2
BRANCH   1  20
HETATM   20  C   UNL     1       6.034  29.050  57.478  1.00  0.00     0.225 C 
HETATM   21  N   UNL     1       6.317  27.787  56.961  1.00  0.00    -0.349 N 
HETATM   22  C   UNL     1       7.741  27.454  56.787  1.00  0.00     0.145 C 
HETATM   23  C   UNL     1       5.380  27.047  56.107  1.00  0.00     0.145 C 
HETATM   24  C   UNL     1       8.039  25.955  56.583  1.00  0.00     0.143 C 
HETATM   25  N   UNL     1       7.120  25.377  55.579  1.00  0.00    -0.378 N 
HETATM   26  C   UNL     1       5.710  25.551  55.984  1.00  0.00     0.143 C 
HETATM   27  O   UNL     1       6.866  29.684  58.135  1.00  0.00    -0.273 OA
BRANCH  25  28
HETATM   28  C   UNL     1       7.406  24.122  55.028  1.00  0.00     0.030 A 
HETATM   29  C   UNL     1       7.779  23.065  55.879  1.00  0.00     0.045 A 
HETATM   30  C   UNL     1       8.087  21.780  55.398  1.00  0.00     0.050 A 
HETATM   31  C   UNL     1       7.990  21.535  54.026  1.00  0.00     0.016 A 
HETATM   32  C   UNL     1       7.595  22.555  53.163  1.00  0.00     0.003 A 
HETATM   33  C   UNL     1       7.306  23.831  53.662  1.00  0.00     0.029 A 
BRANCH  30  34
HETATM   34  C   UNL     1       8.499  20.682  56.343  1.00  0.00     0.417 C 
HETATM   35  F   UNL     1       7.790  19.528  56.185  1.00  0.00    -0.166 F 
HETATM   36  F   UNL     1       9.809  20.336  56.203  1.00  0.00    -0.166 F 
HETATM   37  F   UNL     1       8.343  21.033  57.650  1.00  0.00    -0.166 F 
ENDBRANCH  30  34
ENDBRANCH  25  28
ENDBRANCH   1  20
TORSDOF 6
ENDMDL
