MODEL 1
REMARK VINA RESULT:      -8.6      0.000      0.000
REMARK  2 active torsions:
REMARK  status: ('A' for Active; 'I' for Inactive)
REMARK    1  A    between atoms: C_2  and  C_3 
REMARK    2  A    between atoms: C_4  and  N_5 
ROOT
HETATM    1  N   UNL     1       6.741  25.727  56.064  1.00  0.00    -0.321 N 
HETATM    2  C   UNL     1       5.465  26.084  56.576  1.00  0.00     0.141 C 
HETATM    3  N   UNL     1       4.582  25.202  56.944  1.00  0.00    -0.380 N 
HETATM    4  H   UNL     1       3.694  25.508  57.313  1.00  0.00     0.158 HD
HETATM    5  H   UNL     1       4.813  24.221  56.877  1.00  0.00     0.158 HD
HETATM    6  S   UNL     1       5.229  27.779  56.685  1.00  0.00    -0.086 SA
HETATM    7  C   UNL     1       6.777  28.111  55.734  1.00  0.00     0.093 C 
HETATM    8  C   UNL     1       7.675  26.872  55.975  1.00  0.00     0.121 C 
HETATM    9  C   UNL     1       7.528  29.354  56.156  1.00  0.00     0.158 C 
HETATM   10  S   UNL     1       8.672  28.842  57.414  1.00  0.00     0.147 S 
HETATM   11  O   UNL     1       8.187  29.291  58.700  1.00  0.00    -0.228 OA
HETATM   12  O   UNL     1      10.012  29.121  56.946  1.00  0.00    -0.228 OA
HETATM   13  C   UNL     1       8.407  27.092  57.298  1.00  0.00     0.167 C 
ENDROOT
BRANCH   1  14
HETATM   14  C   UNL     1       7.175  24.480  55.582  1.00  0.00     0.043 A 
HETATM   15  C   UNL     1       7.071  24.111  54.216  1.00  0.00    -0.028 A 
HETATM   16  C   UNL     1       7.488  22.817  53.828  1.00  0.00     0.010 A 
HETATM   17  C   UNL     1       8.012  21.912  54.748  1.00  0.00     0.001 A 
HETATM   18  C   UNL     1       8.131  22.279  56.077  1.00  0.00     0.002 A 
HETATM   19  C   UNL     1       7.715  23.546  56.486  1.00  0.00     0.030 A 
BRANCH  15  20
HETATM   20  C   UNL     1       6.608  25.070  53.120  1.00  0.00     0.013 C 
HETATM   21  C   UNL     1       5.145  24.832  52.730  1.00  0.00     0.015 C 
HETATM   22  C   UNL     1       7.510  24.990  51.883  1.00  0.00     0.015 C 
ENDBRANCH  15  20
ENDBRANCH   1  14
TORSDOF 2
ENDMDL
MODEL 2
REMARK VINA RESULT:      -7.9      0.929      2.590
REMARK  2 active torsions:
REMARK  status: ('A' for Active; 'I' for Inactive)
REMARK    1  A    between atoms: C_2  and  C_3 
REMARK    2  A    between atoms: C_4  and  N_5 
ROOT
HETATM    1  N   UNL     1       6.715  26.506  55.480  1.00  0.00    -0.321 N 
HETATM    2  C   UNL     1       5.525  26.504  56.254  1.00  0.00     0.141 C 
HETATM    3  N   UNL     1       4.802  25.436  56.432  1.00  0.00    -0.380 N 
HETATM    4  H   UNL     1       3.970  25.486  57.002  1.00  0.00     0.158 HD
HETATM    5  H   UNL     1       5.101  24.567  56.014  1.00  0.00     0.158 HD
HETATM    6  S   UNL     1       5.165  28.031  56.947  1.00  0.00    -0.086 SA
HETATM    7  C   UNL     1       6.483  28.854  55.950  1.00  0.00     0.093 C 
HETATM    8  C   UNL     1       7.514  27.740  55.642  1.00  0.00     0.121 C 
HETATM    9  C   UNL     1       7.186  29.998  56.648  1.00  0.00     0.158 C 
HETATM   10  S   UNL     1       8.576  29.286  57.494  1.00  0.00     0.147 S 
HETATM   11  O   UNL     1       8.290  29.242  58.911  1.00  0.00    -0.228 OA
HETATM   12  O   UNL     1       9.782  29.881  56.960  1.00  0.00    -0.228 OA
HETATM   13  C   UNL     1       8.449  27.640  56.847  1.00  0.00     0.167 C 
ENDROOT
BRANCH   1  14
HETATM   14  C   UNL     1       7.163  25.543  54.558  1.00  0.00     0.043 A 
HETATM   15  C   UNL     1       7.773  24.327  54.960  1.00  0.00    -0.028 A 
HETATM   16  C   UNL     1       8.237  23.438  53.963  1.00  0.00     0.010 A 
HETATM   17  C   UNL     1       8.091  23.721  52.607  1.00  0.00     0.001 A 
HETATM   18  C   UNL     1       7.479  24.898  52.215  1.00  0.00     0.002 A 
HETATM   19  C   UNL     1       7.023  25.797  53.180  1.00  0.00     0.030 A 
BRANCH  15  20
HETATM   20  C   UNL     1       7.882  23.884  56.418  1.00  0.00     0.013 C 
HETATM   21  C   UNL     1       9.142  24.437  57.093  1.00  0.00     0.015 C 
HETATM   22  C   UNL     1       7.834  22.357  56.548  1.00  0.00     0.015 C 
ENDBRANCH  15  20
ENDBRANCH   1  14
TORSDOF 2
ENDMDL
MODEL 3
REMARK VINA RESULT:      -7.1      8.980     10.626
REMARK  2 active torsions:
REMARK  status: ('A' for Active; 'I' for Inactive)
REMARK    1  A    between atoms: C_2  and  C_3 
REMARK    2  A    between atoms: C_4  and  N_5 
ROOT
HETATM    1  N   UNL     1       4.913  33.077  61.599  1.00  0.00    -0.321 N 
HETATM    2  C   UNL     1       3.999  32.012  61.381  1.00  0.00     0.141 C 
HETATM    3  N   UNL     1       3.591  31.227  62.335  1.00  0.00    -0.380 N 
HETATM    4  H   UNL     1       2.930  30.492  62.129  1.00  0.00     0.158 HD
HETATM    5  H   UNL     1       3.926  31.384  63.275  1.00  0.00     0.158 HD
HETATM    6  S   UNL     1       3.473  31.894  59.752  1.00  0.00    -0.086 SA
HETATM    7  C   UNL     1       4.730  33.129  59.200  1.00  0.00     0.093 C 
HETATM    8  C   UNL     1       5.019  34.000  60.448  1.00  0.00     0.121 C 
HETATM    9  C   UNL     1       4.285  34.025  58.065  1.00  0.00     0.158 C 
HETATM   10  S   UNL     1       3.538  35.449  58.819  1.00  0.00     0.147 S 
HETATM   11  O   UNL     1       2.103  35.363  58.664  1.00  0.00    -0.228 OA
HETATM   12  O   UNL     1       4.296  36.617  58.425  1.00  0.00    -0.228 OA
HETATM   13  C   UNL     1       3.941  35.082  60.506  1.00  0.00     0.167 C 
ENDROOT
BRANCH   1  14
HETATM   14  C   UNL     1       5.750  33.300  62.707  1.00  0.00     0.043 A 
HETATM   15  C   UNL     1       7.005  32.657  62.858  1.00  0.00    -0.028 A 
HETATM   16  C   UNL     1       7.759  32.905  64.028  1.00  0.00     0.010 A 
HETATM   17  C   UNL     1       7.307  33.774  65.017  1.00  0.00     0.001 A 
HETATM   18  C   UNL     1       6.091  34.416  64.861  1.00  0.00     0.002 A 
HETATM   19  C   UNL     1       5.323  34.179  63.721  1.00  0.00     0.030 A 
BRANCH  15  20
HETATM   20  C   UNL     1       7.630  31.771  61.780  1.00  0.00     0.013 C 
HETATM   21  C   UNL     1       8.536  30.691  62.382  1.00  0.00     0.015 C 
HETATM   22  C   UNL     1       8.401  32.600  60.746  1.00  0.00     0.015 C 
ENDBRANCH  15  20
ENDBRANCH   1  14
TORSDOF 2
ENDMDL
MODEL 4
REMARK VINA RESULT:      -6.7     11.117     13.091
REMARK  2 active torsions:
REMARK  status: ('A' for Active; 'I' for Inactive)
REMARK    1  A    between atoms: C_2  and  C_3 
REMARK    2  A    between atoms: C_4  and  N_5 
ROOT
HETATM    1  N   UNL     1       3.676  35.097  63.355  1.00  0.00    -0.321 N 
HETATM    2  C   UNL     1       2.529  34.402  62.888  1.00  0.00     0.141 C 
HETATM    3  N   UNL     1       1.723  33.760  63.683  1.00  0.00    -0.380 N 
HETATM    4  H   UNL     1       0.914  33.291  63.302  1.00  0.00     0.158 HD
HETATM    5  H   UNL     1       1.909  33.762  64.675  1.00  0.00     0.158 HD
HETATM    6  S   UNL     1       2.305  34.526  61.192  1.00  0.00    -0.086 SA
HETATM    7  C   UNL     1       3.969  35.297  60.975  1.00  0.00     0.093 C 
HETATM    8  C   UNL     1       4.281  35.977  62.331  1.00  0.00     0.121 C 
HETATM    9  C   UNL     1       4.050  36.332  59.874  1.00  0.00     0.158 C 
HETATM   10  S   UNL     1       3.667  37.893  60.629  1.00  0.00     0.147 S 
HETATM   11  O   UNL     1       2.334  38.291  60.234  1.00  0.00    -0.228 OA
HETATM   12  O   UNL     1       4.815  38.761  60.479  1.00  0.00    -0.228 OA
HETATM   13  C   UNL     1       3.611  37.351  62.316  1.00  0.00     0.167 C 
ENDROOT
BRANCH   1  14
HETATM   14  C   UNL     1       4.319  34.991  64.601  1.00  0.00     0.043 A 
HETATM   15  C   UNL     1       5.442  34.152  64.812  1.00  0.00    -0.028 A 
HETATM   16  C   UNL     1       5.995  34.070  66.110  1.00  0.00     0.010 A 
HETATM   17  C   UNL     1       5.477  34.805  67.173  1.00  0.00     0.001 A 
HETATM   18  C   UNL     1       4.392  35.639  66.963  1.00  0.00     0.002 A 
HETATM   19  C   UNL     1       3.821  35.728  65.693  1.00  0.00     0.030 A 
BRANCH  15  20
HETATM   20  C   UNL     1       6.144  33.390  63.688  1.00  0.00     0.013 C 
HETATM   21  C   UNL     1       5.387  32.113  63.301  1.00  0.00     0.015 C 
HETATM   22  C   UNL     1       7.596  33.060  64.051  1.00  0.00     0.015 C 
ENDBRANCH  15  20
ENDBRANCH   1  14
TORSDOF 2
ENDMDL
MODEL 5
REMARK VINA RESULT:      -6.7      4.053      5.438
REMARK  2 active torsions:
REMARK  status: ('A' for Active; 'I' for Inactive)
REMARK    1  A    between atoms: C_2  and  C_3 
REMARK    2  A    between atoms: C_4  and  N_5 
ROOT
HETATM    1  N   UNL     1       6.473  26.542  53.191  1.00  0.00    -0.321 N 
HETATM    2  C   UNL     1       6.869  27.894  53.371  1.00  0.00     0.141 C 
HETATM    3  N   UNL     1       7.959  28.231  53.997  1.00  0.00    -0.380 N 
HETATM    4  H   UNL     1       8.201  29.207  54.088  1.00  0.00     0.158 HD
HETATM    5  H   UNL     1       8.559  27.505  54.361  1.00  0.00     0.158 HD
HETATM    6  S   UNL     1       5.787  29.018  52.658  1.00  0.00    -0.086 SA
HETATM    7  C   UNL     1       4.544  27.692  52.327  1.00  0.00     0.093 C 
HETATM    8  C   UNL     1       5.365  26.383  52.223  1.00  0.00     0.121 C 
HETATM    9  C   UNL     1       3.745  27.875  51.055  1.00  0.00     0.158 C 
HETATM   10  S   UNL     1       4.651  27.043  49.774  1.00  0.00     0.147 S 
HETATM   11  O   UNL     1       5.291  28.031  48.934  1.00  0.00    -0.228 OA
HETATM   12  O   UNL     1       3.813  25.991  49.240  1.00  0.00    -0.228 OA
HETATM   13  C   UNL     1       5.891  26.288  50.791  1.00  0.00     0.167 C 
ENDROOT
BRANCH   1  14
HETATM   14  C   UNL     1       6.942  25.395  53.855  1.00  0.00     0.043 A 
HETATM   15  C   UNL     1       6.737  25.178  55.242  1.00  0.00    -0.028 A 
HETATM   16  C   UNL     1       7.286  24.019  55.837  1.00  0.00     0.010 A 
HETATM   17  C   UNL     1       8.001  23.085  55.092  1.00  0.00     0.001 A 
HETATM   18  C   UNL     1       8.185  23.287  53.735  1.00  0.00     0.002 A 
HETATM   19  C   UNL     1       7.663  24.429  53.128  1.00  0.00     0.030 A 
BRANCH  15  20
HETATM   20  C   UNL     1       5.878  26.091  56.117  1.00  0.00     0.013 C 
HETATM   21  C   UNL     1       6.733  27.013  56.994  1.00  0.00     0.015 C 
HETATM   22  C   UNL     1       4.901  25.287  56.982  1.00  0.00     0.015 C 
ENDBRANCH  15  20
ENDBRANCH   1  14
TORSDOF 2
ENDMDL
MODEL 6
REMARK VINA RESULT:      -6.6      2.853      4.569
REMARK  2 active torsions:
REMARK  status: ('A' for Active; 'I' for Inactive)
REMARK    1  A    between atoms: C_2  and  C_3 
REMARK    2  A    between atoms: C_4  and  N_5 
ROOT
HETATM    1  N   UNL     1       6.008  28.196  55.021  1.00  0.00    -0.321 N 
HETATM    2  C   UNL     1       7.268  28.784  55.311  1.00  0.00     0.141 C 
HETATM    3  N   UNL     1       8.335  28.547  54.604  1.00  0.00    -0.380 N 
HETATM    4  H   UNL     1       9.204  29.000  54.846  1.00  0.00     0.158 HD
HETATM    5  H   UNL     1       8.267  27.929  53.808  1.00  0.00     0.158 HD
HETATM    6  S   UNL     1       7.225  29.851  56.654  1.00  0.00    -0.086 SA
HETATM    7  C   UNL     1       5.515  29.312  57.095  1.00  0.00     0.093 C 
HETATM    8  C   UNL     1       4.890  28.815  55.768  1.00  0.00     0.121 C 
HETATM    9  C   UNL     1       4.637  30.398  57.677  1.00  0.00     0.158 C 
HETATM   10  S   UNL     1       3.808  31.158  56.302  1.00  0.00     0.147 S 
HETATM   11  O   UNL     1       4.403  32.451  56.051  1.00  0.00    -0.228 OA
HETATM   12  O   UNL     1       2.383  30.976  56.479  1.00  0.00    -0.228 OA
HETATM   13  C   UNL     1       4.345  30.040  55.034  1.00  0.00     0.167 C 
ENDROOT
BRANCH   1  14
HETATM   14  C   UNL     1       5.724  27.092  54.198  1.00  0.00     0.043 A 
HETATM   15  C   UNL     1       5.909  25.753  54.627  1.00  0.00    -0.028 A 
HETATM   16  C   UNL     1       5.644  24.705  53.716  1.00  0.00     0.010 A 
HETATM   17  C   UNL     1       5.189  24.958  52.424  1.00  0.00     0.001 A 
HETATM   18  C   UNL     1       4.990  26.264  52.012  1.00  0.00     0.002 A 
HETATM   19  C   UNL     1       5.257  27.316  52.889  1.00  0.00     0.030 A 
BRANCH  15  20
HETATM   20  C   UNL     1       6.302  25.375  56.054  1.00  0.00     0.013 C 
HETATM   21  C   UNL     1       7.096  24.064  56.102  1.00  0.00     0.015 C 
HETATM   22  C   UNL     1       5.077  25.291  56.973  1.00  0.00     0.015 C 
ENDBRANCH  15  20
ENDBRANCH   1  14
TORSDOF 2
ENDMDL
MODEL 7
REMARK VINA RESULT:      -6.6      5.737      7.585
REMARK  2 active torsions:
REMARK  status: ('A' for Active; 'I' for Inactive)
REMARK    1  A    between atoms: C_2  and  C_3 
REMARK    2  A    between atoms: C_4  and  N_5 
ROOT
HETATM    1  N   UNL     1       4.254  28.492  50.770  1.00  0.00    -0.321 N 
HETATM    2  C   UNL     1       3.275  28.573  51.796  1.00  0.00     0.141 C 
HETATM    3  N   UNL     1       2.050  28.950  51.571  1.00  0.00    -0.380 N 
HETATM    4  H   UNL     1       1.388  28.980  52.333  1.00  0.00     0.158 HD
HETATM    5  H   UNL     1       1.775  29.184  50.627  1.00  0.00     0.158 HD
HETATM    6  S   UNL     1       3.863  28.097  53.335  1.00  0.00    -0.086 SA
HETATM    7  C   UNL     1       5.602  28.047  52.714  1.00  0.00     0.093 C 
HETATM    8  C   UNL     1       5.482  27.782  51.192  1.00  0.00     0.121 C 
HETATM    9  C   UNL     1       6.467  26.972  53.335  1.00  0.00     0.158 C 
HETATM   10  S   UNL     1       6.291  25.535  52.307  1.00  0.00     0.147 S 
HETATM   11  O   UNL     1       5.456  24.570  52.989  1.00  0.00    -0.228 OA
HETATM   12  O   UNL     1       7.593  25.199  51.774  1.00  0.00    -0.228 OA
HETATM   13  C   UNL     1       5.341  26.272  51.003  1.00  0.00     0.167 C 
ENDROOT
BRANCH   1  14
HETATM   14  C   UNL     1       4.222  29.050  49.481  1.00  0.00     0.043 A 
HETATM   15  C   UNL     1       3.616  28.394  48.379  1.00  0.00    -0.028 A 
HETATM   16  C   UNL     1       3.673  29.009  47.107  1.00  0.00     0.010 A 
HETATM   17  C   UNL     1       4.290  30.243  46.919  1.00  0.00     0.001 A 
HETATM   18  C   UNL     1       4.865  30.892  47.998  1.00  0.00     0.002 A 
HETATM   19  C   UNL     1       4.832  30.301  49.261  1.00  0.00     0.030 A 
BRANCH  15  20
HETATM   20  C   UNL     1       2.827  27.092  48.508  1.00  0.00     0.013 C 
HETATM   21  C   UNL     1       3.498  25.938  47.753  1.00  0.00     0.015 C 
HETATM   22  C   UNL     1       1.377  27.263  48.041  1.00  0.00     0.015 C 
ENDBRANCH  15  20
ENDBRANCH   1  14
TORSDOF 2
ENDMDL
MODEL 8
REMARK VINA RESULT:      -6.4      3.234      4.524
REMARK  2 active torsions:
REMARK  status: ('A' for Active; 'I' for Inactive)
REMARK    1  A    between atoms: C_2  and  C_3 
REMARK    2  A    between atoms: C_4  and  N_5 
ROOT
HETATM    1  N   UNL     1       6.736  27.385  54.464  1.00  0.00    -0.321 N 
HETATM    2  C   UNL     1       7.398  28.405  55.198  1.00  0.00     0.141 C 
HETATM    3  N   UNL     1       8.686  28.414  55.385  1.00  0.00    -0.380 N 
HETATM    4  H   UNL     1       9.110  29.169  55.904  1.00  0.00     0.158 HD
HETATM    5  H   UNL     1       9.244  27.674  54.983  1.00  0.00     0.158 HD
HETATM    6  S   UNL     1       6.337  29.622  55.776  1.00  0.00    -0.086 SA
HETATM    7  C   UNL     1       4.854  28.631  55.299  1.00  0.00     0.093 C 
HETATM    8  C   UNL     1       5.330  27.718  54.142  1.00  0.00     0.121 C 
HETATM    9  C   UNL     1       3.670  29.447  54.828  1.00  0.00     0.158 C 
HETATM   10  S   UNL     1       3.850  29.617  53.070  1.00  0.00     0.147 S 
HETATM   11  O   UNL     1       4.276  30.966  52.770  1.00  0.00    -0.228 OA
HETATM   12  O   UNL     1       2.703  29.004  52.437  1.00  0.00    -0.228 OA
HETATM   13  C   UNL     1       5.236  28.533  52.852  1.00  0.00     0.167 C 
ENDROOT
BRANCH   1  14
HETATM   14  C   UNL     1       7.218  26.119  54.091  1.00  0.00     0.043 A 
HETATM   15  C   UNL     1       7.583  25.130  55.041  1.00  0.00    -0.028 A 
HETATM   16  C   UNL     1       8.105  23.901  54.576  1.00  0.00     0.010 A 
HETATM   17  C   UNL     1       8.249  23.636  53.216  1.00  0.00     0.001 A 
HETATM   18  C   UNL     1       7.875  24.594  52.289  1.00  0.00     0.002 A 
HETATM   19  C   UNL     1       7.368  25.819  52.723  1.00  0.00     0.030 A 
BRANCH  15  20
HETATM   20  C   UNL     1       7.364  25.289  56.545  1.00  0.00     0.013 C 
HETATM   21  C   UNL     1       8.360  24.457  57.360  1.00  0.00     0.015 C 
HETATM   22  C   UNL     1       5.925  24.942  56.945  1.00  0.00     0.015 C 
ENDBRANCH  15  20
ENDBRANCH   1  14
TORSDOF 2
ENDMDL
MODEL 9
REMARK VINA RESULT:      -6.4      3.537      5.967
REMARK  2 active torsions:
REMARK  status: ('A' for Active; 'I' for Inactive)
REMARK    1  A    between atoms: C_2  and  C_3 
REMARK    2  A    between atoms: C_4  and  N_5 
ROOT
HETATM    1  N   UNL     1       6.552  27.002  55.736  1.00  0.00    -0.321 N 
HETATM    2  C   UNL     1       6.866  25.718  56.258  1.00  0.00     0.141 C 
HETATM    3  N   UNL     1       6.726  25.416  57.515  1.00  0.00    -0.380 N 
HETATM    4  H   UNL     1       6.952  24.485  57.834  1.00  0.00     0.158 HD
HETATM    5  H   UNL     1       6.368  26.115  58.150  1.00  0.00     0.158 HD
HETATM    6  S   UNL     1       7.411  24.615  55.062  1.00  0.00    -0.086 SA
HETATM    7  C   UNL     1       7.535  25.960  53.802  1.00  0.00     0.093 C 
HETATM    8  C   UNL     1       6.520  27.038  54.257  1.00  0.00     0.121 C 
HETATM    9  C   UNL     1       7.204  25.537  52.387  1.00  0.00     0.158 C 
HETATM   10  S   UNL     1       5.461  25.805  52.183  1.00  0.00     0.147 S 
HETATM   11  O   UNL     1       4.784  24.527  52.202  1.00  0.00    -0.228 OA
HETATM   12  O   UNL     1       5.275  26.769  51.120  1.00  0.00    -0.228 OA
HETATM   13  C   UNL     1       5.149  26.625  53.724  1.00  0.00     0.167 C 
ENDROOT
BRANCH   1  14
HETATM   14  C   UNL     1       6.353  28.206  56.433  1.00  0.00     0.043 A 
HETATM   15  C   UNL     1       7.428  29.013  56.885  1.00  0.00    -0.028 A 
HETATM   16  C   UNL     1       7.135  30.185  57.620  1.00  0.00     0.010 A 
HETATM   17  C   UNL     1       5.824  30.569  57.890  1.00  0.00     0.001 A 
HETATM   18  C   UNL     1       4.774  29.791  57.432  1.00  0.00     0.002 A 
HETATM   19  C   UNL     1       5.038  28.625  56.714  1.00  0.00     0.030 A 
BRANCH  15  20
HETATM   20  C   UNL     1       8.891  28.730  56.548  1.00  0.00     0.013 C 
HETATM   21  C   UNL     1       9.848  29.410  57.534  1.00  0.00     0.015 C 
HETATM   22  C   UNL     1       9.228  29.138  55.109  1.00  0.00     0.015 C 
ENDBRANCH  15  20
ENDBRANCH   1  14
TORSDOF 2
ENDMDL
MODEL 10
REMARK VINA RESULT:      -6.3      9.584     11.640
REMARK  2 active torsions:
REMARK  status: ('A' for Active; 'I' for Inactive)
REMARK    1  A    between atoms: C_2  and  C_3 
REMARK    2  A    between atoms: C_4  and  N_5 
ROOT
HETATM    1  N   UNL     1       4.816  33.361  61.672  1.00  0.00    -0.321 N 
HETATM    2  C   UNL     1       3.821  32.377  61.432  1.00  0.00     0.141 C 
HETATM    3  N   UNL     1       3.348  31.609  62.371  1.00  0.00    -0.380 N 
HETATM    4  H   UNL     1       2.632  30.933  62.150  1.00  0.00     0.158 HD
HETATM    5  H   UNL     1       3.691  31.723  63.314  1.00  0.00     0.158 HD
HETATM    6  S   UNL     1       3.294  32.330  59.800  1.00  0.00    -0.086 SA
HETATM    7  C   UNL     1       4.647  33.470  59.274  1.00  0.00     0.093 C 
HETATM    8  C   UNL     1       4.999  34.294  60.538  1.00  0.00     0.121 C 
HETATM    9  C   UNL     1       4.279  34.418  58.154  1.00  0.00     0.158 C 
HETATM   10  S   UNL     1       3.645  35.884  58.930  1.00  0.00     0.147 S 
HETATM   11  O   UNL     1       2.208  35.915  58.771  1.00  0.00    -0.228 OA
HETATM   12  O   UNL     1       4.494  36.995  58.560  1.00  0.00    -0.228 OA
HETATM   13  C   UNL     1       4.010  35.456  60.612  1.00  0.00     0.167 C 
ENDROOT
BRANCH   1  14
HETATM   14  C   UNL     1       5.663  33.498  62.785  1.00  0.00     0.043 A 
HETATM   15  C   UNL     1       5.333  34.308  63.901  1.00  0.00    -0.028 A 
HETATM   16  C   UNL     1       6.266  34.425  64.956  1.00  0.00     0.010 A 
HETATM   17  C   UNL     1       7.485  33.753  64.931  1.00  0.00     0.001 A 
HETATM   18  C   UNL     1       7.800  32.947  63.850  1.00  0.00     0.002 A 
HETATM   19  C   UNL     1       6.900  32.825  62.792  1.00  0.00     0.030 A 
BRANCH  15  20
HETATM   20  C   UNL     1       3.979  34.998  64.066  1.00  0.00     0.013 C 
HETATM   21  C   UNL     1       4.113  36.526  64.081  1.00  0.00     0.015 C 
HETATM   22  C   UNL     1       3.249  34.515  65.325  1.00  0.00     0.015 C 
ENDBRANCH  15  20
ENDBRANCH   1  14
TORSDOF 2
ENDMDL
