MODEL 1
REMARK VINA RESULT:     -10.4      0.000      0.000
REMARK  4 active torsions:
REMARK  status: ('A' for Active; 'I' for Inactive)
REMARK    1  A    between atoms: N_4  and  C_5 
REMARK    2  A    between atoms: C_14  and  C_15 
REMARK       I    between atoms: C_15  and  N_16 
REMARK    3  A    between atoms: N_16  and  N_17 
REMARK       I    between atoms: N_17  and  C_18 
REMARK       I    between atoms: C_18  and  N_19 
REMARK    4  A    between atoms: N_19  and  C_20 
ROOT
HETATM    1  C   UNL     1       7.601  28.819  55.619  1.00  0.00     0.277 C 
HETATM    2  N   UNL     1       8.865  28.957  56.158  1.00  0.00    -0.261 N 
HETATM    3  O   UNL     1       6.774  29.728  55.696  1.00  0.00    -0.265 OA
HETATM    4  H   UNL     1       9.519  28.175  56.201  1.00  0.00     0.190 HD
ENDROOT
BRANCH   1   5
HETATM    5  C   UNL     1       7.338  27.542  54.970  1.00  0.00     0.077 A 
HETATM    6  S   UNL     1       7.986  26.052  55.616  1.00  0.00    -0.064 SA
HETATM    7  C   UNL     1       7.241  25.173  54.416  1.00  0.00     0.113 A 
HETATM    8  N   UNL     1       7.083  23.873  54.004  1.00  0.00    -0.226 N 
HETATM    9  C   UNL     1       6.553  25.946  53.569  1.00  0.00     0.027 A 
HETATM   10  N   UNL     1       6.306  23.851  52.855  1.00  0.00    -0.171 NA
HETATM   11  C   UNL     1       5.987  25.136  52.603  1.00  0.00     0.064 A 
HETATM   12  C   UNL     1       5.155  25.498  51.434  1.00  0.00     0.073 C 
HETATM   13  C   UNL     1       6.559  27.311  53.835  1.00  0.00     0.041 A 
BRANCH   8  14
HETATM   14  C   UNL     1       7.558  22.652  54.566  1.00  0.00     0.059 A 
HETATM   15  C   UNL     1       7.842  21.574  53.709  1.00  0.00     0.031 A 
HETATM   16  C   UNL     1       8.294  20.356  54.223  1.00  0.00     0.002 A 
HETATM   17  C   UNL     1       8.471  20.200  55.595  1.00  0.00     0.000 A 
HETATM   18  C   UNL     1       8.197  21.262  56.453  1.00  0.00     0.002 A 
HETATM   19  C   UNL     1       7.742  22.484  55.944  1.00  0.00     0.031 A 
ENDBRANCH   8  14
ENDBRANCH   1   5
BRANCH   2  20
HETATM   20  N   UNL     1       9.171  30.061  56.972  1.00  0.00    -0.249 N 
HETATM   21  C   UNL     1       8.667  30.008  58.264  1.00  0.00     0.339 C 
HETATM   22  N   UNL     1       8.906  31.169  58.962  1.00  0.00    -0.308 N 
HETATM   23  O   UNL     1       8.111  28.995  58.679  1.00  0.00    -0.245 OA
HETATM   24  H   UNL     1       9.424  31.882  58.470  1.00  0.00     0.170 HD
HETATM   25  H   UNL     1       9.232  30.948  56.480  1.00  0.00     0.192 HD
BRANCH  22  26
HETATM   26  C   UNL     1       8.574  31.443  60.306  1.00  0.00     0.038 A 
HETATM   27  C   UNL     1       7.776  32.517  60.710  1.00  0.00     0.053 A 
HETATM   28  C   UNL     1       7.484  32.703  62.063  1.00  0.00     0.036 A 
HETATM   29 CL   UNL     1       6.491  34.024  62.549  1.00  0.00    -0.084 Cl
HETATM   30  C   UNL     1       7.984  31.831  63.026  1.00  0.00     0.024 A 
HETATM   31  C   UNL     1       8.784  30.761  62.633  1.00  0.00     0.004 A 
HETATM   32  C   UNL     1       9.076  30.569  61.280  1.00  0.00     0.029 A 
ENDBRANCH  22  26
ENDBRANCH   2  20
TORSDOF 4
ENDMDL
MODEL 2
REMARK VINA RESULT:     -10.3      3.614      9.937
REMARK  4 active torsions:
REMARK  status: ('A' for Active; 'I' for Inactive)
REMARK    1  A    between atoms: N_4  and  C_5 
REMARK    2  A    between atoms: C_14  and  C_15 
REMARK       I    between atoms: C_15  and  N_16 
REMARK    3  A    between atoms: N_16  and  N_17 
REMARK       I    between atoms: N_17  and  C_18 
REMARK       I    between atoms: C_18  and  N_19 
REMARK    4  A    between atoms: N_19  and  C_20 
ROOT
HETATM    1  C   UNL     1       7.687  28.968  55.601  1.00  0.00     0.277 C 
HETATM    2  N   UNL     1       6.804  28.130  54.948  1.00  0.00    -0.261 N 
HETATM    3  O   UNL     1       8.892  28.943  55.348  1.00  0.00    -0.265 OA
HETATM    4  H   UNL     1       5.825  28.060  55.226  1.00  0.00     0.190 HD
ENDROOT
BRANCH   1   5
HETATM    5  C   UNL     1       7.088  29.858  56.586  1.00  0.00     0.077 A 
HETATM    6  S   UNL     1       7.793  30.051  58.173  1.00  0.00    -0.064 SA
HETATM    7  C   UNL     1       6.626  31.161  58.590  1.00  0.00     0.113 A 
HETATM    8  N   UNL     1       6.264  31.968  59.640  1.00  0.00    -0.226 N 
HETATM    9  C   UNL     1       5.747  31.371  57.605  1.00  0.00     0.027 A 
HETATM   10  N   UNL     1       5.114  32.666  59.302  1.00  0.00    -0.171 NA
HETATM   11  C   UNL     1       4.811  32.288  58.044  1.00  0.00     0.064 A 
HETATM   12  C   UNL     1       3.626  32.837  57.350  1.00  0.00     0.073 C 
HETATM   13  C   UNL     1       5.959  30.663  56.426  1.00  0.00     0.041 A 
BRANCH   8  14
HETATM   14  C   UNL     1       6.876  32.174  60.911  1.00  0.00     0.059 A 
HETATM   15  C   UNL     1       6.328  33.133  61.782  1.00  0.00     0.031 A 
HETATM   16  C   UNL     1       6.907  33.376  63.030  1.00  0.00     0.002 A 
HETATM   17  C   UNL     1       8.036  32.664  63.424  1.00  0.00     0.000 A 
HETATM   18  C   UNL     1       8.585  31.709  62.573  1.00  0.00     0.002 A 
HETATM   19  C   UNL     1       8.010  31.463  61.321  1.00  0.00     0.031 A 
ENDBRANCH   8  14
ENDBRANCH   1   5
BRANCH   2  20
HETATM   20  N   UNL     1       7.285  27.100  54.122  1.00  0.00    -0.249 N 
HETATM   21  C   UNL     1       7.242  25.825  54.671  1.00  0.00     0.339 C 
HETATM   22  N   UNL     1       7.833  24.889  53.854  1.00  0.00    -0.308 N 
HETATM   23  O   UNL     1       6.693  25.626  55.751  1.00  0.00    -0.245 OA
HETATM   24  H   UNL     1       8.190  25.232  52.975  1.00  0.00     0.170 HD
HETATM   25  H   UNL     1       8.047  27.369  53.506  1.00  0.00     0.192 HD
BRANCH  22  26
HETATM   26  C   UNL     1       7.928  23.499  54.077  1.00  0.00     0.038 A 
HETATM   27  C   UNL     1       8.112  22.920  55.335  1.00  0.00     0.053 A 
HETATM   28  C   UNL     1       8.179  21.531  55.465  1.00  0.00     0.036 A 
HETATM   29 CL   UNL     1       8.394  20.827  57.023  1.00  0.00    -0.084 Cl
HETATM   30  C   UNL     1       8.071  20.705  54.349  1.00  0.00     0.024 A 
HETATM   31  C   UNL     1       7.894  21.273  53.091  1.00  0.00     0.004 A 
HETATM   32  C   UNL     1       7.822  22.663  52.956  1.00  0.00     0.029 A 
ENDBRANCH  22  26
ENDBRANCH   2  20
TORSDOF 4
ENDMDL
MODEL 3
REMARK VINA RESULT:     -10.2      2.312      3.412
REMARK  4 active torsions:
REMARK  status: ('A' for Active; 'I' for Inactive)
REMARK    1  A    between atoms: N_4  and  C_5 
REMARK    2  A    between atoms: C_14  and  C_15 
REMARK       I    between atoms: C_15  and  N_16 
REMARK    3  A    between atoms: N_16  and  N_17 
REMARK       I    between atoms: N_17  and  C_18 
REMARK       I    between atoms: C_18  and  N_19 
REMARK    4  A    between atoms: N_19  and  C_20 
ROOT
HETATM    1  C   UNL     1       7.756  29.841  58.522  1.00  0.00     0.277 C 
HETATM    2  N   UNL     1       7.112  31.043  58.740  1.00  0.00    -0.261 N 
HETATM    3  O   UNL     1       8.698  29.486  59.231  1.00  0.00    -0.265 OA
HETATM    4  H   UNL     1       6.407  31.400  58.094  1.00  0.00     0.190 HD
ENDROOT
BRANCH   1   5
HETATM    5  C   UNL     1       7.239  29.050  57.414  1.00  0.00     0.077 A 
HETATM    6  S   UNL     1       7.943  27.503  57.004  1.00  0.00    -0.064 SA
HETATM    7  C   UNL     1       6.836  27.289  55.781  1.00  0.00     0.113 A 
HETATM    8  N   UNL     1       6.484  26.368  54.825  1.00  0.00    -0.226 N 
HETATM    9  C   UNL     1       5.991  28.320  55.671  1.00  0.00     0.027 A 
HETATM   10  N   UNL     1       5.417  26.862  54.089  1.00  0.00    -0.171 NA
HETATM   11  C   UNL     1       5.125  28.064  54.625  1.00  0.00     0.064 A 
HETATM   12  C   UNL     1       4.025  28.892  54.083  1.00  0.00     0.073 C 
HETATM   13  C   UNL     1       6.160  29.357  56.583  1.00  0.00     0.041 A 
BRANCH   8  14
HETATM   14  C   UNL     1       7.016  25.079  54.532  1.00  0.00     0.059 A 
HETATM   15  C   UNL     1       7.471  24.811  53.228  1.00  0.00     0.031 A 
HETATM   16  C   UNL     1       7.984  23.555  52.898  1.00  0.00     0.002 A 
HETATM   17  C   UNL     1       8.053  22.553  53.862  1.00  0.00     0.000 A 
HETATM   18  C   UNL     1       7.610  22.808  55.157  1.00  0.00     0.002 A 
HETATM   19  C   UNL     1       7.093  24.064  55.494  1.00  0.00     0.031 A 
ENDBRANCH   8  14
ENDBRANCH   1   5
BRANCH   2  20
HETATM   20  N   UNL     1       7.640  31.974  59.650  1.00  0.00    -0.249 N 
HETATM   21  C   UNL     1       6.892  32.174  60.802  1.00  0.00     0.339 C 
HETATM   22  N   UNL     1       7.406  33.179  61.588  1.00  0.00    -0.308 N 
HETATM   23  O   UNL     1       5.912  31.472  61.042  1.00  0.00    -0.245 OA
HETATM   24  H   UNL     1       8.252  33.614  61.250  1.00  0.00     0.170 HD
HETATM   25  H   UNL     1       8.143  32.748  59.224  1.00  0.00     0.192 HD
BRANCH  22  26
HETATM   26  C   UNL     1       6.927  33.614  62.841  1.00  0.00     0.038 A 
HETATM   27  C   UNL     1       5.883  34.528  63.004  1.00  0.00     0.053 A 
HETATM   28  C   UNL     1       5.462  34.891  64.285  1.00  0.00     0.036 A 
HETATM   29 CL   UNL     1       4.165  36.011  64.474  1.00  0.00    -0.084 Cl
HETATM   30  C   UNL     1       6.076  34.357  65.415  1.00  0.00     0.024 A 
HETATM   31  C   UNL     1       7.121  33.450  65.263  1.00  0.00     0.004 A 
HETATM   32  C   UNL     1       7.543  33.081  63.982  1.00  0.00     0.029 A 
ENDBRANCH  22  26
ENDBRANCH   2  20
TORSDOF 4
ENDMDL
MODEL 4
REMARK VINA RESULT:     -10.0      4.350     11.217
REMARK  4 active torsions:
REMARK  status: ('A' for Active; 'I' for Inactive)
REMARK    1  A    between atoms: N_4  and  C_5 
REMARK    2  A    between atoms: C_14  and  C_15 
REMARK       I    between atoms: C_15  and  N_16 
REMARK    3  A    between atoms: N_16  and  N_17 
REMARK       I    between atoms: N_17  and  C_18 
REMARK       I    between atoms: C_18  and  N_19 
REMARK    4  A    between atoms: N_19  and  C_20 
ROOT
HETATM    1  C   UNL     1       8.165  30.737  59.987  1.00  0.00     0.277 C 
HETATM    2  N   UNL     1       7.671  30.189  58.820  1.00  0.00    -0.261 N 
HETATM    3  O   UNL     1       9.305  30.483  60.377  1.00  0.00    -0.265 OA
HETATM    4  H   UNL     1       6.695  30.300  58.545  1.00  0.00     0.190 HD
ENDROOT
BRANCH   1   5
HETATM    5  C   UNL     1       7.248  31.618  60.697  1.00  0.00     0.077 A 
HETATM    6  S   UNL     1       7.322  31.783  62.436  1.00  0.00    -0.064 SA
HETATM    7  C   UNL     1       6.086  32.897  62.413  1.00  0.00     0.113 A 
HETATM    8  N   UNL     1       5.366  33.692  63.270  1.00  0.00    -0.226 N 
HETATM    9  C   UNL     1       5.630  33.127  61.177  1.00  0.00     0.027 A 
HETATM   10  N   UNL     1       4.422  34.404  62.544  1.00  0.00    -0.171 NA
HETATM   11  C   UNL     1       4.600  34.045  61.257  1.00  0.00     0.064 A 
HETATM   12  C   UNL     1       3.754  34.613  60.185  1.00  0.00     0.073 C 
HETATM   13  C   UNL     1       6.259  32.435  60.147  1.00  0.00     0.041 A 
BRANCH   8  14
HETATM   14  C   UNL     1       5.468  33.875  64.680  1.00  0.00     0.059 A 
HETATM   15  C   UNL     1       6.745  33.933  65.267  1.00  0.00     0.031 A 
HETATM   16  C   UNL     1       6.887  34.095  66.647  1.00  0.00     0.002 A 
HETATM   17  C   UNL     1       5.759  34.205  67.456  1.00  0.00     0.000 A 
HETATM   18  C   UNL     1       4.490  34.154  66.885  1.00  0.00     0.002 A 
HETATM   19  C   UNL     1       4.342  33.990  65.504  1.00  0.00     0.031 A 
ENDBRANCH   8  14
ENDBRANCH   1   5
BRANCH   2  20
HETATM   20  N   UNL     1       8.387  29.180  58.153  1.00  0.00    -0.249 N 
HETATM   21  C   UNL     1       7.625  28.116  57.686  1.00  0.00     0.339 C 
HETATM   22  N   UNL     1       8.404  27.117  57.150  1.00  0.00    -0.308 N 
HETATM   23  O   UNL     1       6.399  28.149  57.749  1.00  0.00    -0.245 OA
HETATM   24  H   UNL     1       9.398  27.288  57.142  1.00  0.00     0.170 HD
HETATM   25  H   UNL     1       9.328  29.023  58.503  1.00  0.00     0.192 HD
BRANCH  22  26
HETATM   26  C   UNL     1       7.963  25.919  56.549  1.00  0.00     0.038 A 
HETATM   27  C   UNL     1       7.217  25.866  55.369  1.00  0.00     0.053 A 
HETATM   28  C   UNL     1       6.837  24.633  54.835  1.00  0.00     0.036 A 
HETATM   29 CL   UNL     1       5.927  24.578  53.372  1.00  0.00    -0.084 Cl
HETATM   30  C   UNL     1       7.186  23.444  55.470  1.00  0.00     0.024 A 
HETATM   31  C   UNL     1       7.923  23.487  56.649  1.00  0.00     0.004 A 
HETATM   32  C   UNL     1       8.310  24.719  57.185  1.00  0.00     0.029 A 
ENDBRANCH  22  26
ENDBRANCH   2  20
TORSDOF 4
ENDMDL
MODEL 5
REMARK VINA RESULT:      -9.9      5.172      8.748
REMARK  4 active torsions:
REMARK  status: ('A' for Active; 'I' for Inactive)
REMARK    1  A    between atoms: N_4  and  C_5 
REMARK    2  A    between atoms: C_14  and  C_15 
REMARK       I    between atoms: C_15  and  N_16 
REMARK    3  A    between atoms: N_16  and  N_17 
REMARK       I    between atoms: N_17  and  C_18 
REMARK       I    between atoms: C_18  and  N_19 
REMARK    4  A    between atoms: N_19  and  C_20 
ROOT
HETATM    1  C   UNL     1       4.236  27.347  52.843  1.00  0.00     0.277 C 
HETATM    2  N   UNL     1       4.251  27.088  51.486  1.00  0.00    -0.261 N 
HETATM    3  O   UNL     1       3.487  28.201  53.318  1.00  0.00    -0.265 OA
HETATM    4  H   UNL     1       4.943  26.467  51.066  1.00  0.00     0.190 HD
ENDROOT
BRANCH   1   5
HETATM    5  C   UNL     1       5.154  26.546  53.639  1.00  0.00     0.077 A 
HETATM    6  S   UNL     1       5.559  24.910  53.175  1.00  0.00    -0.064 SA
HETATM    7  C   UNL     1       6.591  24.765  54.472  1.00  0.00     0.113 A 
HETATM    8  N   UNL     1       7.455  23.861  55.037  1.00  0.00    -0.226 N 
HETATM    9  C   UNL     1       6.625  25.871  55.223  1.00  0.00     0.027 A 
HETATM   10  N   UNL     1       8.009  24.414  56.182  1.00  0.00    -0.171 NA
HETATM   11  C   UNL     1       7.489  25.653  56.279  1.00  0.00     0.064 A 
HETATM   12  C   UNL     1       7.858  26.547  57.399  1.00  0.00     0.073 C 
HETATM   13  C   UNL     1       5.834  26.933  54.796  1.00  0.00     0.041 A 
BRANCH   8  14
HETATM   14  C   UNL     1       7.835  22.550  54.623  1.00  0.00     0.059 A 
HETATM   15  C   UNL     1       8.084  21.573  55.603  1.00  0.00     0.031 A 
HETATM   16  C   UNL     1       8.474  20.282  55.238  1.00  0.00     0.002 A 
HETATM   17  C   UNL     1       8.616  19.950  53.894  1.00  0.00     0.000 A 
HETATM   18  C   UNL     1       8.368  20.908  52.915  1.00  0.00     0.002 A 
HETATM   19  C   UNL     1       7.979  22.203  53.274  1.00  0.00     0.031 A 
ENDBRANCH   8  14
ENDBRANCH   1   5
BRANCH   2  20
HETATM   20  N   UNL     1       3.555  27.925  50.597  1.00  0.00    -0.249 N 
HETATM   21  C   UNL     1       4.347  28.727  49.786  1.00  0.00     0.339 C 
HETATM   22  N   UNL     1       3.600  29.598  49.029  1.00  0.00    -0.308 N 
HETATM   23  O   UNL     1       5.568  28.594  49.776  1.00  0.00    -0.245 OA
HETATM   24  H   UNL     1       2.598  29.529  49.136  1.00  0.00     0.170 HD
HETATM   25  H   UNL     1       2.664  28.268  50.945  1.00  0.00     0.192 HD
BRANCH  22  26
HETATM   26  C   UNL     1       4.072  30.520  48.071  1.00  0.00     0.038 A 
HETATM   27  C   UNL     1       4.930  31.582  48.366  1.00  0.00     0.053 A 
HETATM   28  C   UNL     1       5.361  32.438  47.350  1.00  0.00     0.036 A 
HETATM   29 CL   UNL     1       6.429  33.738  47.722  1.00  0.00    -0.084 Cl
HETATM   30  C   UNL     1       4.940  32.252  46.035  1.00  0.00     0.024 A 
HETATM   31  C   UNL     1       4.080  31.200  45.733  1.00  0.00     0.004 A 
HETATM   32  C   UNL     1       3.649  30.338  46.747  1.00  0.00     0.029 A 
ENDBRANCH  22  26
ENDBRANCH   2  20
TORSDOF 4
ENDMDL
MODEL 6
REMARK VINA RESULT:      -9.9      2.749      3.404
REMARK  4 active torsions:
REMARK  status: ('A' for Active; 'I' for Inactive)
REMARK    1  A    between atoms: N_4  and  C_5 
REMARK    2  A    between atoms: C_14  and  C_15 
REMARK       I    between atoms: C_15  and  N_16 
REMARK    3  A    between atoms: N_16  and  N_17 
REMARK       I    between atoms: N_17  and  C_18 
REMARK       I    between atoms: C_18  and  N_19 
REMARK    4  A    between atoms: N_19  and  C_20 
ROOT
HETATM    1  C   UNL     1       7.092  27.917  57.363  1.00  0.00     0.277 C 
HETATM    2  N   UNL     1       6.159  28.935  57.350  1.00  0.00    -0.261 N 
HETATM    3  O   UNL     1       7.963  27.865  58.232  1.00  0.00    -0.265 OA
HETATM    4  H   UNL     1       5.505  29.054  56.575  1.00  0.00     0.190 HD
ENDROOT
BRANCH   1   5
HETATM    5  C   UNL     1       6.961  26.938  56.293  1.00  0.00     0.077 A 
HETATM    6  S   UNL     1       7.697  25.358  56.422  1.00  0.00    -0.064 SA
HETATM    7  C   UNL     1       7.078  24.916  54.942  1.00  0.00     0.113 A 
HETATM    8  N   UNL     1       7.042  23.838  54.092  1.00  0.00    -0.226 N 
HETATM    9  C   UNL     1       6.369  25.896  54.372  1.00  0.00     0.027 A 
HETATM   10  N   UNL     1       6.321  24.178  52.957  1.00  0.00    -0.171 NA
HETATM   11  C   UNL     1       5.913  25.448  53.147  1.00  0.00     0.064 A 
HETATM   12  C   UNL     1       5.108  26.149  52.123  1.00  0.00     0.073 C 
HETATM   13  C   UNL     1       6.254  27.078  55.098  1.00  0.00     0.041 A 
BRANCH   8  14
HETATM   14  C   UNL     1       7.588  22.528  54.225  1.00  0.00     0.059 A 
HETATM   15  C   UNL     1       7.650  21.943  55.502  1.00  0.00     0.031 A 
HETATM   16  C   UNL     1       8.192  20.667  55.676  1.00  0.00     0.002 A 
HETATM   17  C   UNL     1       8.676  19.960  54.579  1.00  0.00     0.000 A 
HETATM   18  C   UNL     1       8.617  20.527  53.309  1.00  0.00     0.002 A 
HETATM   19  C   UNL     1       8.076  21.805  53.129  1.00  0.00     0.031 A 
ENDBRANCH   8  14
ENDBRANCH   1   5
BRANCH   2  20
HETATM   20  N   UNL     1       6.300  30.037  58.211  1.00  0.00    -0.249 N 
HETATM   21  C   UNL     1       5.145  30.778  58.426  1.00  0.00     0.339 C 
HETATM   22  N   UNL     1       5.384  31.903  59.182  1.00  0.00    -0.308 N 
HETATM   23  O   UNL     1       4.064  30.395  57.988  1.00  0.00    -0.245 OA
HETATM   24  H   UNL     1       6.335  32.030  59.496  1.00  0.00     0.170 HD
HETATM   25  H   UNL     1       7.205  30.497  58.168  1.00  0.00     0.192 HD
BRANCH  22  26
HETATM   26  C   UNL     1       4.439  32.851  59.624  1.00  0.00     0.038 A 
HETATM   27  C   UNL     1       3.920  32.891  60.921  1.00  0.00     0.053 A 
HETATM   28  C   UNL     1       2.999  33.878  61.278  1.00  0.00     0.036 A 
HETATM   29 CL   UNL     1       2.374  33.925  62.883  1.00  0.00    -0.084 Cl
HETATM   30  C   UNL     1       2.579  34.829  60.351  1.00  0.00     0.024 A 
HETATM   31  C   UNL     1       3.086  34.794  59.055  1.00  0.00     0.004 A 
HETATM   32  C   UNL     1       4.012  33.810  58.695  1.00  0.00     0.029 A 
ENDBRANCH  22  26
ENDBRANCH   2  20
TORSDOF 4
ENDMDL
MODEL 7
REMARK VINA RESULT:      -9.8      4.046     10.752
REMARK  4 active torsions:
REMARK  status: ('A' for Active; 'I' for Inactive)
REMARK    1  A    between atoms: N_4  and  C_5 
REMARK    2  A    between atoms: C_14  and  C_15 
REMARK       I    between atoms: C_15  and  N_16 
REMARK    3  A    between atoms: N_16  and  N_17 
REMARK       I    between atoms: N_17  and  C_18 
REMARK       I    between atoms: C_18  and  N_19 
REMARK    4  A    between atoms: N_19  and  C_20 
ROOT
HETATM    1  C   UNL     1       8.363  30.045  58.553  1.00  0.00     0.277 C 
HETATM    2  N   UNL     1       7.759  28.923  58.022  1.00  0.00    -0.261 N 
HETATM    3  O   UNL     1       9.571  30.241  58.417  1.00  0.00    -0.265 OA
HETATM    4  H   UNL     1       6.785  28.691  58.222  1.00  0.00     0.190 HD
ENDROOT
BRANCH   1   5
HETATM    5  C   UNL     1       7.474  30.952  59.265  1.00  0.00     0.077 A 
HETATM    6  S   UNL     1       7.651  31.222  60.983  1.00  0.00    -0.064 SA
HETATM    7  C   UNL     1       6.394  32.312  60.972  1.00  0.00     0.113 A 
HETATM    8  N   UNL     1       5.712  33.146  61.824  1.00  0.00    -0.226 N 
HETATM    9  C   UNL     1       5.859  32.461  59.756  1.00  0.00     0.027 A 
HETATM   10  N   UNL     1       4.711  33.797  61.118  1.00  0.00    -0.171 NA
HETATM   11  C   UNL     1       4.818  33.365  59.846  1.00  0.00     0.064 A 
HETATM   12  C   UNL     1       3.896  33.854  58.797  1.00  0.00     0.073 C 
HETATM   13  C   UNL     1       6.437  31.718  58.731  1.00  0.00     0.041 A 
BRANCH   8  14
HETATM   14  C   UNL     1       5.897  33.415  63.211  1.00  0.00     0.059 A 
HETATM   15  C   UNL     1       7.205  33.501  63.719  1.00  0.00     0.031 A 
HETATM   16  C   UNL     1       7.428  33.747  65.076  1.00  0.00     0.002 A 
HETATM   17  C   UNL     1       6.350  33.914  65.940  1.00  0.00     0.000 A 
HETATM   18  C   UNL     1       5.050  33.835  65.449  1.00  0.00     0.002 A 
HETATM   19  C   UNL     1       4.821  33.587  64.091  1.00  0.00     0.031 A 
ENDBRANCH   8  14
ENDBRANCH   1   5
BRANCH   2  20
HETATM   20  N   UNL     1       8.540  27.885  57.483  1.00  0.00    -0.249 N 
HETATM   21  C   UNL     1       7.829  26.810  56.966  1.00  0.00     0.339 C 
HETATM   22  N   UNL     1       8.657  25.787  56.564  1.00  0.00    -0.308 N 
HETATM   23  O   UNL     1       6.605  26.852  56.877  1.00  0.00    -0.245 OA
HETATM   24  H   UNL     1       9.647  25.953  56.670  1.00  0.00     0.170 HD
HETATM   25  H   UNL     1       9.430  27.736  57.950  1.00  0.00     0.192 HD
BRANCH  22  26
HETATM   26  C   UNL     1       8.280  24.571  55.957  1.00  0.00     0.038 A 
HETATM   27  C   UNL     1       8.379  23.324  56.578  1.00  0.00     0.053 A 
HETATM   28  C   UNL     1       7.966  22.171  55.906  1.00  0.00     0.036 A 
HETATM   29 CL   UNL     1       8.082  20.639  56.686  1.00  0.00    -0.084 Cl
HETATM   30  C   UNL     1       7.457  22.244  54.612  1.00  0.00     0.024 A 
HETATM   31  C   UNL     1       7.360  23.482  53.983  1.00  0.00     0.004 A 
HETATM   32  C   UNL     1       7.768  24.639  54.653  1.00  0.00     0.029 A 
ENDBRANCH  22  26
ENDBRANCH   2  20
TORSDOF 4
ENDMDL
MODEL 8
REMARK VINA RESULT:      -9.6      2.697      3.326
REMARK  4 active torsions:
REMARK  status: ('A' for Active; 'I' for Inactive)
REMARK    1  A    between atoms: N_4  and  C_5 
REMARK    2  A    between atoms: C_14  and  C_15 
REMARK       I    between atoms: C_15  and  N_16 
REMARK    3  A    between atoms: N_16  and  N_17 
REMARK       I    between atoms: N_17  and  C_18 
REMARK       I    between atoms: C_18  and  N_19 
REMARK    4  A    between atoms: N_19  and  C_20 
ROOT
HETATM    1  C   UNL     1       4.146  29.503  55.818  1.00  0.00     0.277 C 
HETATM    2  N   UNL     1       4.540  29.317  57.128  1.00  0.00    -0.261 N 
HETATM    3  O   UNL     1       3.436  30.457  55.497  1.00  0.00    -0.265 OA
HETATM    4  H   UNL     1       5.031  28.473  57.426  1.00  0.00     0.190 HD
ENDROOT
BRANCH   1   5
HETATM    5  C   UNL     1       4.630  28.505  54.875  1.00  0.00     0.077 A 
HETATM    6  S   UNL     1       5.535  27.113  55.421  1.00  0.00    -0.064 SA
HETATM    7  C   UNL     1       5.642  26.533  53.865  1.00  0.00     0.113 A 
HETATM    8  N   UNL     1       6.144  25.461  53.170  1.00  0.00    -0.226 N 
HETATM    9  C   UNL     1       5.046  27.338  52.979  1.00  0.00     0.027 A 
HETATM   10  N   UNL     1       5.878  25.630  51.820  1.00  0.00    -0.171 NA
HETATM   11  C   UNL     1       5.200  26.789  51.720  1.00  0.00     0.064 A 
HETATM   12  C   UNL     1       4.748  27.296  50.406  1.00  0.00     0.073 C 
HETATM   13  C   UNL     1       4.438  28.480  53.492  1.00  0.00     0.041 A 
BRANCH   8  14
HETATM   14  C   UNL     1       6.826  24.293  53.623  1.00  0.00     0.059 A 
HETATM   15  C   UNL     1       6.777  23.963  54.989  1.00  0.00     0.031 A 
HETATM   16  C   UNL     1       7.446  22.837  55.474  1.00  0.00     0.002 A 
HETATM   17  C   UNL     1       8.167  22.026  54.603  1.00  0.00     0.000 A 
HETATM   18  C   UNL     1       8.220  22.340  53.248  1.00  0.00     0.002 A 
HETATM   19  C   UNL     1       7.553  23.468  52.756  1.00  0.00     0.031 A 
ENDBRANCH   8  14
ENDBRANCH   1   5
BRANCH   2  20
HETATM   20  N   UNL     1       3.982  30.099  58.154  1.00  0.00    -0.249 N 
HETATM   21  C   UNL     1       4.860  30.971  58.785  1.00  0.00     0.339 C 
HETATM   22  N   UNL     1       4.274  31.616  59.849  1.00  0.00    -0.308 N 
HETATM   23  O   UNL     1       6.003  31.121  58.364  1.00  0.00    -0.245 OA
HETATM   24  H   UNL     1       3.303  31.399  60.017  1.00  0.00     0.170 HD
HETATM   25  H   UNL     1       3.242  29.644  58.681  1.00  0.00     0.192 HD
BRANCH  22  26
HETATM   26  C   UNL     1       4.857  32.594  60.681  1.00  0.00     0.038 A 
HETATM   27  C   UNL     1       5.868  32.330  61.609  1.00  0.00     0.053 A 
HETATM   28  C   UNL     1       6.399  33.365  62.382  1.00  0.00     0.036 A 
HETATM   29 CL   UNL     1       7.653  33.030  63.515  1.00  0.00    -0.084 Cl
HETATM   30  C   UNL     1       5.930  34.669  62.245  1.00  0.00     0.024 A 
HETATM   31  C   UNL     1       4.919  34.941  61.327  1.00  0.00     0.004 A 
HETATM   32  C   UNL     1       4.387  33.908  60.549  1.00  0.00     0.029 A 
ENDBRANCH  22  26
ENDBRANCH   2  20
TORSDOF 4
ENDMDL
MODEL 9
REMARK VINA RESULT:      -9.6      3.441      3.969
REMARK  4 active torsions:
REMARK  status: ('A' for Active; 'I' for Inactive)
REMARK    1  A    between atoms: N_4  and  C_5 
REMARK    2  A    between atoms: C_14  and  C_15 
REMARK       I    between atoms: C_15  and  N_16 
REMARK    3  A    between atoms: N_16  and  N_17 
REMARK       I    between atoms: N_17  and  C_18 
REMARK       I    between atoms: C_18  and  N_19 
REMARK    4  A    between atoms: N_19  and  C_20 
ROOT
HETATM    1  C   UNL     1       6.092  27.850  57.115  1.00  0.00     0.277 C 
HETATM    2  N   UNL     1       4.842  28.423  57.241  1.00  0.00    -0.261 N 
HETATM    3  O   UNL     1       7.017  28.172  57.861  1.00  0.00    -0.265 OA
HETATM    4  H   UNL     1       4.100  28.249  56.561  1.00  0.00     0.190 HD
ENDROOT
BRANCH   1   5
HETATM    5  C   UNL     1       6.219  26.859  56.056  1.00  0.00     0.077 A 
HETATM    6  S   UNL     1       7.042  25.342  56.334  1.00  0.00    -0.064 SA
HETATM    7  C   UNL     1       6.718  24.846  54.779  1.00  0.00     0.113 A 
HETATM    8  N   UNL     1       6.909  23.766  53.954  1.00  0.00    -0.226 N 
HETATM    9  C   UNL     1       6.042  25.765  54.081  1.00  0.00     0.027 A 
HETATM   10  N   UNL     1       6.366  24.043  52.708  1.00  0.00    -0.171 NA
HETATM   11  C   UNL     1       5.834  25.277  52.805  1.00  0.00     0.064 A 
HETATM   12  C   UNL     1       5.163  25.909  51.648  1.00  0.00     0.073 C 
HETATM   13  C   UNL     1       5.716  26.937  54.756  1.00  0.00     0.041 A 
BRANCH   8  14
HETATM   14  C   UNL     1       7.524  22.503  54.199  1.00  0.00     0.059 A 
HETATM   15  C   UNL     1       7.988  21.749  53.107  1.00  0.00     0.031 A 
HETATM   16  C   UNL     1       8.581  20.500  53.305  1.00  0.00     0.002 A 
HETATM   17  C   UNL     1       8.721  19.990  54.593  1.00  0.00     0.000 A 
HETATM   18  C   UNL     1       8.269  20.730  55.683  1.00  0.00     0.002 A 
HETATM   19  C   UNL     1       7.672  21.981  55.490  1.00  0.00     0.031 A 
ENDBRANCH   8  14
ENDBRANCH   1   5
BRANCH   2  20
HETATM   20  N   UNL     1       4.649  29.523  58.094  1.00  0.00    -0.249 N 
HETATM   21  C   UNL     1       4.484  30.748  57.461  1.00  0.00     0.339 C 
HETATM   22  N   UNL     1       4.417  31.790  58.356  1.00  0.00    -0.308 N 
HETATM   23  O   UNL     1       4.383  30.813  56.239  1.00  0.00    -0.245 OA
HETATM   24  H   UNL     1       4.470  31.537  59.332  1.00  0.00     0.170 HD
HETATM   25  H   UNL     1       5.142  29.465  58.980  1.00  0.00     0.192 HD
BRANCH  22  26
HETATM   26  C   UNL     1       4.210  33.155  58.066  1.00  0.00     0.038 A 
HETATM   27  C   UNL     1       4.912  33.860  57.085  1.00  0.00     0.053 A 
HETATM   28  C   UNL     1       4.630  35.208  56.854  1.00  0.00     0.036 A 
HETATM   29 CL   UNL     1       5.493  36.065  55.634  1.00  0.00    -0.084 Cl
HETATM   30  C   UNL     1       3.655  35.869  57.597  1.00  0.00     0.024 A 
HETATM   31  C   UNL     1       2.956  35.177  58.580  1.00  0.00     0.004 A 
HETATM   32  C   UNL     1       3.232  33.826  58.813  1.00  0.00     0.029 A 
ENDBRANCH  22  26
ENDBRANCH   2  20
TORSDOF 4
ENDMDL
MODEL 10
REMARK VINA RESULT:      -9.5      5.026      9.971
REMARK  4 active torsions:
REMARK  status: ('A' for Active; 'I' for Inactive)
REMARK    1  A    between atoms: N_4  and  C_5 
REMARK    2  A    between atoms: C_14  and  C_15 
REMARK       I    between atoms: C_15  and  N_16 
REMARK    3  A    between atoms: N_16  and  N_17 
REMARK       I    between atoms: N_17  and  C_18 
REMARK       I    between atoms: C_18  and  N_19 
REMARK    4  A    between atoms: N_19  and  C_20 
ROOT
HETATM    1  C   UNL     1       5.614  25.357  52.241  1.00  0.00     0.277 C 
HETATM    2  N   UNL     1       6.110  26.079  51.173  1.00  0.00    -0.261 N 
HETATM    3  O   UNL     1       4.624  24.636  52.116  1.00  0.00    -0.265 OA
HETATM    4  H   UNL     1       6.858  26.764  51.289  1.00  0.00     0.190 HD
ENDROOT
BRANCH   1   5
HETATM    5  C   UNL     1       6.344  25.516  53.491  1.00  0.00     0.077 A 
HETATM    6  S   UNL     1       6.682  27.103  54.141  1.00  0.00    -0.064 SA
HETATM    7  C   UNL     1       7.430  26.433  55.468  1.00  0.00     0.113 A 
HETATM    8  N   UNL     1       8.048  26.811  56.635  1.00  0.00    -0.226 N 
HETATM    9  C   UNL     1       7.440  25.096  55.428  1.00  0.00     0.027 A 
HETATM   10  N   UNL     1       8.477  25.678  57.310  1.00  0.00    -0.171 NA
HETATM   11  C   UNL     1       8.092  24.632  56.554  1.00  0.00     0.064 A 
HETATM   12  C   UNL     1       8.389  23.243  56.969  1.00  0.00     0.073 C 
HETATM   13  C   UNL     1       6.825  24.507  54.327  1.00  0.00     0.041 A 
BRANCH   8  14
HETATM   14  C   UNL     1       8.268  28.103  57.197  1.00  0.00     0.059 A 
HETATM   15  C   UNL     1       9.530  28.704  57.046  1.00  0.00     0.031 A 
HETATM   16  C   UNL     1       9.790  29.962  57.596  1.00  0.00     0.002 A 
HETATM   17  C   UNL     1       8.795  30.635  58.299  1.00  0.00     0.000 A 
HETATM   18  C   UNL     1       7.540  30.051  58.451  1.00  0.00     0.002 A 
HETATM   19  C   UNL     1       7.274  28.791  57.904  1.00  0.00     0.031 A 
ENDBRANCH   8  14
ENDBRANCH   1   5
BRANCH   2  20
HETATM   20  N   UNL     1       5.383  26.157  49.973  1.00  0.00    -0.249 N 
HETATM   21  C   UNL     1       5.063  27.441  49.551  1.00  0.00     0.339 C 
HETATM   22  N   UNL     1       4.256  27.435  48.438  1.00  0.00    -0.308 N 
HETATM   23  O   UNL     1       5.513  28.423  50.136  1.00  0.00    -0.245 OA
HETATM   24  H   UNL     1       4.025  26.526  48.064  1.00  0.00     0.170 HD
HETATM   25  H   UNL     1       4.737  25.389  49.816  1.00  0.00     0.192 HD
BRANCH  22  26
HETATM   26  C   UNL     1       3.778  28.553  47.722  1.00  0.00     0.038 A 
HETATM   27  C   UNL     1       4.600  29.551  47.193  1.00  0.00     0.053 A 
HETATM   28  C   UNL     1       4.040  30.616  46.482  1.00  0.00     0.036 A 
HETATM   29 CL   UNL     1       5.064  31.836  45.824  1.00  0.00    -0.084 Cl
HETATM   30  C   UNL     1       2.663  30.703  46.297  1.00  0.00     0.024 A 
HETATM   31  C   UNL     1       1.836  29.717  46.826  1.00  0.00     0.004 A 
HETATM   32  C   UNL     1       2.392  28.647  47.534  1.00  0.00     0.029 A 
ENDBRANCH  22  26
ENDBRANCH   2  20
TORSDOF 4
ENDMDL
