MODEL 1
REMARK VINA RESULT:      -8.1      0.000      0.000
REMARK  7 active torsions:
REMARK  status: ('A' for Active; 'I' for Inactive)
REMARK    1  A    between atoms: O_2  and  C_3 
REMARK    2  A    between atoms: C_6  and  C_7 
REMARK    3  A    between atoms: C_7  and  N_8 
REMARK    4  A    between atoms: N_8  and  C_11 
REMARK    5  A    between atoms: C_11  and  C_12 
REMARK    6  A    between atoms: C_11  and  C_20 
REMARK       I    between atoms: C_12  and  N_13 
REMARK    7  A    between atoms: N_13  and  C_14 
ROOT
HETATM    1  C   UNL     1       5.757  24.815  53.704  1.00  0.00     0.310 C 
ENDROOT
BRANCH   1   2
HETATM    2  N   UNL     1       5.239  25.613  54.886  1.00  0.00    -0.054 N 
HETATM    3  H   UNL     1       5.684  25.314  55.758  1.00  0.00     0.278 HD
HETATM    4  H   UNL     1       4.236  25.381  54.959  1.00  0.00     0.278 HD
BRANCH   2   5
HETATM    5  C   UNL     1       5.302  27.099  54.782  1.00  0.00     0.272 C 
BRANCH   5   6
HETATM    6  C   UNL     1       6.476  27.637  55.552  1.00  0.00    -0.033 A 
HETATM    7  C   UNL     1       6.596  27.400  56.928  1.00  0.00     0.011 A 
HETATM    8  C   UNL     1       7.680  27.914  57.648  1.00  0.00     0.037 A 
HETATM    9  C   UNL     1       8.651  28.678  57.004  1.00  0.00     0.068 A 
HETATM   10  C   UNL     1       8.526  28.929  55.636  1.00  0.00     0.037 A 
HETATM   11  C   UNL     1       7.451  28.412  54.909  1.00  0.00     0.011 A 
BRANCH   9  12
HETATM   12  O   UNL     1       9.753  29.237  57.588  1.00  0.00    -0.356 OA
HETATM   13  C   UNL     1      10.786  29.691  56.721  1.00  0.00     0.210 C 
ENDBRANCH   9  12
ENDBRANCH   5   6
ENDBRANCH   2   5
ENDBRANCH   1   2
BRANCH   1  14
HETATM   14  C   UNL     1       5.902  25.726  52.464  1.00  0.00     0.259 C 
HETATM   15  N   UNL     1       4.735  26.034  51.805  1.00  0.00    -0.304 N 
HETATM   16  H   UNL     1       3.827  25.696  52.100  1.00  0.00     0.171 HD
HETATM   17  O   UNL     1       7.036  26.135  52.201  1.00  0.00    -0.270 OA
BRANCH  15  18
HETATM   18  C   UNL     1       4.740  26.757  50.643  1.00  0.00     0.172 A 
HETATM   19  S   UNL     1       4.623  28.444  50.864  1.00  0.00    -0.062 SA
HETATM   20  C   UNL     1       4.655  28.643  49.158  1.00  0.00     0.072 A 
HETATM   21  C   UNL     1       4.754  27.406  48.553  1.00  0.00     0.126 A 
HETATM   22  N   UNL     1       4.794  26.324  49.413  1.00  0.00    -0.236 NA
ENDBRANCH  15  18
ENDBRANCH   1  14
BRANCH   1  23
HETATM   23  C   UNL     1       6.961  23.967  54.061  1.00  0.00    -0.019 A 
HETATM   24  C   UNL     1       7.369  22.948  53.183  1.00  0.00     0.010 A 
HETATM   25  C   UNL     1       8.457  22.133  53.497  1.00  0.00     0.001 A 
HETATM   26  C   UNL     1       9.145  22.317  54.693  1.00  0.00     0.000 A 
HETATM   27  C   UNL     1       8.748  23.316  55.578  1.00  0.00     0.001 A 
HETATM   28  C   UNL     1       7.660  24.134  55.269  1.00  0.00     0.010 A 
ENDBRANCH   1  23
TORSDOF 7
ENDMDL
MODEL 2
REMARK VINA RESULT:      -8.0      1.852      2.648
REMARK  7 active torsions:
REMARK  status: ('A' for Active; 'I' for Inactive)
REMARK    1  A    between atoms: O_2  and  C_3 
REMARK    2  A    between atoms: C_6  and  C_7 
REMARK    3  A    between atoms: C_7  and  N_8 
REMARK    4  A    between atoms: N_8  and  C_11 
REMARK    5  A    between atoms: C_11  and  C_12 
REMARK    6  A    between atoms: C_11  and  C_20 
REMARK       I    between atoms: C_12  and  N_13 
REMARK    7  A    between atoms: N_13  and  C_14 
ROOT
HETATM    1  C   UNL     1       7.071  23.910  54.900  1.00  0.00     0.310 C 
ENDROOT
BRANCH   1   2
HETATM    2  N   UNL     1       7.878  24.541  56.021  1.00  0.00    -0.054 N 
HETATM    3  H   UNL     1       8.411  25.347  55.684  1.00  0.00     0.278 HD
HETATM    4  H   UNL     1       8.559  23.822  56.310  1.00  0.00     0.278 HD
BRANCH   2   5
HETATM    5  C   UNL     1       7.138  24.918  57.259  1.00  0.00     0.272 C 
BRANCH   5   6
HETATM    6  C   UNL     1       6.751  26.370  57.226  1.00  0.00    -0.033 A 
HETATM    7  C   UNL     1       5.488  26.761  56.760  1.00  0.00     0.011 A 
HETATM    8  C   UNL     1       5.134  28.114  56.714  1.00  0.00     0.037 A 
HETATM    9  C   UNL     1       6.039  29.092  57.123  1.00  0.00     0.068 A 
HETATM   10  C   UNL     1       7.303  28.705  57.572  1.00  0.00     0.037 A 
HETATM   11  C   UNL     1       7.661  27.356  57.629  1.00  0.00     0.011 A 
BRANCH   9  12
HETATM   12  O   UNL     1       5.820  30.440  57.127  1.00  0.00    -0.356 OA
HETATM   13  C   UNL     1       6.429  31.193  58.170  1.00  0.00     0.210 C 
ENDBRANCH   9  12
ENDBRANCH   5   6
ENDBRANCH   2   5
ENDBRANCH   1   2
BRANCH   1  14
HETATM   14  C   UNL     1       6.871  24.921  53.748  1.00  0.00     0.259 C 
HETATM   15  N   UNL     1       5.569  25.146  53.367  1.00  0.00    -0.304 N 
HETATM   16  H   UNL     1       4.777  24.689  53.802  1.00  0.00     0.171 HD
HETATM   17  O   UNL     1       7.883  25.471  53.306  1.00  0.00    -0.270 OA
BRANCH  15  18
HETATM   18  C   UNL     1       5.267  25.949  52.301  1.00  0.00     0.172 A 
HETATM   19  S   UNL     1       4.807  27.536  52.724  1.00  0.00    -0.062 SA
HETATM   20  C   UNL     1       4.577  27.887  51.059  1.00  0.00     0.072 A 
HETATM   21  C   UNL     1       4.870  26.766  50.309  1.00  0.00     0.126 A 
HETATM   22  N   UNL     1       5.258  25.652  51.030  1.00  0.00    -0.236 NA
ENDBRANCH  15  18
ENDBRANCH   1  14
BRANCH   1  23
HETATM   23  C   UNL     1       7.592  22.542  54.511  1.00  0.00    -0.019 A 
HETATM   24  C   UNL     1       7.966  21.635  55.519  1.00  0.00     0.010 A 
HETATM   25  C   UNL     1       8.475  20.378  55.191  1.00  0.00     0.001 A 
HETATM   26  C   UNL     1       8.626  20.012  53.856  1.00  0.00     0.000 A 
HETATM   27  C   UNL     1       8.269  20.901  52.846  1.00  0.00     0.001 A 
HETATM   28  C   UNL     1       7.760  22.160  53.168  1.00  0.00     0.010 A 
ENDBRANCH   1  23
TORSDOF 7
ENDMDL
MODEL 3
REMARK VINA RESULT:      -7.8      1.754      2.399
REMARK  7 active torsions:
REMARK  status: ('A' for Active; 'I' for Inactive)
REMARK    1  A    between atoms: O_2  and  C_3 
REMARK    2  A    between atoms: C_6  and  C_7 
REMARK    3  A    between atoms: C_7  and  N_8 
REMARK    4  A    between atoms: N_8  and  C_11 
REMARK    5  A    between atoms: C_11  and  C_12 
REMARK    6  A    between atoms: C_11  and  C_20 
REMARK       I    between atoms: C_12  and  N_13 
REMARK    7  A    between atoms: N_13  and  C_14 
ROOT
HETATM    1  C   UNL     1       6.917  25.344  54.925  1.00  0.00     0.310 C 
ENDROOT
BRANCH   1   2
HETATM    2  N   UNL     1       7.483  25.936  56.202  1.00  0.00    -0.054 N 
HETATM    3  H   UNL     1       8.435  26.282  56.060  1.00  0.00     0.278 HD
HETATM    4  H   UNL     1       7.538  25.152  56.871  1.00  0.00     0.278 HD
BRANCH   2   5
HETATM    5  C   UNL     1       6.671  26.987  56.880  1.00  0.00     0.272 C 
BRANCH   5   6
HETATM    6  C   UNL     1       7.529  28.162  57.257  1.00  0.00    -0.033 A 
HETATM    7  C   UNL     1       8.908  28.150  57.003  1.00  0.00     0.011 A 
HETATM    8  C   UNL     1       9.709  29.237  57.368  1.00  0.00     0.037 A 
HETATM    9  C   UNL     1       9.145  30.343  58.001  1.00  0.00     0.068 A 
HETATM   10  C   UNL     1       7.776  30.351  58.270  1.00  0.00     0.037 A 
HETATM   11  C   UNL     1       6.968  29.273  57.900  1.00  0.00     0.011 A 
BRANCH   9  12
HETATM   12  O   UNL     1       9.813  31.463  58.409  1.00  0.00    -0.356 OA
HETATM   13  C   UNL     1       9.435  32.024  59.661  1.00  0.00     0.210 C 
ENDBRANCH   9  12
ENDBRANCH   5   6
ENDBRANCH   2   5
ENDBRANCH   1   2
BRANCH   1  14
HETATM   14  C   UNL     1       6.877  26.413  53.809  1.00  0.00     0.259 C 
HETATM   15  N   UNL     1       5.638  26.676  53.274  1.00  0.00    -0.304 N 
HETATM   16  H   UNL     1       4.792  26.211  53.580  1.00  0.00     0.171 HD
HETATM   17  O   UNL     1       7.943  26.968  53.529  1.00  0.00    -0.270 OA
BRANCH  15  18
HETATM   18  C   UNL     1       5.484  27.535  52.219  1.00  0.00     0.172 A 
HETATM   19  S   UNL     1       5.221  26.766  50.720  1.00  0.00    -0.062 SA
HETATM   20  C   UNL     1       5.163  28.309  49.968  1.00  0.00     0.072 A 
HETATM   21  C   UNL     1       5.347  29.291  50.920  1.00  0.00     0.126 A 
HETATM   22  N   UNL     1       5.539  28.838  52.213  1.00  0.00    -0.236 NA
ENDBRANCH  15  18
ENDBRANCH   1  14
BRANCH   1  23
HETATM   23  C   UNL     1       7.560  24.020  54.566  1.00  0.00    -0.019 A 
HETATM   24  C   UNL     1       8.492  23.446  55.448  1.00  0.00     0.010 A 
HETATM   25  C   UNL     1       9.122  22.242  55.132  1.00  0.00     0.001 A 
HETATM   26  C   UNL     1       8.838  21.600  53.930  1.00  0.00     0.000 A 
HETATM   27  C   UNL     1       7.924  22.159  53.041  1.00  0.00     0.001 A 
HETATM   28  C   UNL     1       7.292  23.364  53.351  1.00  0.00     0.010 A 
ENDBRANCH   1  23
TORSDOF 7
ENDMDL
MODEL 4
REMARK VINA RESULT:      -7.6      2.037      2.674
REMARK  7 active torsions:
REMARK  status: ('A' for Active; 'I' for Inactive)
REMARK    1  A    between atoms: O_2  and  C_3 
REMARK    2  A    between atoms: C_6  and  C_7 
REMARK    3  A    between atoms: C_7  and  N_8 
REMARK    4  A    between atoms: N_8  and  C_11 
REMARK    5  A    between atoms: C_11  and  C_12 
REMARK    6  A    between atoms: C_11  and  C_20 
REMARK       I    between atoms: C_12  and  N_13 
REMARK    7  A    between atoms: N_13  and  C_14 
ROOT
HETATM    1  C   UNL     1       6.711  26.823  54.477  1.00  0.00     0.310 C 
ENDROOT
BRANCH   1   2
HETATM    2  N   UNL     1       7.817  27.603  55.163  1.00  0.00    -0.054 N 
HETATM    3  H   UNL     1       7.740  28.605  54.969  1.00  0.00     0.278 HD
HETATM    4  H   UNL     1       8.696  27.275  54.733  1.00  0.00     0.278 HD
BRANCH   2   5
HETATM    5  C   UNL     1       7.983  27.395  56.630  1.00  0.00     0.272 C 
BRANCH   5   6
HETATM    6  C   UNL     1       8.531  28.632  57.284  1.00  0.00    -0.033 A 
HETATM    7  C   UNL     1       9.757  29.175  56.873  1.00  0.00     0.011 A 
HETATM    8  C   UNL     1      10.274  30.317  57.493  1.00  0.00     0.037 A 
HETATM    9  C   UNL     1       9.579  30.925  58.537  1.00  0.00     0.068 A 
HETATM   10  C   UNL     1       8.366  30.378  58.959  1.00  0.00     0.037 A 
HETATM   11  C   UNL     1       7.839  29.242  58.339  1.00  0.00     0.011 A 
BRANCH   9  12
HETATM   12  O   UNL     1       9.972  32.039  59.224  1.00  0.00    -0.356 OA
HETATM   13  C   UNL     1       9.392  32.248  60.506  1.00  0.00     0.210 C 
ENDBRANCH   9  12
ENDBRANCH   5   6
ENDBRANCH   2   5
ENDBRANCH   1   2
BRANCH   1  14
HETATM   14  C   UNL     1       6.119  27.646  53.310  1.00  0.00     0.259 C 
HETATM   15  N   UNL     1       4.880  27.250  52.865  1.00  0.00    -0.304 N 
HETATM   16  H   UNL     1       4.370  26.471  53.264  1.00  0.00     0.171 HD
HETATM   17  O   UNL     1       6.780  28.609  52.914  1.00  0.00    -0.270 OA
BRANCH  15  18
HETATM   18  C   UNL     1       4.289  27.840  51.780  1.00  0.00     0.172 A 
HETATM   19  S   UNL     1       3.154  29.052  52.171  1.00  0.00    -0.062 SA
HETATM   20  C   UNL     1       2.852  29.273  50.494  1.00  0.00     0.072 A 
HETATM   21  C   UNL     1       3.641  28.405  49.767  1.00  0.00     0.126 A 
HETATM   22  N   UNL     1       4.460  27.578  50.514  1.00  0.00    -0.236 NA
ENDBRANCH  15  18
ENDBRANCH   1  14
BRANCH   1  23
HETATM   23  C   UNL     1       7.119  25.400  54.156  1.00  0.00    -0.019 A 
HETATM   24  C   UNL     1       7.681  25.110  52.900  1.00  0.00     0.010 A 
HETATM   25  C   UNL     1       8.040  23.805  52.566  1.00  0.00     0.001 A 
HETATM   26  C   UNL     1       7.836  22.770  53.475  1.00  0.00     0.000 A 
HETATM   27  C   UNL     1       7.272  23.037  54.719  1.00  0.00     0.001 A 
HETATM   28  C   UNL     1       6.910  24.342  55.059  1.00  0.00     0.010 A 
ENDBRANCH   1  23
TORSDOF 7
ENDMDL
MODEL 5
REMARK VINA RESULT:      -7.6      2.542      6.659
REMARK  7 active torsions:
REMARK  status: ('A' for Active; 'I' for Inactive)
REMARK    1  A    between atoms: O_2  and  C_3 
REMARK    2  A    between atoms: C_6  and  C_7 
REMARK    3  A    between atoms: C_7  and  N_8 
REMARK    4  A    between atoms: N_8  and  C_11 
REMARK    5  A    between atoms: C_11  and  C_12 
REMARK    6  A    between atoms: C_11  and  C_20 
REMARK       I    between atoms: C_12  and  N_13 
REMARK    7  A    between atoms: N_13  and  C_14 
ROOT
HETATM    1  C   UNL     1       7.380  25.751  53.742  1.00  0.00     0.310 C 
ENDROOT
BRANCH   1   2
HETATM    2  N   UNL     1       6.259  25.895  52.730  1.00  0.00    -0.054 N 
HETATM    3  H   UNL     1       5.377  25.528  53.099  1.00  0.00     0.278 HD
HETATM    4  H   UNL     1       6.528  25.299  51.931  1.00  0.00     0.278 HD
BRANCH   2   5
HETATM    5  C   UNL     1       6.030  27.253  52.160  1.00  0.00     0.272 C 
BRANCH   5   6
HETATM    6  C   UNL     1       5.366  27.161  50.815  1.00  0.00    -0.033 A 
HETATM    7  C   UNL     1       4.772  25.964  50.392  1.00  0.00     0.011 A 
HETATM    8  C   UNL     1       4.169  25.874  49.133  1.00  0.00     0.037 A 
HETATM    9  C   UNL     1       4.160  26.974  48.278  1.00  0.00     0.068 A 
HETATM   10  C   UNL     1       4.765  28.163  48.690  1.00  0.00     0.037 A 
HETATM   11  C   UNL     1       5.362  28.263  49.949  1.00  0.00     0.011 A 
BRANCH   9  12
HETATM   12  O   UNL     1       3.608  27.018  47.029  1.00  0.00    -0.356 OA
HETATM   13  C   UNL     1       2.188  27.067  46.949  1.00  0.00     0.210 C 
ENDBRANCH   9  12
ENDBRANCH   5   6
ENDBRANCH   2   5
ENDBRANCH   1   2
BRANCH   1  14
HETATM   14  C   UNL     1       7.050  26.548  55.025  1.00  0.00     0.259 C 
HETATM   15  N   UNL     1       7.861  27.627  55.286  1.00  0.00    -0.304 N 
HETATM   16  H   UNL     1       8.630  27.900  54.686  1.00  0.00     0.171 HD
HETATM   17  O   UNL     1       6.068  26.180  55.674  1.00  0.00    -0.270 OA
BRANCH  15  18
HETATM   18  C   UNL     1       7.729  28.357  56.436  1.00  0.00     0.172 A 
HETATM   19  S   UNL     1       6.631  29.658  56.320  1.00  0.00    -0.062 SA
HETATM   20  C   UNL     1       6.989  30.070  57.949  1.00  0.00     0.072 A 
HETATM   21  C   UNL     1       7.917  29.183  58.455  1.00  0.00     0.126 A 
HETATM   22  N   UNL     1       8.345  28.204  57.576  1.00  0.00    -0.236 NA
ENDBRANCH  15  18
ENDBRANCH   1  14
BRANCH   1  23
HETATM   23  C   UNL     1       7.804  24.309  53.936  1.00  0.00    -0.019 A 
HETATM   24  C   UNL     1       7.537  23.371  52.923  1.00  0.00     0.010 A 
HETATM   25  C   UNL     1       7.890  22.031  53.085  1.00  0.00     0.001 A 
HETATM   26  C   UNL     1       8.505  21.608  54.260  1.00  0.00     0.000 A 
HETATM   27  C   UNL     1       8.768  22.522  55.276  1.00  0.00     0.001 A 
HETATM   28  C   UNL     1       8.416  23.864  55.120  1.00  0.00     0.010 A 
ENDBRANCH   1  23
TORSDOF 7
ENDMDL
MODEL 6
REMARK VINA RESULT:      -7.5      2.187      4.554
REMARK  7 active torsions:
REMARK  status: ('A' for Active; 'I' for Inactive)
REMARK    1  A    between atoms: O_2  and  C_3 
REMARK    2  A    between atoms: C_6  and  C_7 
REMARK    3  A    between atoms: C_7  and  N_8 
REMARK    4  A    between atoms: N_8  and  C_11 
REMARK    5  A    between atoms: C_11  and  C_12 
REMARK    6  A    between atoms: C_11  and  C_20 
REMARK       I    between atoms: C_12  and  N_13 
REMARK    7  A    between atoms: N_13  and  C_14 
ROOT
HETATM    1  C   UNL     1       5.606  27.364  52.306  1.00  0.00     0.310 C 
ENDROOT
BRANCH   1   2
HETATM    2  N   UNL     1       4.517  26.354  52.618  1.00  0.00    -0.054 N 
HETATM    3  H   UNL     1       3.671  26.541  52.074  1.00  0.00     0.278 HD
HETATM    4  H   UNL     1       4.281  26.499  53.612  1.00  0.00     0.278 HD
BRANCH   2   5
HETATM    5  C   UNL     1       4.875  24.912  52.496  1.00  0.00     0.272 C 
BRANCH   5   6
HETATM    6  C   UNL     1       5.985  24.557  53.445  1.00  0.00    -0.033 A 
HETATM    7  C   UNL     1       7.169  23.972  52.973  1.00  0.00     0.011 A 
HETATM    8  C   UNL     1       8.195  23.627  53.859  1.00  0.00     0.037 A 
HETATM    9  C   UNL     1       8.048  23.852  55.226  1.00  0.00     0.068 A 
HETATM   10  C   UNL     1       6.864  24.420  55.700  1.00  0.00     0.037 A 
HETATM   11  C   UNL     1       5.839  24.775  54.821  1.00  0.00     0.011 A 
BRANCH   9  12
HETATM   12  O   UNL     1       8.970  23.562  56.192  1.00  0.00    -0.356 OA
HETATM   13  C   UNL     1       8.942  24.356  57.373  1.00  0.00     0.210 C 
ENDBRANCH   9  12
ENDBRANCH   5   6
ENDBRANCH   2   5
ENDBRANCH   1   2
BRANCH   1  14
HETATM   14  C   UNL     1       5.148  28.314  51.175  1.00  0.00     0.259 C 
HETATM   15  N   UNL     1       3.979  27.970  50.540  1.00  0.00    -0.304 N 
HETATM   16  H   UNL     1       3.435  27.151  50.784  1.00  0.00     0.171 HD
HETATM   17  O   UNL     1       5.839  29.316  50.974  1.00  0.00    -0.270 OA
BRANCH  15  18
HETATM   18  C   UNL     1       3.516  28.679  49.464  1.00  0.00     0.172 A 
HETATM   19  S   UNL     1       4.002  28.058  47.952  1.00  0.00    -0.062 SA
HETATM   20  C   UNL     1       3.161  29.344  47.183  1.00  0.00     0.072 A 
HETATM   21  C   UNL     1       2.574  30.146  48.140  1.00  0.00     0.126 A 
HETATM   22  N   UNL     1       2.789  29.762  49.452  1.00  0.00    -0.236 NA
ENDBRANCH  15  18
ENDBRANCH   1  14
BRANCH   1  23
HETATM   23  C   UNL     1       6.162  28.020  53.553  1.00  0.00    -0.019 A 
HETATM   24  C   UNL     1       7.537  27.918  53.830  1.00  0.00     0.010 A 
HETATM   25  C   UNL     1       8.073  28.488  54.985  1.00  0.00     0.001 A 
HETATM   26  C   UNL     1       7.246  29.160  55.881  1.00  0.00     0.000 A 
HETATM   27  C   UNL     1       5.881  29.263  55.626  1.00  0.00     0.001 A 
HETATM   28  C   UNL     1       5.339  28.693  54.473  1.00  0.00     0.010 A 
ENDBRANCH   1  23
TORSDOF 7
ENDMDL
MODEL 7
REMARK VINA RESULT:      -7.5      2.298      5.086
REMARK  7 active torsions:
REMARK  status: ('A' for Active; 'I' for Inactive)
REMARK    1  A    between atoms: O_2  and  C_3 
REMARK    2  A    between atoms: C_6  and  C_7 
REMARK    3  A    between atoms: C_7  and  N_8 
REMARK    4  A    between atoms: N_8  and  C_11 
REMARK    5  A    between atoms: C_11  and  C_12 
REMARK    6  A    between atoms: C_11  and  C_20 
REMARK       I    between atoms: C_12  and  N_13 
REMARK    7  A    between atoms: N_13  and  C_14 
ROOT
HETATM    1  C   UNL     1       6.495  26.880  52.330  1.00  0.00     0.310 C 
ENDROOT
BRANCH   1   2
HETATM    2  N   UNL     1       6.458  25.383  52.085  1.00  0.00    -0.054 N 
HETATM    3  H   UNL     1       5.952  25.161  51.224  1.00  0.00     0.278 HD
HETATM    4  H   UNL     1       5.916  24.987  52.870  1.00  0.00     0.278 HD
BRANCH   2   5
HETATM    5  C   UNL     1       7.763  24.662  52.093  1.00  0.00     0.272 C 
BRANCH   5   6
HETATM    6  C   UNL     1       7.764  23.574  53.129  1.00  0.00    -0.033 A 
HETATM    7  C   UNL     1       8.066  22.251  52.775  1.00  0.00     0.011 A 
HETATM    8  C   UNL     1       8.052  21.236  53.738  1.00  0.00     0.037 A 
HETATM    9  C   UNL     1       7.726  21.527  55.061  1.00  0.00     0.068 A 
HETATM   10  C   UNL     1       7.410  22.840  55.413  1.00  0.00     0.037 A 
HETATM   11  C   UNL     1       7.431  23.861  54.460  1.00  0.00     0.011 A 
BRANCH   9  12
HETATM   12  O   UNL     1       7.674  20.631  56.092  1.00  0.00    -0.356 OA
HETATM   13  C   UNL     1       8.487  20.905  57.229  1.00  0.00     0.210 C 
ENDBRANCH   9  12
ENDBRANCH   5   6
ENDBRANCH   2   5
ENDBRANCH   1   2
BRANCH   1  14
HETATM   14  C   UNL     1       5.463  27.596  51.430  1.00  0.00     0.259 C 
HETATM   15  N   UNL     1       5.281  27.057  50.178  1.00  0.00    -0.304 N 
HETATM   16  H   UNL     1       5.782  26.240  49.849  1.00  0.00     0.171 HD
HETATM   17  O   UNL     1       4.860  28.553  51.923  1.00  0.00    -0.270 OA
BRANCH  15  18
HETATM   18  C   UNL     1       4.463  27.651  49.256  1.00  0.00     0.172 A 
HETATM   19  S   UNL     1       5.288  28.404  47.967  1.00  0.00    -0.062 SA
HETATM   20  C   UNL     1       3.775  28.895  47.319  1.00  0.00     0.072 A 
HETATM   21  C   UNL     1       2.758  28.445  48.137  1.00  0.00     0.126 A 
HETATM   22  N   UNL     1       3.161  27.737  49.254  1.00  0.00    -0.236 NA
ENDBRANCH  15  18
ENDBRANCH   1  14
BRANCH   1  23
HETATM   23  C   UNL     1       6.457  27.227  53.804  1.00  0.00    -0.019 A 
HETATM   24  C   UNL     1       5.427  26.708  54.608  1.00  0.00     0.010 A 
HETATM   25  C   UNL     1       5.350  27.032  55.962  1.00  0.00     0.001 A 
HETATM   26  C   UNL     1       6.293  27.884  56.531  1.00  0.00     0.000 A 
HETATM   27  C   UNL     1       7.314  28.414  55.748  1.00  0.00     0.001 A 
HETATM   28  C   UNL     1       7.395  28.094  54.391  1.00  0.00     0.010 A 
ENDBRANCH   1  23
TORSDOF 7
ENDMDL
MODEL 8
REMARK VINA RESULT:      -7.4      3.326      6.572
REMARK  7 active torsions:
REMARK  status: ('A' for Active; 'I' for Inactive)
REMARK    1  A    between atoms: O_2  and  C_3 
REMARK    2  A    between atoms: C_6  and  C_7 
REMARK    3  A    between atoms: C_7  and  N_8 
REMARK    4  A    between atoms: N_8  and  C_11 
REMARK    5  A    between atoms: C_11  and  C_12 
REMARK    6  A    between atoms: C_11  and  C_20 
REMARK       I    between atoms: C_12  and  N_13 
REMARK    7  A    between atoms: N_13  and  C_14 
ROOT
HETATM    1  C   UNL     1       6.980  28.584  55.659  1.00  0.00     0.310 C 
ENDROOT
BRANCH   1   2
HETATM    2  N   UNL     1       6.798  27.096  55.895  1.00  0.00    -0.054 N 
HETATM    3  H   UNL     1       6.368  26.915  56.806  1.00  0.00     0.278 HD
HETATM    4  H   UNL     1       7.751  26.701  55.922  1.00  0.00     0.278 HD
BRANCH   2   5
HETATM    5  C   UNL     1       6.072  26.327  54.844  1.00  0.00     0.272 C 
BRANCH   5   6
HETATM    6  C   UNL     1       6.850  25.104  54.447  1.00  0.00    -0.033 A 
HETATM    7  C   UNL     1       7.253  24.914  53.117  1.00  0.00     0.011 A 
HETATM    8  C   UNL     1       7.963  23.767  52.745  1.00  0.00     0.037 A 
HETATM    9  C   UNL     1       8.271  22.793  53.693  1.00  0.00     0.068 A 
HETATM   10  C   UNL     1       7.857  22.972  55.014  1.00  0.00     0.037 A 
HETATM   11  C   UNL     1       7.155  24.118  55.395  1.00  0.00     0.011 A 
BRANCH   9  12
HETATM   12  O   UNL     1       8.955  21.633  53.461  1.00  0.00    -0.356 OA
HETATM   13  C   UNL     1       8.208  20.529  52.964  1.00  0.00     0.210 C 
ENDBRANCH   9  12
ENDBRANCH   5   6
ENDBRANCH   2   5
ENDBRANCH   1   2
BRANCH   1  14
HETATM   14  C   UNL     1       5.647  29.331  55.892  1.00  0.00     0.259 C 
HETATM   15  N   UNL     1       5.391  30.381  55.043  1.00  0.00    -0.304 N 
HETATM   16  H   UNL     1       6.023  30.662  54.303  1.00  0.00     0.171 HD
HETATM   17  O   UNL     1       4.911  28.896  56.781  1.00  0.00    -0.270 OA
BRANCH  15  18
HETATM   18  C   UNL     1       4.290  31.178  55.203  1.00  0.00     0.172 A 
HETATM   19  S   UNL     1       4.566  32.579  56.135  1.00  0.00    -0.062 SA
HETATM   20  C   UNL     1       2.912  33.001  55.943  1.00  0.00     0.072 A 
HETATM   21  C   UNL     1       2.278  32.040  55.182  1.00  0.00     0.126 A 
HETATM   22  N   UNL     1       3.075  30.989  54.766  1.00  0.00    -0.236 NA
ENDBRANCH  15  18
ENDBRANCH   1  14
BRANCH   1  23
HETATM   23  C   UNL     1       8.196  29.139  56.372  1.00  0.00    -0.019 A 
HETATM   24  C   UNL     1       8.081  29.547  57.713  1.00  0.00     0.010 A 
HETATM   25  C   UNL     1       9.176  30.088  58.387  1.00  0.00     0.001 A 
HETATM   26  C   UNL     1      10.396  30.237  57.733  1.00  0.00     0.000 A 
HETATM   27  C   UNL     1      10.524  29.846  56.403  1.00  0.00     0.001 A 
HETATM   28  C   UNL     1       9.432  29.305  55.723  1.00  0.00     0.010 A 
ENDBRANCH   1  23
TORSDOF 7
ENDMDL
MODEL 9
REMARK VINA RESULT:      -7.3      3.050      7.137
REMARK  7 active torsions:
REMARK  status: ('A' for Active; 'I' for Inactive)
REMARK    1  A    between atoms: O_2  and  C_3 
REMARK    2  A    between atoms: C_6  and  C_7 
REMARK    3  A    between atoms: C_7  and  N_8 
REMARK    4  A    between atoms: N_8  and  C_11 
REMARK    5  A    between atoms: C_11  and  C_12 
REMARK    6  A    between atoms: C_11  and  C_20 
REMARK       I    between atoms: C_12  and  N_13 
REMARK    7  A    between atoms: N_13  and  C_14 
ROOT
HETATM    1  C   UNL     1       5.946  27.721  54.976  1.00  0.00     0.310 C 
ENDROOT
BRANCH   1   2
HETATM    2  N   UNL     1       6.784  26.476  54.750  1.00  0.00    -0.054 N 
HETATM    3  H   UNL     1       7.054  26.045  55.638  1.00  0.00     0.278 HD
HETATM    4  H   UNL     1       7.650  26.804  54.293  1.00  0.00     0.278 HD
BRANCH   2   5
HETATM    5  C   UNL     1       6.221  25.434  53.845  1.00  0.00     0.272 C 
BRANCH   5   6
HETATM    6  C   UNL     1       6.910  24.115  54.058  1.00  0.00    -0.033 A 
HETATM    7  C   UNL     1       7.352  23.356  52.966  1.00  0.00     0.011 A 
HETATM    8  C   UNL     1       7.979  22.121  53.164  1.00  0.00     0.037 A 
HETATM    9  C   UNL     1       8.162  21.625  54.454  1.00  0.00     0.068 A 
HETATM   10  C   UNL     1       7.709  22.373  55.543  1.00  0.00     0.037 A 
HETATM   11  C   UNL     1       7.090  23.611  55.353  1.00  0.00     0.011 A 
BRANCH   9  12
HETATM   12  O   UNL     1       8.755  20.440  54.783  1.00  0.00    -0.356 OA
HETATM   13  C   UNL     1       9.303  20.330  56.092  1.00  0.00     0.210 C 
ENDBRANCH   9  12
ENDBRANCH   5   6
ENDBRANCH   2   5
ENDBRANCH   1   2
BRANCH   1  14
HETATM   14  C   UNL     1       6.767  28.791  55.730  1.00  0.00     0.259 C 
HETATM   15  N   UNL     1       8.013  28.400  56.159  1.00  0.00    -0.304 N 
HETATM   16  H   UNL     1       8.389  27.473  55.998  1.00  0.00     0.171 HD
HETATM   17  O   UNL     1       6.258  29.910  55.840  1.00  0.00    -0.270 OA
BRANCH  15  18
HETATM   18  C   UNL     1       8.800  29.226  56.915  1.00  0.00     0.172 A 
HETATM   19  S   UNL     1      10.234  29.732  56.143  1.00  0.00    -0.062 SA
HETATM   20  C   UNL     1      10.657  30.607  57.560  1.00  0.00     0.072 A 
HETATM   21  C   UNL     1       9.670  30.445  58.511  1.00  0.00     0.126 A 
HETATM   22  N   UNL     1       8.608  29.643  58.136  1.00  0.00    -0.236 NA
ENDBRANCH  15  18
ENDBRANCH   1  14
BRANCH   1  23
HETATM   23  C   UNL     1       5.238  28.179  53.717  1.00  0.00    -0.019 A 
HETATM   24  C   UNL     1       5.998  28.519  52.585  1.00  0.00     0.010 A 
HETATM   25  C   UNL     1       5.377  28.971  51.421  1.00  0.00     0.001 A 
HETATM   26  C   UNL     1       3.991  29.097  51.373  1.00  0.00     0.000 A 
HETATM   27  C   UNL     1       3.224  28.773  52.488  1.00  0.00     0.001 A 
HETATM   28  C   UNL     1       3.841  28.321  53.656  1.00  0.00     0.010 A 
ENDBRANCH   1  23
TORSDOF 7
ENDMDL
MODEL 10
REMARK VINA RESULT:      -7.3      2.815      5.479
REMARK  7 active torsions:
REMARK  status: ('A' for Active; 'I' for Inactive)
REMARK    1  A    between atoms: O_2  and  C_3 
REMARK    2  A    between atoms: C_6  and  C_7 
REMARK    3  A    between atoms: C_7  and  N_8 
REMARK    4  A    between atoms: N_8  and  C_11 
REMARK    5  A    between atoms: C_11  and  C_12 
REMARK    6  A    between atoms: C_11  and  C_20 
REMARK       I    between atoms: C_12  and  N_13 
REMARK    7  A    between atoms: N_13  and  C_14 
ROOT
HETATM    1  C   UNL     1       7.048  26.582  54.514  1.00  0.00     0.310 C 
ENDROOT
BRANCH   1   2
HETATM    2  N   UNL     1       7.044  27.441  55.766  1.00  0.00    -0.054 N 
HETATM    3  H   UNL     1       6.157  27.357  56.269  1.00  0.00     0.278 HD
HETATM    4  H   UNL     1       7.116  28.416  55.433  1.00  0.00     0.278 HD
BRANCH   2   5
HETATM    5  C   UNL     1       8.175  27.256  56.719  1.00  0.00     0.272 C 
BRANCH   5   6
HETATM    6  C   UNL     1       8.599  28.574  57.304  1.00  0.00    -0.033 A 
HETATM    7  C   UNL     1       9.830  29.147  56.954  1.00  0.00     0.011 A 
HETATM    8  C   UNL     1      10.231  30.366  57.511  1.00  0.00     0.037 A 
HETATM    9  C   UNL     1       9.414  31.022  58.431  1.00  0.00     0.068 A 
HETATM   10  C   UNL     1       8.195  30.445  58.792  1.00  0.00     0.037 A 
HETATM   11  C   UNL     1       7.784  29.233  58.234  1.00  0.00     0.011 A 
BRANCH   9  12
HETATM   12  O   UNL     1       9.688  32.211  59.046  1.00  0.00    -0.356 OA
HETATM   13  C   UNL     1       9.215  32.375  60.378  1.00  0.00     0.210 C 
ENDBRANCH   9  12
ENDBRANCH   5   6
ENDBRANCH   2   5
ENDBRANCH   1   2
BRANCH   1  14
HETATM   14  C   UNL     1       6.943  25.087  54.890  1.00  0.00     0.259 C 
HETATM   15  N   UNL     1       8.008  24.299  54.521  1.00  0.00    -0.304 N 
HETATM   16  H   UNL     1       8.820  24.658  54.033  1.00  0.00     0.171 HD
HETATM   17  O   UNL     1       5.945  24.739  55.526  1.00  0.00    -0.270 OA
BRANCH  15  18
HETATM   18  C   UNL     1       7.995  22.944  54.715  1.00  0.00     0.172 A 
HETATM   19  S   UNL     1       7.968  22.028  53.277  1.00  0.00    -0.062 SA
HETATM   20  C   UNL     1       7.933  20.594  54.222  1.00  0.00     0.072 A 
HETATM   21  C   UNL     1       7.945  20.926  55.562  1.00  0.00     0.126 A 
HETATM   22  N   UNL     1       7.973  22.281  55.838  1.00  0.00    -0.236 NA
ENDBRANCH  15  18
ENDBRANCH   1  14
BRANCH   1  23
HETATM   23  C   UNL     1       6.076  27.082  53.466  1.00  0.00    -0.019 A 
HETATM   24  C   UNL     1       6.210  26.642  52.137  1.00  0.00     0.010 A 
HETATM   25  C   UNL     1       5.348  27.106  51.144  1.00  0.00     0.001 A 
HETATM   26  C   UNL     1       4.347  28.021  51.459  1.00  0.00     0.000 A 
HETATM   27  C   UNL     1       4.205  28.474  52.768  1.00  0.00     0.001 A 
HETATM   28  C   UNL     1       5.066  28.013  53.766  1.00  0.00     0.010 A 
ENDBRANCH   1  23
TORSDOF 7
ENDMDL
