MODEL 1
REMARK VINA RESULT:      -9.0      0.000      0.000
REMARK  5 active torsions:
REMARK  status: ('A' for Active; 'I' for Inactive)
REMARK    1  A    between atoms: C_2  and  C_3 
REMARK    2  A    between atoms: C_6  and  C_7 
REMARK    3  A    between atoms: C_9  and  C_10 
REMARK    4  A    between atoms: C_10  and  N_11 
REMARK       I    between atoms: N_11  and  C_12 
REMARK       I    between atoms: C_12  and  N_13 
REMARK    5  A    between atoms: N_13  and  C_14 
ROOT
HETATM    1  N   UNL     1       6.348  25.198  56.786  1.00  0.00    -0.338 N 
HETATM    2  C   UNL     1       7.510  25.267  57.484  1.00  0.00     0.321 C 
HETATM    3  N   UNL     1       8.300  24.155  57.492  1.00  0.00    -0.308 N 
HETATM    4  O   UNL     1       7.837  26.249  58.147  1.00  0.00    -0.247 OA
HETATM    5  H   UNL     1       6.039  24.285  56.484  1.00  0.00     0.164 HD
HETATM    6  H   UNL     1       8.922  24.160  58.292  1.00  0.00     0.170 HD
ENDROOT
BRANCH   1   7
HETATM    7  C   UNL     1       5.436  26.307  56.669  1.00  0.00     0.167 C 
BRANCH   7   8
HETATM    8  C   UNL     1       5.663  26.983  55.372  1.00  0.00     0.018 A 
HETATM    9  C   UNL     1       5.387  26.507  54.059  1.00  0.00     0.072 A 
HETATM   10  N   UNL     1       5.753  27.396  53.129  1.00  0.00    -0.132 NA
HETATM   11  O   UNL     1       6.273  28.473  53.818  1.00  0.00    -0.217 OA
HETATM   12  C   UNL     1       6.218  28.227  55.154  1.00  0.00     0.088 A 
BRANCH   9  13
HETATM   13  C   UNL     1       4.775  25.213  53.640  1.00  0.00     0.058 C 
HETATM   14  C   UNL     1       4.868  24.986  52.138  1.00  0.00     0.011 C 
ENDBRANCH   9  13
BRANCH  12  15
HETATM   15  C   UNL     1       6.744  29.295  56.038  1.00  0.00     0.063 C 
HETATM   16  C   UNL     1       8.258  29.228  56.154  1.00  0.00     0.012 C 
ENDBRANCH  12  15
ENDBRANCH   7   8
ENDBRANCH   1   7
BRANCH   3  17
HETATM   17  C   UNL     1       8.263  22.973  56.719  1.00  0.00     0.047 A 
HETATM   18  C   UNL     1       8.165  22.923  55.296  1.00  0.00     0.001 A 
HETATM   19  C   UNL     1       8.024  21.652  54.678  1.00  0.00    -0.024 A 
HETATM   20  C   UNL     1       8.268  24.041  54.431  1.00  0.00     0.014 A 
HETATM   21  C   UNL     1       7.881  21.552  53.284  1.00  0.00     0.012 A 
HETATM   22  C   UNL     1       8.062  20.486  55.455  1.00  0.00     0.012 A 
HETATM   23  C   UNL     1       7.919  22.684  52.473  1.00  0.00     0.001 A 
HETATM   24  C   UNL     1       8.131  23.928  53.045  1.00  0.00     0.001 A 
HETATM   25  C   UNL     1       8.258  20.547  56.829  1.00  0.00     0.003 A 
HETATM   26  C   UNL     1       8.367  21.785  57.456  1.00  0.00     0.030 A 
ENDBRANCH   3  17
TORSDOF 5
ENDMDL
MODEL 2
REMARK VINA RESULT:      -8.9      0.414      2.558
REMARK  5 active torsions:
REMARK  status: ('A' for Active; 'I' for Inactive)
REMARK    1  A    between atoms: C_2  and  C_3 
REMARK    2  A    between atoms: C_6  and  C_7 
REMARK    3  A    between atoms: C_9  and  C_10 
REMARK    4  A    between atoms: C_10  and  N_11 
REMARK       I    between atoms: N_11  and  C_12 
REMARK       I    between atoms: C_12  and  N_13 
REMARK    5  A    between atoms: N_13  and  C_14 
ROOT
HETATM    1  N   UNL     1       6.336  25.112  56.787  1.00  0.00    -0.338 N 
HETATM    2  C   UNL     1       7.516  25.206  57.452  1.00  0.00     0.321 C 
HETATM    3  N   UNL     1       8.319  24.104  57.456  1.00  0.00    -0.308 N 
HETATM    4  O   UNL     1       7.848  26.202  58.091  1.00  0.00    -0.247 OA
HETATM    5  H   UNL     1       6.031  24.192  56.507  1.00  0.00     0.164 HD
HETATM    6  H   UNL     1       8.962  24.130  58.239  1.00  0.00     0.170 HD
ENDROOT
BRANCH   1   7
HETATM    7  C   UNL     1       5.408  26.208  56.677  1.00  0.00     0.167 C 
BRANCH   7   8
HETATM    8  C   UNL     1       5.609  26.882  55.375  1.00  0.00     0.018 A 
HETATM    9  C   UNL     1       6.099  28.194  55.117  1.00  0.00     0.072 A 
HETATM   10  N   UNL     1       6.118  28.460  53.806  1.00  0.00    -0.132 NA
HETATM   11  O   UNL     1       5.644  27.325  53.182  1.00  0.00    -0.217 OA
HETATM   12  C   UNL     1       5.342  26.385  54.116  1.00  0.00     0.088 A 
BRANCH   9  13
HETATM   13  C   UNL     1       6.561  29.229  56.085  1.00  0.00     0.058 C 
HETATM   14  C   UNL     1       8.079  29.313  56.167  1.00  0.00     0.011 C 
ENDBRANCH   9  13
BRANCH  12  15
HETATM   15  C   UNL     1       4.814  25.098  53.603  1.00  0.00     0.063 C 
HETATM   16  C   UNL     1       4.910  25.018  52.088  1.00  0.00     0.012 C 
ENDBRANCH  12  15
ENDBRANCH   7   8
ENDBRANCH   1   7
BRANCH   3  17
HETATM   17  C   UNL     1       8.276  22.910  56.703  1.00  0.00     0.047 A 
HETATM   18  C   UNL     1       8.185  22.837  55.281  1.00  0.00     0.001 A 
HETATM   19  C   UNL     1       8.037  21.557  54.683  1.00  0.00    -0.024 A 
HETATM   20  C   UNL     1       8.303  23.940  54.397  1.00  0.00     0.014 A 
HETATM   21  C   UNL     1       7.900  21.435  53.290  1.00  0.00     0.012 A 
HETATM   22  C   UNL     1       8.060  20.404  55.479  1.00  0.00     0.012 A 
HETATM   23  C   UNL     1       7.952  22.553  52.461  1.00  0.00     0.001 A 
HETATM   24  C   UNL     1       8.172  23.805  53.013  1.00  0.00     0.001 A 
HETATM   25  C   UNL     1       8.249  20.486  56.853  1.00  0.00     0.003 A 
HETATM   26  C   UNL     1       8.366  21.733  57.460  1.00  0.00     0.030 A 
ENDBRANCH   3  17
TORSDOF 5
ENDMDL
MODEL 3
REMARK VINA RESULT:      -8.8      1.867      3.468
REMARK  5 active torsions:
REMARK  status: ('A' for Active; 'I' for Inactive)
REMARK    1  A    between atoms: C_2  and  C_3 
REMARK    2  A    between atoms: C_6  and  C_7 
REMARK    3  A    between atoms: C_9  and  C_10 
REMARK    4  A    between atoms: C_10  and  N_11 
REMARK       I    between atoms: N_11  and  C_12 
REMARK       I    between atoms: C_12  and  N_13 
REMARK    5  A    between atoms: N_13  and  C_14 
ROOT
HETATM    1  N   UNL     1       7.530  26.691  54.196  1.00  0.00    -0.338 N 
HETATM    2  C   UNL     1       6.530  25.990  53.603  1.00  0.00     0.321 C 
HETATM    3  N   UNL     1       6.516  24.640  53.793  1.00  0.00    -0.308 N 
HETATM    4  O   UNL     1       5.696  26.507  52.863  1.00  0.00    -0.247 OA
HETATM    5  H   UNL     1       8.306  26.167  54.573  1.00  0.00     0.164 HD
HETATM    6  H   UNL     1       5.996  24.177  53.057  1.00  0.00     0.170 HD
ENDROOT
BRANCH   1   7
HETATM    7  C   UNL     1       7.646  28.123  54.103  1.00  0.00     0.167 C 
BRANCH   7   8
HETATM    8  C   UNL     1       7.648  28.698  55.467  1.00  0.00     0.018 A 
HETATM    9  C   UNL     1       6.575  28.782  56.399  1.00  0.00     0.072 A 
HETATM   10  N   UNL     1       6.954  29.393  57.528  1.00  0.00    -0.132 NA
HETATM   11  O   UNL     1       8.285  29.715  57.355  1.00  0.00    -0.217 OA
HETATM   12  C   UNL     1       8.698  29.300  56.129  1.00  0.00     0.088 A 
BRANCH   9  13
HETATM   13  C   UNL     1       5.172  28.297  56.261  1.00  0.00     0.058 C 
HETATM   14  C   UNL     1       4.991  26.884  56.796  1.00  0.00     0.011 C 
ENDBRANCH   9  13
BRANCH  12  15
HETATM   15  C   UNL     1      10.114  29.576  55.786  1.00  0.00     0.063 C 
HETATM   16  C   UNL     1      10.969  29.736  57.033  1.00  0.00     0.012 C 
ENDBRANCH  12  15
ENDBRANCH   7   8
ENDBRANCH   1   7
BRANCH   3  17
HETATM   17  C   UNL     1       7.227  23.813  54.690  1.00  0.00     0.047 A 
HETATM   18  C   UNL     1       7.750  22.521  54.381  1.00  0.00     0.001 A 
HETATM   19  C   UNL     1       8.342  21.768  55.430  1.00  0.00    -0.024 A 
HETATM   20  C   UNL     1       7.793  21.947  53.085  1.00  0.00     0.014 A 
HETATM   21  C   UNL     1       8.832  20.474  55.186  1.00  0.00     0.012 A 
HETATM   22  C   UNL     1       8.471  22.327  56.709  1.00  0.00     0.012 A 
HETATM   23  C   UNL     1       8.793  19.918  53.910  1.00  0.00     0.001 A 
HETATM   24  C   UNL     1       8.290  20.661  52.854  1.00  0.00     0.001 A 
HETATM   25  C   UNL     1       8.046  23.625  56.969  1.00  0.00     0.003 A 
HETATM   26  C   UNL     1       7.436  24.365  55.962  1.00  0.00     0.030 A 
ENDBRANCH   3  17
TORSDOF 5
ENDMDL
MODEL 4
REMARK VINA RESULT:      -8.8      1.907      4.035
REMARK  5 active torsions:
REMARK  status: ('A' for Active; 'I' for Inactive)
REMARK    1  A    between atoms: C_2  and  C_3 
REMARK    2  A    between atoms: C_6  and  C_7 
REMARK    3  A    between atoms: C_9  and  C_10 
REMARK    4  A    between atoms: C_10  and  N_11 
REMARK       I    between atoms: N_11  and  C_12 
REMARK       I    between atoms: C_12  and  N_13 
REMARK    5  A    between atoms: N_13  and  C_14 
ROOT
HETATM    1  N   UNL     1       7.556  26.699  54.193  1.00  0.00    -0.338 N 
HETATM    2  C   UNL     1       6.567  26.004  53.575  1.00  0.00     0.321 C 
HETATM    3  N   UNL     1       6.546  24.653  53.758  1.00  0.00    -0.308 N 
HETATM    4  O   UNL     1       5.750  26.527  52.819  1.00  0.00    -0.247 OA
HETATM    5  H   UNL     1       8.322  26.171  54.583  1.00  0.00     0.164 HD
HETATM    6  H   UNL     1       6.041  24.195  53.008  1.00  0.00     0.170 HD
ENDROOT
BRANCH   1   7
HETATM    7  C   UNL     1       7.678  28.132  54.109  1.00  0.00     0.167 C 
BRANCH   7   8
HETATM    8  C   UNL     1       7.630  28.701  55.475  1.00  0.00     0.018 A 
HETATM    9  C   UNL     1       8.675  29.317  56.220  1.00  0.00     0.072 A 
HETATM   10  N   UNL     1       8.256  29.688  57.435  1.00  0.00    -0.132 NA
HETATM   11  O   UNL     1       6.927  29.324  57.505  1.00  0.00    -0.217 OA
HETATM   12  C   UNL     1       6.554  28.737  56.338  1.00  0.00     0.088 A 
BRANCH   9  13
HETATM   13  C   UNL     1      10.087  29.575  55.818  1.00  0.00     0.058 C 
HETATM   14  C   UNL     1      11.020  29.691  57.014  1.00  0.00     0.011 C 
ENDBRANCH   9  13
BRANCH  12  15
HETATM   15  C   UNL     1       5.145  28.284  56.253  1.00  0.00     0.063 C 
HETATM   16  C   UNL     1       4.987  26.856  56.749  1.00  0.00     0.012 C 
ENDBRANCH  12  15
ENDBRANCH   7   8
ENDBRANCH   1   7
BRANCH   3  17
HETATM   17  C   UNL     1       7.235  23.819  54.666  1.00  0.00     0.047 A 
HETATM   18  C   UNL     1       7.745  22.520  54.366  1.00  0.00     0.001 A 
HETATM   19  C   UNL     1       8.315  21.762  55.424  1.00  0.00    -0.024 A 
HETATM   20  C   UNL     1       7.796  21.941  53.073  1.00  0.00     0.014 A 
HETATM   21  C   UNL     1       8.791  20.461  55.190  1.00  0.00     0.012 A 
HETATM   22  C   UNL     1       8.436  22.323  56.703  1.00  0.00     0.012 A 
HETATM   23  C   UNL     1       8.760  19.902  53.915  1.00  0.00     0.001 A 
HETATM   24  C   UNL     1       8.278  20.648  52.852  1.00  0.00     0.001 A 
HETATM   25  C   UNL     1       8.025  23.627  56.954  1.00  0.00     0.003 A 
HETATM   26  C   UNL     1       7.437  24.373  55.938  1.00  0.00     0.030 A 
ENDBRANCH   3  17
TORSDOF 5
ENDMDL
MODEL 5
REMARK VINA RESULT:      -8.5      1.995      4.109
REMARK  5 active torsions:
REMARK  status: ('A' for Active; 'I' for Inactive)
REMARK    1  A    between atoms: C_2  and  C_3 
REMARK    2  A    between atoms: C_6  and  C_7 
REMARK    3  A    between atoms: C_9  and  C_10 
REMARK    4  A    between atoms: C_10  and  N_11 
REMARK       I    between atoms: N_11  and  C_12 
REMARK       I    between atoms: C_12  and  N_13 
REMARK    5  A    between atoms: N_13  and  C_14 
ROOT
HETATM    1  N   UNL     1       8.152  26.594  56.571  1.00  0.00    -0.338 N 
HETATM    2  C   UNL     1       7.728  25.694  57.494  1.00  0.00     0.321 C 
HETATM    3  N   UNL     1       7.214  24.519  57.030  1.00  0.00    -0.308 N 
HETATM    4  O   UNL     1       7.727  25.922  58.702  1.00  0.00    -0.247 OA
HETATM    5  H   UNL     1       7.889  26.435  55.610  1.00  0.00     0.164 HD
HETATM    6  H   UNL     1       6.611  24.091  57.723  1.00  0.00     0.170 HD
ENDROOT
BRANCH   1   7
HETATM    7  C   UNL     1       8.743  27.860  56.923  1.00  0.00     0.167 C 
BRANCH   7   8
HETATM    8  C   UNL     1       7.680  28.889  56.980  1.00  0.00     0.018 A 
HETATM    9  C   UNL     1       7.447  29.872  57.984  1.00  0.00     0.072 A 
HETATM   10  N   UNL     1       6.370  30.614  57.699  1.00  0.00    -0.132 NA
HETATM   11  O   UNL     1       5.883  30.131  56.502  1.00  0.00    -0.217 OA
HETATM   12  C   UNL     1       6.664  29.106  56.073  1.00  0.00     0.088 A 
BRANCH   9  13
HETATM   13  C   UNL     1       8.219  30.143  59.229  1.00  0.00     0.058 C 
HETATM   14  C   UNL     1       9.158  31.331  59.084  1.00  0.00     0.011 C 
ENDBRANCH   9  13
BRANCH  12  15
HETATM   15  C   UNL     1       6.270  28.473  54.791  1.00  0.00     0.063 C 
HETATM   16  C   UNL     1       4.846  27.942  54.845  1.00  0.00     0.012 C 
ENDBRANCH  12  15
ENDBRANCH   7   8
ENDBRANCH   1   7
BRANCH   3  17
HETATM   17  C   UNL     1       7.231  23.931  55.747  1.00  0.00     0.047 A 
HETATM   18  C   UNL     1       7.755  22.639  55.440  1.00  0.00     0.001 A 
HETATM   19  C   UNL     1       7.801  22.240  54.078  1.00  0.00    -0.024 A 
HETATM   20  C   UNL     1       8.175  21.680  56.397  1.00  0.00     0.014 A 
HETATM   21  C   UNL     1       8.347  20.995  53.720  1.00  0.00     0.012 A 
HETATM   22  C   UNL     1       7.268  23.072  53.084  1.00  0.00     0.012 A 
HETATM   23  C   UNL     1       8.813  20.109  54.688  1.00  0.00     0.001 A 
HETATM   24  C   UNL     1       8.710  20.443  56.029  1.00  0.00     0.001 A 
HETATM   25  C   UNL     1       6.671  24.284  53.410  1.00  0.00     0.003 A 
HETATM   26  C   UNL     1       6.645  24.705  54.736  1.00  0.00     0.030 A 
ENDBRANCH   3  17
TORSDOF 5
ENDMDL
MODEL 6
REMARK VINA RESULT:      -8.4      2.007      3.319
REMARK  5 active torsions:
REMARK  status: ('A' for Active; 'I' for Inactive)
REMARK    1  A    between atoms: C_2  and  C_3 
REMARK    2  A    between atoms: C_6  and  C_7 
REMARK    3  A    between atoms: C_9  and  C_10 
REMARK    4  A    between atoms: C_10  and  N_11 
REMARK       I    between atoms: N_11  and  C_12 
REMARK       I    between atoms: C_12  and  N_13 
REMARK    5  A    between atoms: N_13  and  C_14 
ROOT
HETATM    1  N   UNL     1       8.154  26.628  56.552  1.00  0.00    -0.338 N 
HETATM    2  C   UNL     1       7.718  25.741  57.482  1.00  0.00     0.321 C 
HETATM    3  N   UNL     1       7.200  24.564  57.027  1.00  0.00    -0.308 N 
HETATM    4  O   UNL     1       7.712  25.981  58.687  1.00  0.00    -0.247 OA
HETATM    5  H   UNL     1       7.896  26.460  55.591  1.00  0.00     0.164 HD
HETATM    6  H   UNL     1       6.590  24.147  57.720  1.00  0.00     0.170 HD
ENDROOT
BRANCH   1   7
HETATM    7  C   UNL     1       8.752  27.893  56.894  1.00  0.00     0.167 C 
BRANCH   7   8
HETATM    8  C   UNL     1       7.685  28.913  57.015  1.00  0.00     0.018 A 
HETATM    9  C   UNL     1       6.609  29.186  56.124  1.00  0.00     0.072 A 
HETATM   10  N   UNL     1       5.858  30.204  56.562  1.00  0.00    -0.132 NA
HETATM   11  O   UNL     1       6.430  30.613  57.749  1.00  0.00    -0.217 OA
HETATM   12  C   UNL     1       7.516  29.843  58.020  1.00  0.00     0.088 A 
BRANCH   9  13
HETATM   13  C   UNL     1       6.253  28.505  54.846  1.00  0.00     0.058 C 
HETATM   14  C   UNL     1       4.824  27.981  54.845  1.00  0.00     0.011 C 
ENDBRANCH   9  13
BRANCH  12  15
HETATM   15  C   UNL     1       8.248  30.159  59.270  1.00  0.00     0.063 C 
HETATM   16  C   UNL     1       8.860  31.550  59.223  1.00  0.00     0.012 C 
ENDBRANCH  12  15
ENDBRANCH   7   8
ENDBRANCH   1   7
BRANCH   3  17
HETATM   17  C   UNL     1       7.220  23.963  55.750  1.00  0.00     0.047 A 
HETATM   18  C   UNL     1       7.753  22.671  55.457  1.00  0.00     0.001 A 
HETATM   19  C   UNL     1       7.801  22.257  54.099  1.00  0.00    -0.024 A 
HETATM   20  C   UNL     1       8.179  21.725  56.424  1.00  0.00     0.014 A 
HETATM   21  C   UNL     1       8.355  21.013  53.755  1.00  0.00     0.012 A 
HETATM   22  C   UNL     1       7.263  23.076  53.096  1.00  0.00     0.012 A 
HETATM   23  C   UNL     1       8.827  20.140  54.731  1.00  0.00     0.001 A 
HETATM   24  C   UNL     1       8.722  20.488  56.069  1.00  0.00     0.001 A 
HETATM   25  C   UNL     1       6.658  24.288  53.410  1.00  0.00     0.003 A 
HETATM   26  C   UNL     1       6.629  24.723  54.730  1.00  0.00     0.030 A 
ENDBRANCH   3  17
TORSDOF 5
ENDMDL
MODEL 7
REMARK VINA RESULT:      -8.3      2.031      6.402
REMARK  5 active torsions:
REMARK  status: ('A' for Active; 'I' for Inactive)
REMARK    1  A    between atoms: C_2  and  C_3 
REMARK    2  A    between atoms: C_6  and  C_7 
REMARK    3  A    between atoms: C_9  and  C_10 
REMARK    4  A    between atoms: C_10  and  N_11 
REMARK       I    between atoms: N_11  and  C_12 
REMARK       I    between atoms: C_12  and  N_13 
REMARK    5  A    between atoms: N_13  and  C_14 
ROOT
HETATM    1  N   UNL     1       6.398  26.050  54.537  1.00  0.00    -0.338 N 
HETATM    2  C   UNL     1       6.998  26.873  53.640  1.00  0.00     0.321 C 
HETATM    3  N   UNL     1       7.181  28.172  54.009  1.00  0.00    -0.308 N 
HETATM    4  O   UNL     1       7.314  26.513  52.507  1.00  0.00    -0.247 OA
HETATM    5  H   UNL     1       5.949  26.478  55.334  1.00  0.00     0.164 HD
HETATM    6  H   UNL     1       7.283  28.768  53.196  1.00  0.00     0.170 HD
ENDROOT
BRANCH   1   7
HETATM    7  C   UNL     1       6.172  24.650  54.289  1.00  0.00     0.167 C 
BRANCH   7   8
HETATM    8  C   UNL     1       7.278  23.868  54.886  1.00  0.00     0.018 A 
HETATM    9  C   UNL     1       8.058  22.834  54.295  1.00  0.00     0.072 A 
HETATM   10  N   UNL     1       8.956  22.345  55.158  1.00  0.00    -0.132 NA
HETATM   11  O   UNL     1       8.781  23.054  56.329  1.00  0.00    -0.217 OA
HETATM   12  C   UNL     1       7.784  23.962  56.166  1.00  0.00     0.088 A 
BRANCH   9  13
HETATM   13  C   UNL     1       7.985  22.277  52.914  1.00  0.00     0.058 C 
HETATM   14  C   UNL     1       7.989  20.755  52.900  1.00  0.00     0.011 C 
ENDBRANCH   9  13
BRANCH  12  15
HETATM   15  C   UNL     1       7.470  24.808  57.343  1.00  0.00     0.063 C 
HETATM   16  C   UNL     1       8.361  26.038  57.400  1.00  0.00     0.012 C 
ENDBRANCH  12  15
ENDBRANCH   7   8
ENDBRANCH   1   7
BRANCH   3  17
HETATM   17  C   UNL     1       7.068  28.816  55.261  1.00  0.00     0.047 A 
HETATM   18  C   UNL     1       8.164  29.259  56.061  1.00  0.00     0.001 A 
HETATM   19  C   UNL     1       7.884  29.786  57.350  1.00  0.00    -0.024 A 
HETATM   20  C   UNL     1       9.520  29.284  55.646  1.00  0.00     0.014 A 
HETATM   21  C   UNL     1       8.931  30.196  58.192  1.00  0.00     0.012 A 
HETATM   22  C   UNL     1       6.556  29.932  57.775  1.00  0.00     0.012 A 
HETATM   23  C   UNL     1      10.257  30.141  57.772  1.00  0.00     0.001 A 
HETATM   24  C   UNL     1      10.552  29.701  56.491  1.00  0.00     0.001 A 
HETATM   25  C   UNL     1       5.496  29.587  56.944  1.00  0.00     0.003 A 
HETATM   26  C   UNL     1       5.753  29.041  55.691  1.00  0.00     0.030 A 
ENDBRANCH   3  17
TORSDOF 5
ENDMDL
MODEL 8
REMARK VINA RESULT:      -8.1      2.633      4.729
REMARK  5 active torsions:
REMARK  status: ('A' for Active; 'I' for Inactive)
REMARK    1  A    between atoms: C_2  and  C_3 
REMARK    2  A    between atoms: C_6  and  C_7 
REMARK    3  A    between atoms: C_9  and  C_10 
REMARK    4  A    between atoms: C_10  and  N_11 
REMARK       I    between atoms: N_11  and  C_12 
REMARK       I    between atoms: C_12  and  N_13 
REMARK    5  A    between atoms: N_13  and  C_14 
ROOT
HETATM    1  N   UNL     1       6.241  28.549  55.857  1.00  0.00    -0.338 N 
HETATM    2  C   UNL     1       5.044  27.932  56.027  1.00  0.00     0.321 C 
HETATM    3  N   UNL     1       4.999  26.587  55.808  1.00  0.00    -0.308 N 
HETATM    4  O   UNL     1       4.010  28.538  56.299  1.00  0.00    -0.247 OA
HETATM    5  H   UNL     1       6.972  28.029  55.395  1.00  0.00     0.164 HD
HETATM    6  H   UNL     1       4.054  26.287  55.600  1.00  0.00     0.170 HD
ENDROOT
BRANCH   1   7
HETATM    7  C   UNL     1       6.437  29.958  56.084  1.00  0.00     0.167 C 
BRANCH   7   8
HETATM    8  C   UNL     1       7.155  30.145  57.365  1.00  0.00     0.018 A 
HETATM    9  C   UNL     1       6.770  30.917  58.497  1.00  0.00     0.072 A 
HETATM   10  N   UNL     1       7.694  30.863  59.464  1.00  0.00    -0.132 NA
HETATM   11  O   UNL     1       8.699  30.050  58.981  1.00  0.00    -0.217 OA
HETATM   12  C   UNL     1       8.378  29.622  57.732  1.00  0.00     0.088 A 
BRANCH   9  13
HETATM   13  C   UNL     1       5.534  31.723  58.707  1.00  0.00     0.058 C 
HETATM   14  C   UNL     1       5.638  32.644  59.914  1.00  0.00     0.011 C 
ENDBRANCH   9  13
BRANCH  12  15
HETATM   15  C   UNL     1       9.364  28.735  57.069  1.00  0.00     0.063 C 
HETATM   16  C   UNL     1      10.679  29.453  56.813  1.00  0.00     0.012 C 
ENDBRANCH  12  15
ENDBRANCH   7   8
ENDBRANCH   1   7
BRANCH   3  17
HETATM   17  C   UNL     1       6.024  25.629  55.645  1.00  0.00     0.047 A 
HETATM   18  C   UNL     1       6.599  25.243  54.397  1.00  0.00     0.001 A 
HETATM   19  C   UNL     1       7.542  24.181  54.392  1.00  0.00    -0.024 A 
HETATM   20  C   UNL     1       6.358  25.883  53.155  1.00  0.00     0.014 A 
HETATM   21  C   UNL     1       8.104  23.735  53.184  1.00  0.00     0.012 A 
HETATM   22  C   UNL     1       7.944  23.594  55.601  1.00  0.00     0.012 A 
HETATM   23  C   UNL     1       7.789  24.347  51.974  1.00  0.00     0.001 A 
HETATM   24  C   UNL     1       6.929  25.434  51.960  1.00  0.00     0.001 A 
HETATM   25  C   UNL     1       7.449  24.050  56.817  1.00  0.00     0.003 A 
HETATM   26  C   UNL     1       6.501  25.068  56.838  1.00  0.00     0.030 A 
ENDBRANCH   3  17
TORSDOF 5
ENDMDL
MODEL 9
REMARK VINA RESULT:      -7.8      4.800      9.013
REMARK  5 active torsions:
REMARK  status: ('A' for Active; 'I' for Inactive)
REMARK    1  A    between atoms: C_2  and  C_3 
REMARK    2  A    between atoms: C_6  and  C_7 
REMARK    3  A    between atoms: C_9  and  C_10 
REMARK    4  A    between atoms: C_10  and  N_11 
REMARK       I    between atoms: N_11  and  C_12 
REMARK       I    between atoms: C_12  and  N_13 
REMARK    5  A    between atoms: N_13  and  C_14 
ROOT
HETATM    1  N   UNL     1       5.809  30.892  57.787  1.00  0.00    -0.338 N 
HETATM    2  C   UNL     1       5.590  32.229  57.708  1.00  0.00     0.321 C 
HETATM    3  N   UNL     1       5.474  32.913  58.882  1.00  0.00    -0.308 N 
HETATM    4  O   UNL     1       5.429  32.820  56.642  1.00  0.00    -0.247 OA
HETATM    5  H   UNL     1       5.679  30.451  58.686  1.00  0.00     0.164 HD
HETATM    6  H   UNL     1       4.967  33.780  58.746  1.00  0.00     0.170 HD
ENDROOT
BRANCH   1   7
HETATM    7  C   UNL     1       5.982  30.055  56.628  1.00  0.00     0.167 C 
BRANCH   7   8
HETATM    8  C   UNL     1       6.738  28.843  57.015  1.00  0.00     0.018 A 
HETATM    9  C   UNL     1       8.100  28.734  57.416  1.00  0.00     0.072 A 
HETATM   10  N   UNL     1       8.435  27.463  57.667  1.00  0.00    -0.132 NA
HETATM   11  O   UNL     1       7.296  26.719  57.439  1.00  0.00    -0.217 OA
HETATM   12  C   UNL     1       6.285  27.541  57.053  1.00  0.00     0.088 A 
BRANCH   9  13
HETATM   13  C   UNL     1       9.121  29.809  57.573  1.00  0.00     0.058 C 
HETATM   14  C   UNL     1      10.406  29.505  56.817  1.00  0.00     0.011 C 
ENDBRANCH   9  13
BRANCH  12  15
HETATM   15  C   UNL     1       4.984  26.889  56.766  1.00  0.00     0.063 C 
HETATM   16  C   UNL     1       5.003  25.416  57.139  1.00  0.00     0.012 C 
ENDBRANCH  12  15
ENDBRANCH   7   8
ENDBRANCH   1   7
BRANCH   3  17
HETATM   17  C   UNL     1       5.760  32.543  60.214  1.00  0.00     0.047 A 
HETATM   18  C   UNL     1       7.057  32.232  60.722  1.00  0.00     0.001 A 
HETATM   19  C   UNL     1       7.161  31.767  62.059  1.00  0.00    -0.024 A 
HETATM   20  C   UNL     1       8.275  32.416  60.018  1.00  0.00     0.014 A 
HETATM   21  C   UNL     1       8.410  31.406  62.591  1.00  0.00     0.012 A 
HETATM   22  C   UNL     1       6.018  31.697  62.869  1.00  0.00     0.012 A 
HETATM   23  C   UNL     1       9.577  31.538  61.843  1.00  0.00     0.001 A 
HETATM   24  C   UNL     1       9.512  32.060  60.561  1.00  0.00     0.001 A 
HETATM   25  C   UNL     1       4.777  32.099  62.390  1.00  0.00     0.003 A 
HETATM   26  C   UNL     1       4.652  32.528  61.073  1.00  0.00     0.030 A 
ENDBRANCH   3  17
TORSDOF 5
ENDMDL
MODEL 10
REMARK VINA RESULT:      -7.8      4.750      8.705
REMARK  5 active torsions:
REMARK  status: ('A' for Active; 'I' for Inactive)
REMARK    1  A    between atoms: C_2  and  C_3 
REMARK    2  A    between atoms: C_6  and  C_7 
REMARK    3  A    between atoms: C_9  and  C_10 
REMARK    4  A    between atoms: C_10  and  N_11 
REMARK       I    between atoms: N_11  and  C_12 
REMARK       I    between atoms: C_12  and  N_13 
REMARK    5  A    between atoms: N_13  and  C_14 
ROOT
HETATM    1  N   UNL     1       5.832  30.869  57.745  1.00  0.00    -0.338 N 
HETATM    2  C   UNL     1       5.584  32.200  57.662  1.00  0.00     0.321 C 
HETATM    3  N   UNL     1       5.449  32.884  58.834  1.00  0.00    -0.308 N 
HETATM    4  O   UNL     1       5.414  32.786  56.595  1.00  0.00    -0.247 OA
HETATM    5  H   UNL     1       5.709  30.427  58.644  1.00  0.00     0.164 HD
HETATM    6  H   UNL     1       4.924  33.739  58.694  1.00  0.00     0.170 HD
ENDROOT
BRANCH   1   7
HETATM    7  C   UNL     1       6.027  30.033  56.588  1.00  0.00     0.167 C 
BRANCH   7   8
HETATM    8  C   UNL     1       6.863  28.872  56.967  1.00  0.00     0.018 A 
HETATM    9  C   UNL     1       6.484  27.505  57.095  1.00  0.00     0.072 A 
HETATM   10  N   UNL     1       7.516  26.745  57.481  1.00  0.00    -0.132 NA
HETATM   11  O   UNL     1       8.590  27.602  57.608  1.00  0.00    -0.217 OA
HETATM   12  C   UNL     1       8.202  28.867  57.300  1.00  0.00     0.088 A 
BRANCH   9  13
HETATM   13  C   UNL     1       5.153  26.876  56.863  1.00  0.00     0.058 C 
HETATM   14  C   UNL     1       5.217  25.355  56.888  1.00  0.00     0.011 C 
ENDBRANCH   9  13
BRANCH  12  15
HETATM   15  C   UNL     1       9.249  29.914  57.390  1.00  0.00     0.063 C 
HETATM   16  C   UNL     1      10.607  29.384  56.959  1.00  0.00     0.012 C 
ENDBRANCH  12  15
ENDBRANCH   7   8
ENDBRANCH   1   7
BRANCH   3  17
HETATM   17  C   UNL     1       5.739  32.524  60.168  1.00  0.00     0.047 A 
HETATM   18  C   UNL     1       7.037  32.218  60.675  1.00  0.00     0.001 A 
HETATM   19  C   UNL     1       7.145  31.762  62.016  1.00  0.00    -0.024 A 
HETATM   20  C   UNL     1       8.253  32.401  59.968  1.00  0.00     0.014 A 
HETATM   21  C   UNL     1       8.396  31.407  62.548  1.00  0.00     0.012 A 
HETATM   22  C   UNL     1       6.004  31.695  62.828  1.00  0.00     0.012 A 
HETATM   23  C   UNL     1       9.561  31.537  61.796  1.00  0.00     0.001 A 
HETATM   24  C   UNL     1       9.492  32.051  60.511  1.00  0.00     0.001 A 
HETATM   25  C   UNL     1       4.760  32.091  62.349  1.00  0.00     0.003 A 
HETATM   26  C   UNL     1       4.632  32.511  61.029  1.00  0.00     0.030 A 
ENDBRANCH   3  17
TORSDOF 5
ENDMDL
