MODEL 1
REMARK VINA RESULT:      -9.0      0.000      0.000
REMARK  4 active torsions:
REMARK  status: ('A' for Active; 'I' for Inactive)
REMARK    1  A    between atoms: C_2  and  C_3 
REMARK    2  A    between atoms: C_5  and  C_6 
REMARK       I    between atoms: C_6  and  N_7 
REMARK    3  A    between atoms: N_7  and  C_8 
REMARK    4  A    between atoms: C_10  and  C_11 
ROOT
HETATM    1  C   UNL     1       6.995  26.902  56.380  1.00  0.00     0.035 A 
HETATM    2  C   UNL     1       8.056  27.767  56.668  1.00  0.00     0.042 A 
HETATM    3  C   UNL     1       7.833  29.021  57.265  1.00  0.00    -0.021 A 
HETATM    4  C   UNL     1       6.518  29.405  57.552  1.00  0.00     0.012 A 
HETATM    5  C   UNL     1       5.451  28.554  57.261  1.00  0.00     0.003 A 
HETATM    6  C   UNL     1       5.691  27.308  56.681  1.00  0.00     0.029 A 
ENDROOT
BRANCH   1   7
HETATM    7  N   UNL     1       7.153  25.623  55.813  1.00  0.00    -0.321 N 
HETATM    8  C   UNL     1       7.424  25.289  54.498  1.00  0.00     0.280 C 
HETATM    9  O   UNL     1       7.518  26.081  53.566  1.00  0.00    -0.265 OA
HETATM   10  H   UNL     1       7.077  24.828  56.439  1.00  0.00     0.169 HD
BRANCH   8  11
HETATM   11  C   UNL     1       7.597  23.859  54.312  1.00  0.00     0.144 A 
HETATM   12  O   UNL     1       7.511  23.020  55.392  1.00  0.00    -0.309 OA
HETATM   13  C   UNL     1       7.747  21.754  54.944  1.00  0.00     0.059 A 
HETATM   14  C   UNL     1       7.970  21.758  53.579  1.00  0.00    -0.029 A 
HETATM   15  C   UNL     1       7.869  23.118  53.179  1.00  0.00     0.052 A 
HETATM   16  C   UNL     1       8.262  20.590  52.711  1.00  0.00     0.050 C 
BRANCH  13  17
HETATM   17  C   UNL     1       7.732  20.682  55.973  1.00  0.00     0.061 C 
HETATM   18  C   UNL     1       9.137  20.298  56.405  1.00  0.00     0.012 C 
ENDBRANCH  13  17
ENDBRANCH   8  11
ENDBRANCH   1   7
BRANCH   3  19
HETATM   19  C   UNL     1       8.941  29.909  57.588  1.00  0.00     0.010 A 
HETATM   20  C   UNL     1      10.247  30.000  57.046  1.00  0.00     0.152 A 
HETATM   21  N   UNL     1      10.976  30.973  57.601  1.00  0.00    -0.187 NA
HETATM   22  N   UNL     1      10.140  31.509  58.505  1.00  0.00    -0.289 N 
HETATM   23  H   UNL     1      10.473  32.285  59.068  1.00  0.00     0.188 HD
HETATM   24  C   UNL     1       8.913  30.915  58.532  1.00  0.00     0.123 A 
ENDBRANCH   3  19
TORSDOF 4
ENDMDL
MODEL 2
REMARK VINA RESULT:      -8.8      2.521      8.107
REMARK  4 active torsions:
REMARK  status: ('A' for Active; 'I' for Inactive)
REMARK    1  A    between atoms: C_2  and  C_3 
REMARK    2  A    between atoms: C_5  and  C_6 
REMARK       I    between atoms: C_6  and  N_7 
REMARK    3  A    between atoms: N_7  and  C_8 
REMARK    4  A    between atoms: C_10  and  C_11 
ROOT
HETATM    1  C   UNL     1       7.578  25.546  54.447  1.00  0.00     0.035 A 
HETATM    2  C   UNL     1       7.897  24.238  54.827  1.00  0.00     0.042 A 
HETATM    3  C   UNL     1       8.076  23.224  53.869  1.00  0.00    -0.021 A 
HETATM    4  C   UNL     1       7.910  23.540  52.515  1.00  0.00     0.012 A 
HETATM    5  C   UNL     1       7.582  24.839  52.126  1.00  0.00     0.003 A 
HETATM    6  C   UNL     1       7.422  25.837  53.088  1.00  0.00     0.029 A 
ENDROOT
BRANCH   1   7
HETATM    7  N   UNL     1       7.417  26.612  55.352  1.00  0.00    -0.321 N 
HETATM    8  C   UNL     1       7.893  26.724  56.647  1.00  0.00     0.280 C 
HETATM    9  O   UNL     1       8.507  25.857  57.258  1.00  0.00    -0.265 OA
HETATM   10  H   UNL     1       6.899  27.422  55.026  1.00  0.00     0.169 HD
BRANCH   8  11
HETATM   11  C   UNL     1       7.590  28.015  57.241  1.00  0.00     0.144 A 
HETATM   12  O   UNL     1       8.440  28.546  58.175  1.00  0.00    -0.309 OA
HETATM   13  C   UNL     1       7.903  29.730  58.587  1.00  0.00     0.059 A 
HETATM   14  C   UNL     1       6.719  29.983  57.918  1.00  0.00    -0.029 A 
HETATM   15  C   UNL     1       6.526  28.874  57.050  1.00  0.00     0.052 A 
HETATM   16  C   UNL     1       5.829  31.160  58.077  1.00  0.00     0.050 C 
BRANCH  13  17
HETATM   17  C   UNL     1       8.660  30.463  59.635  1.00  0.00     0.061 C 
HETATM   18  C   UNL     1       9.507  31.576  59.041  1.00  0.00     0.012 C 
ENDBRANCH  13  17
ENDBRANCH   8  11
ENDBRANCH   1   7
BRANCH   3  19
HETATM   19  C   UNL     1       8.434  21.869  54.265  1.00  0.00     0.010 A 
HETATM   20  C   UNL     1       8.405  20.652  53.540  1.00  0.00     0.152 A 
HETATM   21  N   UNL     1       8.837  19.609  54.255  1.00  0.00    -0.187 NA
HETATM   22  N   UNL     1       9.142  20.152  55.444  1.00  0.00    -0.289 N 
HETATM   23  H   UNL     1       9.500  19.545  56.174  1.00  0.00     0.188 HD
HETATM   24  C   UNL     1       8.926  21.498  55.499  1.00  0.00     0.123 A 
ENDBRANCH   3  19
TORSDOF 4
ENDMDL
MODEL 3
REMARK VINA RESULT:      -8.5      4.637      7.955
REMARK  4 active torsions:
REMARK  status: ('A' for Active; 'I' for Inactive)
REMARK    1  A    between atoms: C_2  and  C_3 
REMARK    2  A    between atoms: C_5  and  C_6 
REMARK       I    between atoms: C_6  and  N_7 
REMARK    3  A    between atoms: N_7  and  C_8 
REMARK    4  A    between atoms: C_10  and  C_11 
ROOT
HETATM    1  C   UNL     1       7.082  25.041  53.522  1.00  0.00     0.035 A 
HETATM    2  C   UNL     1       7.491  23.703  53.533  1.00  0.00     0.042 A 
HETATM    3  C   UNL     1       8.000  23.106  54.701  1.00  0.00    -0.021 A 
HETATM    4  C   UNL     1       8.111  23.883  55.860  1.00  0.00     0.012 A 
HETATM    5  C   UNL     1       7.715  25.220  55.858  1.00  0.00     0.003 A 
HETATM    6  C   UNL     1       7.199  25.793  54.695  1.00  0.00     0.029 A 
ENDROOT
BRANCH   1   7
HETATM    7  N   UNL     1       6.535  25.687  52.398  1.00  0.00    -0.321 N 
HETATM    8  C   UNL     1       5.316  25.466  51.783  1.00  0.00     0.280 C 
HETATM    9  O   UNL     1       4.507  24.597  52.094  1.00  0.00    -0.265 OA
HETATM   10  H   UNL     1       7.086  26.429  51.977  1.00  0.00     0.169 HD
BRANCH   8  11
HETATM   11  C   UNL     1       5.067  26.392  50.691  1.00  0.00     0.144 A 
HETATM   12  O   UNL     1       4.355  25.973  49.597  1.00  0.00    -0.309 OA
HETATM   13  C   UNL     1       4.303  27.017  48.723  1.00  0.00     0.059 A 
HETATM   14  C   UNL     1       4.960  28.118  49.243  1.00  0.00    -0.029 A 
HETATM   15  C   UNL     1       5.446  27.707  50.514  1.00  0.00     0.052 A 
HETATM   16  C   UNL     1       5.130  29.448  48.608  1.00  0.00     0.050 C 
BRANCH  13  17
HETATM   17  C   UNL     1       3.596  26.763  47.440  1.00  0.00     0.061 C 
HETATM   18  C   UNL     1       3.018  25.358  47.387  1.00  0.00     0.012 C 
ENDBRANCH  13  17
ENDBRANCH   8  11
ENDBRANCH   1   7
BRANCH   3  19
HETATM   19  C   UNL     1       8.401  21.706  54.718  1.00  0.00     0.010 A 
HETATM   20  C   UNL     1       8.512  20.759  53.670  1.00  0.00     0.152 A 
HETATM   21  N   UNL     1       8.939  19.564  54.090  1.00  0.00    -0.187 NA
HETATM   22  N   UNL     1       9.100  19.738  55.411  1.00  0.00    -0.289 N 
HETATM   23  H   UNL     1       9.426  18.953  55.965  1.00  0.00     0.188 HD
HETATM   24  C   UNL     1       8.799  21.000  55.834  1.00  0.00     0.123 A 
ENDBRANCH   3  19
TORSDOF 4
ENDMDL
MODEL 4
REMARK VINA RESULT:      -8.3      2.270      3.848
REMARK  4 active torsions:
REMARK  status: ('A' for Active; 'I' for Inactive)
REMARK    1  A    between atoms: C_2  and  C_3 
REMARK    2  A    between atoms: C_5  and  C_6 
REMARK       I    between atoms: C_6  and  N_7 
REMARK    3  A    between atoms: N_7  and  C_8 
REMARK    4  A    between atoms: C_10  and  C_11 
ROOT
HETATM    1  C   UNL     1       8.776  28.967  57.183  1.00  0.00     0.035 A 
HETATM    2  C   UNL     1       8.204  29.466  58.359  1.00  0.00     0.042 A 
HETATM    3  C   UNL     1       8.815  30.506  59.081  1.00  0.00    -0.021 A 
HETATM    4  C   UNL     1      10.027  31.029  58.613  1.00  0.00     0.012 A 
HETATM    5  C   UNL     1      10.611  30.533  57.448  1.00  0.00     0.003 A 
HETATM    6  C   UNL     1       9.985  29.509  56.735  1.00  0.00     0.029 A 
ENDROOT
BRANCH   1   7
HETATM    7  N   UNL     1       8.200  27.951  56.398  1.00  0.00    -0.321 N 
HETATM    8  C   UNL     1       7.927  26.640  56.747  1.00  0.00     0.280 C 
HETATM    9  O   UNL     1       8.205  26.115  57.821  1.00  0.00    -0.265 OA
HETATM   10  H   UNL     1       7.928  28.195  55.451  1.00  0.00     0.169 HD
BRANCH   8  11
HETATM   11  C   UNL     1       7.252  25.911  55.688  1.00  0.00     0.144 A 
HETATM   12  O   UNL     1       7.847  24.803  55.143  1.00  0.00    -0.309 OA
HETATM   13  C   UNL     1       7.023  24.342  54.158  1.00  0.00     0.059 A 
HETATM   14  C   UNL     1       5.890  25.129  54.067  1.00  0.00    -0.029 A 
HETATM   15  C   UNL     1       6.044  26.137  55.059  1.00  0.00     0.052 A 
HETATM   16  C   UNL     1       4.753  24.966  53.128  1.00  0.00     0.050 C 
BRANCH  13  17
HETATM   17  C   UNL     1       7.502  23.151  53.409  1.00  0.00     0.061 C 
HETATM   18  C   UNL     1       7.831  21.996  54.341  1.00  0.00     0.012 C 
ENDBRANCH  13  17
ENDBRANCH   8  11
ENDBRANCH   1   7
BRANCH   3  19
HETATM   19  C   UNL     1       8.206  31.043  60.290  1.00  0.00     0.010 A 
HETATM   20  C   UNL     1       7.039  31.824  60.474  1.00  0.00     0.152 A 
HETATM   21  N   UNL     1       6.796  32.104  61.758  1.00  0.00    -0.187 NA
HETATM   22  N   UNL     1       7.809  31.506  62.404  1.00  0.00    -0.289 N 
HETATM   23  H   UNL     1       7.846  31.579  63.415  1.00  0.00     0.188 HD
HETATM   24  C   UNL     1       8.674  30.854  61.575  1.00  0.00     0.123 A 
ENDBRANCH   3  19
TORSDOF 4
ENDMDL
MODEL 5
REMARK VINA RESULT:      -8.2      2.553      8.210
REMARK  4 active torsions:
REMARK  status: ('A' for Active; 'I' for Inactive)
REMARK    1  A    between atoms: C_2  and  C_3 
REMARK    2  A    between atoms: C_5  and  C_6 
REMARK       I    between atoms: C_6  and  N_7 
REMARK    3  A    between atoms: N_7  and  C_8 
REMARK    4  A    between atoms: C_10  and  C_11 
ROOT
HETATM    1  C   UNL     1       7.636  25.527  54.582  1.00  0.00     0.035 A 
HETATM    2  C   UNL     1       7.945  24.238  55.031  1.00  0.00     0.042 A 
HETATM    3  C   UNL     1       8.080  23.166  54.131  1.00  0.00    -0.021 A 
HETATM    4  C   UNL     1       7.880  23.404  52.765  1.00  0.00     0.012 A 
HETATM    5  C   UNL     1       7.563  24.683  52.308  1.00  0.00     0.003 A 
HETATM    6  C   UNL     1       7.446  25.739  53.213  1.00  0.00     0.029 A 
ENDROOT
BRANCH   1   7
HETATM    7  N   UNL     1       7.518  26.647  55.426  1.00  0.00    -0.321 N 
HETATM    8  C   UNL     1       6.435  27.041  56.192  1.00  0.00     0.280 C 
HETATM    9  O   UNL     1       5.341  26.487  56.218  1.00  0.00    -0.265 OA
HETATM   10  H   UNL     1       8.330  27.251  55.509  1.00  0.00     0.169 HD
BRANCH   8  11
HETATM   11  C   UNL     1       6.722  28.214  56.999  1.00  0.00     0.144 A 
HETATM   12  O   UNL     1       5.937  29.330  56.873  1.00  0.00    -0.309 OA
HETATM   13  C   UNL     1       6.445  30.281  57.709  1.00  0.00     0.059 A 
HETATM   14  C   UNL     1       7.544  29.789  58.390  1.00  0.00    -0.029 A 
HETATM   15  C   UNL     1       7.714  28.455  57.929  1.00  0.00     0.052 A 
HETATM   16  C   UNL     1       8.378  30.504  59.387  1.00  0.00     0.050 C 
BRANCH  13  17
HETATM   17  C   UNL     1       5.752  31.596  57.702  1.00  0.00     0.061 C 
HETATM   18  C   UNL     1       4.285  31.459  58.074  1.00  0.00     0.012 C 
ENDBRANCH  13  17
ENDBRANCH   8  11
ENDBRANCH   1   7
BRANCH   3  19
HETATM   19  C   UNL     1       8.427  21.831  54.596  1.00  0.00     0.010 A 
HETATM   20  C   UNL     1       8.637  21.329  55.904  1.00  0.00     0.152 A 
HETATM   21  N   UNL     1       8.923  20.023  55.923  1.00  0.00    -0.187 NA
HETATM   22  N   UNL     1       8.901  19.682  54.624  1.00  0.00    -0.289 N 
HETATM   23  H   UNL     1       9.094  18.718  54.376  1.00  0.00     0.188 HD
HETATM   24  C   UNL     1       8.605  20.723  53.793  1.00  0.00     0.123 A 
ENDBRANCH   3  19
TORSDOF 4
ENDMDL
MODEL 6
REMARK VINA RESULT:      -8.1      4.439      7.941
REMARK  4 active torsions:
REMARK  status: ('A' for Active; 'I' for Inactive)
REMARK    1  A    between atoms: C_2  and  C_3 
REMARK    2  A    between atoms: C_5  and  C_6 
REMARK       I    between atoms: C_6  and  N_7 
REMARK    3  A    between atoms: N_7  and  C_8 
REMARK    4  A    between atoms: C_10  and  C_11 
ROOT
HETATM    1  C   UNL     1       7.228  25.036  53.620  1.00  0.00     0.035 A 
HETATM    2  C   UNL     1       7.596  23.687  53.637  1.00  0.00     0.042 A 
HETATM    3  C   UNL     1       8.081  23.078  54.809  1.00  0.00    -0.021 A 
HETATM    4  C   UNL     1       8.210  23.855  55.967  1.00  0.00     0.012 A 
HETATM    5  C   UNL     1       7.855  25.204  55.959  1.00  0.00     0.003 A 
HETATM    6  C   UNL     1       7.362  25.789  54.792  1.00  0.00     0.029 A 
ENDROOT
BRANCH   1   7
HETATM    7  N   UNL     1       6.707  25.696  52.492  1.00  0.00    -0.321 N 
HETATM    8  C   UNL     1       5.384  25.951  52.175  1.00  0.00     0.280 C 
HETATM    9  O   UNL     1       4.411  25.579  52.823  1.00  0.00    -0.265 OA
HETATM   10  H   UNL     1       7.374  26.054  51.815  1.00  0.00     0.169 HD
BRANCH   8  11
HETATM   11  C   UNL     1       5.244  26.732  50.958  1.00  0.00     0.144 A 
HETATM   12  O   UNL     1       5.645  28.042  50.945  1.00  0.00    -0.309 OA
HETATM   13  C   UNL     1       5.369  28.539  49.706  1.00  0.00     0.059 A 
HETATM   14  C   UNL     1       4.807  27.561  48.905  1.00  0.00    -0.029 A 
HETATM   15  C   UNL     1       4.733  26.398  49.720  1.00  0.00     0.052 A 
HETATM   16  C   UNL     1       4.365  27.695  47.495  1.00  0.00     0.050 C 
BRANCH  13  17
HETATM   17  C   UNL     1       5.701  29.972  49.486  1.00  0.00     0.061 C 
HETATM   18  C   UNL     1       5.264  30.835  50.657  1.00  0.00     0.012 C 
ENDBRANCH  13  17
ENDBRANCH   8  11
ENDBRANCH   1   7
BRANCH   3  19
HETATM   19  C   UNL     1       8.440  21.667  54.832  1.00  0.00     0.010 A 
HETATM   20  C   UNL     1       8.575  20.726  53.781  1.00  0.00     0.152 A 
HETATM   21  N   UNL     1       8.945  19.516  54.210  1.00  0.00    -0.187 NA
HETATM   22  N   UNL     1       9.047  19.674  55.539  1.00  0.00    -0.289 N 
HETATM   23  H   UNL     1       9.322  18.875  56.100  1.00  0.00     0.188 HD
HETATM   24  C   UNL     1       8.762  20.940  55.959  1.00  0.00     0.123 A 
ENDBRANCH   3  19
TORSDOF 4
ENDMDL
MODEL 7
REMARK VINA RESULT:      -8.1      4.752     10.124
REMARK  4 active torsions:
REMARK  status: ('A' for Active; 'I' for Inactive)
REMARK    1  A    between atoms: C_2  and  C_3 
REMARK    2  A    between atoms: C_5  and  C_6 
REMARK       I    between atoms: C_6  and  N_7 
REMARK    3  A    between atoms: N_7  and  C_8 
REMARK    4  A    between atoms: C_10  and  C_11 
ROOT
HETATM    1  C   UNL     1       8.800  30.628  58.999  1.00  0.00     0.035 A 
HETATM    2  C   UNL     1       8.233  29.485  58.425  1.00  0.00     0.042 A 
HETATM    3  C   UNL     1       8.829  28.854  57.318  1.00  0.00    -0.021 A 
HETATM    4  C   UNL     1      10.000  29.402  56.780  1.00  0.00     0.012 A 
HETATM    5  C   UNL     1      10.569  30.546  57.339  1.00  0.00     0.003 A 
HETATM    6  C   UNL     1       9.973  31.152  58.446  1.00  0.00     0.029 A 
ENDROOT
BRANCH   1   7
HETATM    7  N   UNL     1       8.273  31.287  60.125  1.00  0.00    -0.321 N 
HETATM    8  C   UNL     1       8.595  31.109  61.459  1.00  0.00     0.280 C 
HETATM    9  O   UNL     1       9.382  30.277  61.898  1.00  0.00    -0.265 OA
HETATM   10  H   UNL     1       7.573  32.002  59.957  1.00  0.00     0.169 HD
BRANCH   8  11
HETATM   11  C   UNL     1       7.893  32.036  62.330  1.00  0.00     0.144 A 
HETATM   12  O   UNL     1       6.863  32.788  61.827  1.00  0.00    -0.309 OA
HETATM   13  C   UNL     1       6.413  33.586  62.837  1.00  0.00     0.059 A 
HETATM   14  C   UNL     1       7.129  33.351  63.997  1.00  0.00    -0.029 A 
HETATM   15  C   UNL     1       8.079  32.347  63.662  1.00  0.00     0.052 A 
HETATM   16  C   UNL     1       6.951  34.010  65.314  1.00  0.00     0.050 C 
BRANCH  13  17
HETATM   17  C   UNL     1       5.305  34.515  62.492  1.00  0.00     0.061 C 
HETATM   18  C   UNL     1       5.791  35.950  62.375  1.00  0.00     0.012 C 
ENDBRANCH  13  17
ENDBRANCH   8  11
ENDBRANCH   1   7
BRANCH   3  19
HETATM   19  C   UNL     1       8.252  27.650  56.737  1.00  0.00     0.010 A 
HETATM   20  C   UNL     1       8.173  26.325  57.232  1.00  0.00     0.152 A 
HETATM   21  N   UNL     1       7.538  25.493  56.401  1.00  0.00    -0.187 NA
HETATM   22  N   UNL     1       7.210  26.281  55.364  1.00  0.00    -0.289 N 
HETATM   23  H   UNL     1       6.708  25.868  54.585  1.00  0.00     0.188 HD
HETATM   24  C   UNL     1       7.607  27.577  55.519  1.00  0.00     0.123 A 
ENDBRANCH   3  19
TORSDOF 4
ENDMDL
MODEL 8
REMARK VINA RESULT:      -8.0      2.549      3.647
REMARK  4 active torsions:
REMARK  status: ('A' for Active; 'I' for Inactive)
REMARK    1  A    between atoms: C_2  and  C_3 
REMARK    2  A    between atoms: C_5  and  C_6 
REMARK       I    between atoms: C_6  and  N_7 
REMARK    3  A    between atoms: N_7  and  C_8 
REMARK    4  A    between atoms: C_10  and  C_11 
ROOT
HETATM    1  C   UNL     1       6.410  26.928  56.172  1.00  0.00     0.035 A 
HETATM    2  C   UNL     1       5.380  27.764  55.728  1.00  0.00     0.042 A 
HETATM    3  C   UNL     1       5.176  29.034  56.298  1.00  0.00    -0.021 A 
HETATM    4  C   UNL     1       6.015  29.447  57.340  1.00  0.00     0.012 A 
HETATM    5  C   UNL     1       7.039  28.617  57.797  1.00  0.00     0.003 A 
HETATM    6  C   UNL     1       7.237  27.366  57.212  1.00  0.00     0.029 A 
ENDROOT
BRANCH   1   7
HETATM    7  N   UNL     1       6.688  25.662  55.624  1.00  0.00    -0.321 N 
HETATM    8  C   UNL     1       7.246  25.357  54.395  1.00  0.00     0.280 C 
HETATM    9  O   UNL     1       7.549  26.170  53.528  1.00  0.00    -0.265 OA
HETATM   10  H   UNL     1       6.471  24.852  56.196  1.00  0.00     0.169 HD
BRANCH   8  11
HETATM   11  C   UNL     1       7.453  23.930  54.216  1.00  0.00     0.144 A 
HETATM   12  O   UNL     1       7.422  23.100  55.306  1.00  0.00    -0.309 OA
HETATM   13  C   UNL     1       7.678  21.837  54.862  1.00  0.00     0.059 A 
HETATM   14  C   UNL     1       7.860  21.833  53.491  1.00  0.00    -0.029 A 
HETATM   15  C   UNL     1       7.710  23.186  53.082  1.00  0.00     0.052 A 
HETATM   16  C   UNL     1       8.158  20.665  52.625  1.00  0.00     0.050 C 
BRANCH  13  17
HETATM   17  C   UNL     1       7.723  20.774  55.901  1.00  0.00     0.061 C 
HETATM   18  C   UNL     1       8.410  21.256  57.167  1.00  0.00     0.012 C 
ENDBRANCH  13  17
ENDBRANCH   8  11
ENDBRANCH   1   7
BRANCH   3  19
HETATM   19  C   UNL     1       4.120  29.914  55.818  1.00  0.00     0.010 A 
HETATM   20  C   UNL     1       3.272  30.813  56.512  1.00  0.00     0.152 A 
HETATM   21  N   UNL     1       2.432  31.467  55.704  1.00  0.00    -0.187 NA
HETATM   22  N   UNL     1       2.734  30.987  54.487  1.00  0.00    -0.289 N 
HETATM   23  H   UNL     1       2.218  31.340  53.688  1.00  0.00     0.188 HD
HETATM   24  C   UNL     1       3.738  30.063  54.500  1.00  0.00     0.123 A 
ENDBRANCH   3  19
TORSDOF 4
ENDMDL
MODEL 9
REMARK VINA RESULT:      -7.7      5.271      7.710
REMARK  4 active torsions:
REMARK  status: ('A' for Active; 'I' for Inactive)
REMARK    1  A    between atoms: C_2  and  C_3 
REMARK    2  A    between atoms: C_5  and  C_6 
REMARK       I    between atoms: C_6  and  N_7 
REMARK    3  A    between atoms: N_7  and  C_8 
REMARK    4  A    between atoms: C_10  and  C_11 
ROOT
HETATM    1  C   UNL     1       7.261  31.518  61.307  1.00  0.00     0.035 A 
HETATM    2  C   UNL     1       6.119  32.016  61.943  1.00  0.00     0.042 A 
HETATM    3  C   UNL     1       6.216  32.794  63.111  1.00  0.00    -0.021 A 
HETATM    4  C   UNL     1       7.485  33.050  63.645  1.00  0.00     0.012 A 
HETATM    5  C   UNL     1       8.630  32.551  63.024  1.00  0.00     0.003 A 
HETATM    6  C   UNL     1       8.517  31.792  61.858  1.00  0.00     0.029 A 
ENDROOT
BRANCH   1   7
HETATM    7  N   UNL     1       7.234  30.761  60.120  1.00  0.00    -0.321 N 
HETATM    8  C   UNL     1       7.033  31.198  58.823  1.00  0.00     0.280 C 
HETATM    9  O   UNL     1       6.779  32.351  58.489  1.00  0.00    -0.265 OA
HETATM   10  H   UNL     1       7.397  29.763  60.204  1.00  0.00     0.169 HD
BRANCH   8  11
HETATM   11  C   UNL     1       7.157  30.126  57.849  1.00  0.00     0.144 A 
HETATM   12  O   UNL     1       7.706  28.929  58.227  1.00  0.00    -0.309 OA
HETATM   13  C   UNL     1       7.733  28.128  57.124  1.00  0.00     0.059 A 
HETATM   14  C   UNL     1       7.192  28.787  56.034  1.00  0.00    -0.029 A 
HETATM   15  C   UNL     1       6.820  30.073  56.511  1.00  0.00     0.052 A 
HETATM   16  C   UNL     1       7.038  28.267  54.653  1.00  0.00     0.050 C 
BRANCH  13  17
HETATM   17  C   UNL     1       8.327  26.779  57.309  1.00  0.00     0.061 C 
HETATM   18  C   UNL     1       7.258  25.715  57.494  1.00  0.00     0.012 C 
ENDBRANCH  13  17
ENDBRANCH   8  11
ENDBRANCH   1   7
BRANCH   3  19
HETATM   19  C   UNL     1       5.029  33.333  63.758  1.00  0.00     0.010 A 
HETATM   20  C   UNL     1       3.765  33.693  63.228  1.00  0.00     0.152 A 
HETATM   21  N   UNL     1       2.915  34.137  64.160  1.00  0.00    -0.187 NA
HETATM   22  N   UNL     1       3.633  34.067  65.292  1.00  0.00    -0.289 N 
HETATM   23  H   UNL     1       3.194  34.358  66.159  1.00  0.00     0.188 HD
HETATM   24  C   UNL     1       4.897  33.588  65.107  1.00  0.00     0.123 A 
ENDBRANCH   3  19
TORSDOF 4
ENDMDL
MODEL 10
REMARK VINA RESULT:      -7.7      5.590      8.467
REMARK  4 active torsions:
REMARK  status: ('A' for Active; 'I' for Inactive)
REMARK    1  A    between atoms: C_2  and  C_3 
REMARK    2  A    between atoms: C_5  and  C_6 
REMARK       I    between atoms: C_6  and  N_7 
REMARK    3  A    between atoms: N_7  and  C_8 
REMARK    4  A    between atoms: C_10  and  C_11 
ROOT
HETATM    1  C   UNL     1       7.005  32.312  61.699  1.00  0.00     0.035 A 
HETATM    2  C   UNL     1       6.106  33.371  61.868  1.00  0.00     0.042 A 
HETATM    3  C   UNL     1       6.133  34.173  63.023  1.00  0.00    -0.021 A 
HETATM    4  C   UNL     1       7.070  33.882  64.022  1.00  0.00     0.012 A 
HETATM    5  C   UNL     1       7.965  32.823  63.869  1.00  0.00     0.003 A 
HETATM    6  C   UNL     1       7.934  32.045  62.710  1.00  0.00     0.029 A 
ENDROOT
BRANCH   1   7
HETATM    7  N   UNL     1       7.051  31.493  60.555  1.00  0.00    -0.321 N 
HETATM    8  C   UNL     1       7.876  31.601  59.449  1.00  0.00     0.280 C 
HETATM    9  O   UNL     1       8.692  32.495  59.253  1.00  0.00    -0.265 OA
HETATM   10  H   UNL     1       6.414  30.704  60.525  1.00  0.00     0.169 HD
BRANCH   8  11
HETATM   11  C   UNL     1       7.683  30.516  58.503  1.00  0.00     0.144 A 
HETATM   12  O   UNL     1       6.725  30.629  57.530  1.00  0.00    -0.309 OA
HETATM   13  C   UNL     1       6.734  29.468  56.814  1.00  0.00     0.059 A 
HETATM   14  C   UNL     1       7.699  28.606  57.302  1.00  0.00    -0.029 A 
HETATM   15  C   UNL     1       8.309  29.291  58.389  1.00  0.00     0.052 A 
HETATM   16  C   UNL     1       8.028  27.248  56.803  1.00  0.00     0.050 C 
BRANCH  13  17
HETATM   17  C   UNL     1       5.736  29.368  55.717  1.00  0.00     0.061 C 
HETATM   18  C   UNL     1       4.540  28.522  56.120  1.00  0.00     0.012 C 
ENDBRANCH  13  17
ENDBRANCH   8  11
ENDBRANCH   1   7
BRANCH   3  19
HETATM   19  C   UNL     1       5.215  35.290  63.186  1.00  0.00     0.010 A 
HETATM   20  C   UNL     1       5.361  36.665  62.878  1.00  0.00     0.152 A 
HETATM   21  N   UNL     1       4.269  37.382  63.159  1.00  0.00    -0.187 NA
HETATM   22  N   UNL     1       3.416  36.470  63.651  1.00  0.00    -0.289 N 
HETATM   23  H   UNL     1       2.495  36.778  63.943  1.00  0.00     0.188 HD
HETATM   24  C   UNL     1       3.930  35.206  63.683  1.00  0.00     0.123 A 
ENDBRANCH   3  19
TORSDOF 4
ENDMDL
