MODEL 1
REMARK VINA RESULT:     -10.4      0.000      0.000
REMARK  8 active torsions:
REMARK  status: ('A' for Active; 'I' for Inactive)
REMARK    1  A    between atoms: C_4  and  S_5 
REMARK    2  A    between atoms: S_5  and  C_6 
REMARK    3  A    between atoms: C_6  and  C_7 
REMARK       I    between atoms: C_7  and  N_8 
REMARK    4  A    between atoms: N_8  and  C_9 
REMARK    5  A    between atoms: C_20  and  C_21 
REMARK    6  A    between atoms: C_27  and  C_28 
REMARK       I    between atoms: C_28  and  N_29 
REMARK    7  A    between atoms: N_29  and  C_30 
REMARK    8  A    between atoms: C_31  and  O_32 
ROOT
HETATM    1  C   UNL     1       3.828  30.765  57.940  1.00  0.00     0.069 C 
HETATM    2  C   UNL     1       5.260  30.990  58.352  1.00  0.00     0.019 C 
HETATM    3  N   UNL     1       6.126  29.921  58.157  1.00  0.00    -0.353 N 
HETATM    4  C   UNL     1       7.508  30.047  58.132  1.00  0.00     0.088 C 
HETATM    5  C   UNL     1       8.079  31.184  58.602  1.00  0.00     0.069 C 
HETATM    6  C   UNL     1       9.472  31.461  58.482  1.00  0.00     0.099 C 
HETATM    7  N   UNL     1      10.606  31.688  58.383  1.00  0.00    -0.192 NA
HETATM    8  C   UNL     1       7.208  32.263  59.257  1.00  0.00     0.106 C 
HETATM    9  C   UNL     1       5.743  32.142  58.871  1.00  0.00     0.046 C 
HETATM   10  H   UNL     1       5.772  29.141  57.609  1.00  0.00     0.166 HD
ENDROOT
BRANCH   4  11
HETATM   11  S   UNL     1       8.465  28.762  57.417  1.00  0.00    -0.102 SA
BRANCH  11  12
HETATM   12  C   UNL     1       7.137  27.577  56.994  1.00  0.00     0.184 C 
BRANCH  12  13
HETATM   13  C   UNL     1       7.692  26.202  56.641  1.00  0.00     0.231 C 
HETATM   14  N   UNL     1       7.073  25.606  55.556  1.00  0.00    -0.327 N 
HETATM   15  H   UNL     1       6.254  26.091  55.202  1.00  0.00     0.169 HD
HETATM   16  O   UNL     1       8.655  25.753  57.259  1.00  0.00    -0.272 OA
BRANCH  14  17
HETATM   17  C   UNL     1       7.375  24.368  54.957  1.00  0.00     0.034 A 
HETATM   18  C   UNL     1       7.385  23.152  55.643  1.00  0.00     0.031 A 
HETATM   19  C   UNL     1       7.688  21.961  54.972  1.00  0.00     0.026 A 
HETATM   20  C   UNL     1       7.982  21.985  53.612  1.00  0.00     0.034 A 
HETATM   21 CL   UNL     1       8.346  20.520  52.787  1.00  0.00    -0.084 Cl
HETATM   22  C   UNL     1       7.981  23.190  52.916  1.00  0.00     0.026 A 
HETATM   23  C   UNL     1       7.681  24.379  53.589  1.00  0.00     0.031 A 
ENDBRANCH  14  17
ENDBRANCH  12  13
ENDBRANCH  11  12
ENDBRANCH   4  11
BRANCH   8  24
HETATM   24  C   UNL     1       7.445  32.251  60.775  1.00  0.00    -0.044 A 
HETATM   25  C   UNL     1       7.191  33.409  61.530  1.00  0.00     0.008 A 
HETATM   26  C   UNL     1       7.418  33.429  62.907  1.00  0.00     0.001 A 
HETATM   27  C   UNL     1       7.905  32.296  63.552  1.00  0.00     0.000 A 
HETATM   28  C   UNL     1       8.178  31.145  62.819  1.00  0.00     0.001 A 
HETATM   29  C   UNL     1       7.962  31.125  61.439  1.00  0.00     0.008 A 
ENDBRANCH   8  24
BRANCH   9  30
HETATM   30  C   UNL     1       4.892  33.360  58.919  1.00  0.00     0.255 C 
HETATM   31  N   UNL     1       3.897  33.296  59.854  1.00  0.00    -0.321 N 
HETATM   32  H   UNL     1       2.956  33.304  59.472  1.00  0.00     0.169 HD
HETATM   33  O   UNL     1       4.987  34.241  58.074  1.00  0.00    -0.268 OA
BRANCH  31  34
HETATM   34  C   UNL     1       3.927  34.031  61.070  1.00  0.00     0.068 A 
HETATM   35  C   UNL     1       3.741  33.322  62.269  1.00  0.00     0.095 A 
HETATM   36  C   UNL     1       3.892  33.972  63.497  1.00  0.00     0.039 A 
HETATM   37  C   UNL     1       4.165  35.339  63.533  1.00  0.00     0.003 A 
HETATM   38  C   UNL     1       4.272  36.060  62.346  1.00  0.00     0.002 A 
HETATM   39  C   UNL     1       4.149  35.410  61.117  1.00  0.00     0.032 A 
BRANCH  35  40
HETATM   40  O   UNL     1       3.466  31.979  62.166  1.00  0.00    -0.354 OA
HETATM   41  C   UNL     1       4.461  31.156  62.774  1.00  0.00     0.210 C 
ENDBRANCH  35  40
ENDBRANCH  31  34
ENDBRANCH   9  30
TORSDOF 8
ENDMDL
MODEL 2
REMARK VINA RESULT:     -10.4      4.043     10.872
REMARK  8 active torsions:
REMARK  status: ('A' for Active; 'I' for Inactive)
REMARK    1  A    between atoms: C_4  and  S_5 
REMARK    2  A    between atoms: S_5  and  C_6 
REMARK    3  A    between atoms: C_6  and  C_7 
REMARK       I    between atoms: C_7  and  N_8 
REMARK    4  A    between atoms: N_8  and  C_9 
REMARK    5  A    between atoms: C_20  and  C_21 
REMARK    6  A    between atoms: C_27  and  C_28 
REMARK       I    between atoms: C_28  and  N_29 
REMARK    7  A    between atoms: N_29  and  C_30 
REMARK    8  A    between atoms: C_31  and  O_32 
ROOT
HETATM    1  C   UNL     1       5.216  25.056  57.361  1.00  0.00     0.069 C 
HETATM    2  C   UNL     1       5.973  26.145  56.646  1.00  0.00     0.019 C 
HETATM    3  N   UNL     1       6.224  27.298  57.379  1.00  0.00    -0.353 N 
HETATM    4  C   UNL     1       7.188  28.234  57.032  1.00  0.00     0.088 C 
HETATM    5  C   UNL     1       7.720  28.208  55.785  1.00  0.00     0.069 C 
HETATM    6  C   UNL     1       8.814  29.031  55.389  1.00  0.00     0.099 C 
HETATM    7  N   UNL     1       9.707  29.700  55.067  1.00  0.00    -0.192 NA
HETATM    8  C   UNL     1       7.175  27.226  54.742  1.00  0.00     0.106 C 
HETATM    9  C   UNL     1       6.423  26.065  55.372  1.00  0.00     0.046 C 
HETATM   10  H   UNL     1       6.029  27.256  58.377  1.00  0.00     0.166 HD
ENDROOT
BRANCH   4  11
HETATM   11  S   UNL     1       7.745  29.370  58.249  1.00  0.00    -0.102 SA
BRANCH  11  12
HETATM   12  C   UNL     1       6.699  30.813  57.836  1.00  0.00     0.184 C 
BRANCH  12  13
HETATM   13  C   UNL     1       6.553  31.766  59.016  1.00  0.00     0.231 C 
HETATM   14  N   UNL     1       6.857  31.198  60.241  1.00  0.00    -0.327 N 
HETATM   15  H   UNL     1       7.021  30.196  60.227  1.00  0.00     0.169 HD
HETATM   16  O   UNL     1       6.259  32.943  58.819  1.00  0.00    -0.272 OA
BRANCH  14  17
HETATM   17  C   UNL     1       6.861  31.815  61.507  1.00  0.00     0.034 A 
HETATM   18  C   UNL     1       5.705  32.191  62.195  1.00  0.00     0.031 A 
HETATM   19  C   UNL     1       5.794  32.793  63.456  1.00  0.00     0.026 A 
HETATM   20  C   UNL     1       7.041  33.021  64.030  1.00  0.00     0.034 A 
HETATM   21 CL   UNL     1       7.148  33.754  65.583  1.00  0.00    -0.084 Cl
HETATM   22  C   UNL     1       8.201  32.656  63.354  1.00  0.00     0.026 A 
HETATM   23  C   UNL     1       8.110  32.058  62.093  1.00  0.00     0.031 A 
ENDBRANCH  14  17
ENDBRANCH  12  13
ENDBRANCH  11  12
ENDBRANCH   4  11
BRANCH   8  24
HETATM   24  C   UNL     1       6.348  28.000  53.704  1.00  0.00    -0.044 A 
HETATM   25  C   UNL     1       5.373  28.918  54.132  1.00  0.00     0.008 A 
HETATM   26  C   UNL     1       4.596  29.618  53.207  1.00  0.00     0.001 A 
HETATM   27  C   UNL     1       4.775  29.411  51.843  1.00  0.00     0.000 A 
HETATM   28  C   UNL     1       5.723  28.493  51.401  1.00  0.00     0.001 A 
HETATM   29  C   UNL     1       6.496  27.783  52.323  1.00  0.00     0.008 A 
ENDBRANCH   8  24
BRANCH   9  30
HETATM   30  C   UNL     1       6.336  24.784  54.624  1.00  0.00     0.255 C 
HETATM   31  N   UNL     1       7.521  24.106  54.557  1.00  0.00    -0.321 N 
HETATM   32  H   UNL     1       7.902  24.010  53.621  1.00  0.00     0.169 HD
HETATM   33  O   UNL     1       5.333  24.479  53.991  1.00  0.00    -0.268 OA
BRANCH  31  34
HETATM   34  C   UNL     1       7.784  22.927  55.305  1.00  0.00     0.068 A 
HETATM   35  C   UNL     1       7.829  21.707  54.611  1.00  0.00     0.095 A 
HETATM   36  C   UNL     1       8.213  20.537  55.273  1.00  0.00     0.039 A 
HETATM   37  C   UNL     1       8.490  20.570  56.641  1.00  0.00     0.003 A 
HETATM   38  C   UNL     1       8.370  21.764  57.348  1.00  0.00     0.002 A 
HETATM   39  C   UNL     1       8.013  22.940  56.684  1.00  0.00     0.032 A 
BRANCH  35  40
HETATM   40  O   UNL     1       7.537  21.739  53.268  1.00  0.00    -0.354 OA
HETATM   41  C   UNL     1       8.122  20.658  52.542  1.00  0.00     0.210 C 
ENDBRANCH  35  40
ENDBRANCH  31  34
ENDBRANCH   9  30
TORSDOF 8
ENDMDL
MODEL 3
REMARK VINA RESULT:     -10.2      1.165      1.690
REMARK  8 active torsions:
REMARK  status: ('A' for Active; 'I' for Inactive)
REMARK    1  A    between atoms: C_4  and  S_5 
REMARK    2  A    between atoms: S_5  and  C_6 
REMARK    3  A    between atoms: C_6  and  C_7 
REMARK       I    between atoms: C_7  and  N_8 
REMARK    4  A    between atoms: N_8  and  C_9 
REMARK    5  A    between atoms: C_20  and  C_21 
REMARK    6  A    between atoms: C_27  and  C_28 
REMARK       I    between atoms: C_28  and  N_29 
REMARK    7  A    between atoms: N_29  and  C_30 
REMARK    8  A    between atoms: C_31  and  O_32 
ROOT
HETATM    1  C   UNL     1       3.802  30.440  57.733  1.00  0.00     0.069 C 
HETATM    2  C   UNL     1       5.236  30.684  58.127  1.00  0.00     0.019 C 
HETATM    3  N   UNL     1       6.105  29.612  57.967  1.00  0.00    -0.353 N 
HETATM    4  C   UNL     1       7.486  29.742  57.929  1.00  0.00     0.088 C 
HETATM    5  C   UNL     1       8.056  30.897  58.354  1.00  0.00     0.069 C 
HETATM    6  C   UNL     1       9.447  31.174  58.215  1.00  0.00     0.099 C 
HETATM    7  N   UNL     1      10.580  31.401  58.101  1.00  0.00    -0.192 NA
HETATM    8  C   UNL     1       7.185  31.996  58.974  1.00  0.00     0.106 C 
HETATM    9  C   UNL     1       5.719  31.856  58.601  1.00  0.00     0.046 C 
HETATM   10  H   UNL     1       5.751  28.811  57.449  1.00  0.00     0.166 HD
ENDROOT
BRANCH   4  11
HETATM   11  S   UNL     1       8.443  28.434  57.255  1.00  0.00    -0.102 SA
BRANCH  11  12
HETATM   12  C   UNL     1       7.290  27.037  57.506  1.00  0.00     0.184 C 
BRANCH  12  13
HETATM   13  C   UNL     1       7.864  25.725  56.983  1.00  0.00     0.231 C 
HETATM   14  N   UNL     1       7.169  25.193  55.912  1.00  0.00    -0.327 N 
HETATM   15  H   UNL     1       6.301  25.666  55.678  1.00  0.00     0.169 HD
HETATM   16  O   UNL     1       8.898  25.273  57.469  1.00  0.00    -0.272 OA
BRANCH  14  17
HETATM   17  C   UNL     1       7.461  24.025  55.181  1.00  0.00     0.034 A 
HETATM   18  C   UNL     1       7.590  22.758  55.754  1.00  0.00     0.031 A 
HETATM   19  C   UNL     1       7.875  21.644  54.956  1.00  0.00     0.026 A 
HETATM   20  C   UNL     1       8.031  21.795  53.581  1.00  0.00     0.034 A 
HETATM   21 CL   UNL     1       8.374  20.424  52.601  1.00  0.00    -0.084 Cl
HETATM   22  C   UNL     1       7.911  23.052  52.997  1.00  0.00     0.026 A 
HETATM   23  C   UNL     1       7.630  24.165  53.796  1.00  0.00     0.031 A 
ENDBRANCH  14  17
ENDBRANCH  12  13
ENDBRANCH  11  12
ENDBRANCH   4  11
BRANCH   8  24
HETATM   24  C   UNL     1       7.431  32.040  60.489  1.00  0.00    -0.044 A 
HETATM   25  C   UNL     1       7.095  33.195  61.218  1.00  0.00     0.008 A 
HETATM   26  C   UNL     1       7.327  33.266  62.592  1.00  0.00     0.001 A 
HETATM   27  C   UNL     1       7.902  32.190  63.261  1.00  0.00     0.000 A 
HETATM   28  C   UNL     1       8.257  31.045  62.555  1.00  0.00     0.001 A 
HETATM   29  C   UNL     1       8.036  30.974  61.178  1.00  0.00     0.008 A 
ENDBRANCH   8  24
BRANCH   9  30
HETATM   30  C   UNL     1       4.864  33.072  58.610  1.00  0.00     0.255 C 
HETATM   31  N   UNL     1       3.617  32.862  59.131  1.00  0.00    -0.321 N 
HETATM   32  H   UNL     1       2.856  32.983  58.469  1.00  0.00     0.169 HD
HETATM   33  O   UNL     1       5.207  34.100  58.040  1.00  0.00    -0.268 OA
BRANCH  31  34
HETATM   34  C   UNL     1       3.221  33.337  60.410  1.00  0.00     0.068 A 
HETATM   35  C   UNL     1       2.202  34.303  60.464  1.00  0.00     0.095 A 
HETATM   36  C   UNL     1       1.684  34.707  61.698  1.00  0.00     0.039 A 
HETATM   37  C   UNL     1       2.221  34.196  62.880  1.00  0.00     0.003 A 
HETATM   38  C   UNL     1       3.284  33.297  62.831  1.00  0.00     0.002 A 
HETATM   39  C   UNL     1       3.787  32.871  61.600  1.00  0.00     0.032 A 
BRANCH  35  40
HETATM   40  O   UNL     1       1.721  34.773  59.265  1.00  0.00    -0.354 OA
HETATM   41  C   UNL     1       1.682  36.198  59.198  1.00  0.00     0.210 C 
ENDBRANCH  35  40
ENDBRANCH  31  34
ENDBRANCH   9  30
TORSDOF 8
ENDMDL
MODEL 4
REMARK VINA RESULT:      -9.8      4.892     10.378
REMARK  8 active torsions:
REMARK  status: ('A' for Active; 'I' for Inactive)
REMARK    1  A    between atoms: C_4  and  S_5 
REMARK    2  A    between atoms: S_5  and  C_6 
REMARK    3  A    between atoms: C_6  and  C_7 
REMARK       I    between atoms: C_7  and  N_8 
REMARK    4  A    between atoms: N_8  and  C_9 
REMARK    5  A    between atoms: C_20  and  C_21 
REMARK    6  A    between atoms: C_27  and  C_28 
REMARK       I    between atoms: C_28  and  N_29 
REMARK    7  A    between atoms: N_29  and  C_30 
REMARK    8  A    between atoms: C_31  and  O_32 
ROOT
HETATM    1  C   UNL     1       6.512  31.633  62.223  1.00  0.00     0.069 C 
HETATM    2  C   UNL     1       5.792  32.324  61.094  1.00  0.00     0.019 C 
HETATM    3  N   UNL     1       4.603  32.961  61.427  1.00  0.00    -0.353 N 
HETATM    4  C   UNL     1       4.001  33.927  60.634  1.00  0.00     0.088 C 
HETATM    5  C   UNL     1       4.400  34.071  59.345  1.00  0.00     0.069 C 
HETATM    6  C   UNL     1       3.945  35.127  58.504  1.00  0.00     0.099 C 
HETATM    7  N   UNL     1       3.577  35.989  57.818  1.00  0.00    -0.192 NA
HETATM    8  C   UNL     1       5.422  33.096  58.748  1.00  0.00     0.106 C 
HETATM    9  C   UNL     1       6.228  32.373  59.815  1.00  0.00     0.046 C 
HETATM   10  H   UNL     1       4.396  33.053  62.419  1.00  0.00     0.166 HD
ENDROOT
BRANCH   4  11
HETATM   11  S   UNL     1       2.800  34.986  61.350  1.00  0.00    -0.102 SA
BRANCH  11  12
HETATM   12  C   UNL     1       2.525  34.124  62.939  1.00  0.00     0.184 C 
BRANCH  12  13
HETATM   13  C   UNL     1       3.368  34.718  64.062  1.00  0.00     0.231 C 
HETATM   14  N   UNL     1       3.917  33.775  64.914  1.00  0.00    -0.327 N 
HETATM   15  H   UNL     1       3.602  32.820  64.768  1.00  0.00     0.169 HD
HETATM   16  O   UNL     1       3.564  35.930  64.106  1.00  0.00    -0.272 OA
BRANCH  14  17
HETATM   17  C   UNL     1       4.768  33.991  66.014  1.00  0.00     0.034 A 
HETATM   18  C   UNL     1       4.318  34.217  67.317  1.00  0.00     0.031 A 
HETATM   19  C   UNL     1       5.232  34.416  68.359  1.00  0.00     0.026 A 
HETATM   20  C   UNL     1       6.599  34.387  68.100  1.00  0.00     0.034 A 
HETATM   21 CL   UNL     1       7.719  34.624  69.383  1.00  0.00    -0.084 Cl
HETATM   22  C   UNL     1       7.062  34.168  66.806  1.00  0.00     0.026 A 
HETATM   23  C   UNL     1       6.148  33.974  65.766  1.00  0.00     0.031 A 
ENDBRANCH  14  17
ENDBRANCH  12  13
ENDBRANCH  11  12
ENDBRANCH   4  11
BRANCH   8  24
HETATM   24  C   UNL     1       4.707  32.148  57.774  1.00  0.00    -0.044 A 
HETATM   25  C   UNL     1       4.992  32.216  56.398  1.00  0.00     0.008 A 
HETATM   26  C   UNL     1       4.340  31.380  55.491  1.00  0.00     0.001 A 
HETATM   27  C   UNL     1       3.391  30.466  55.939  1.00  0.00     0.000 A 
HETATM   28  C   UNL     1       3.083  30.396  57.294  1.00  0.00     0.001 A 
HETATM   29  C   UNL     1       3.726  31.238  58.204  1.00  0.00     0.008 A 
ENDBRANCH   8  24
BRANCH   9  30
HETATM   30  C   UNL     1       7.581  31.866  59.462  1.00  0.00     0.255 C 
HETATM   31  N   UNL     1       7.664  30.502  59.433  1.00  0.00    -0.321 N 
HETATM   32  H   UNL     1       8.282  30.101  60.133  1.00  0.00     0.169 HD
HETATM   33  O   UNL     1       8.545  32.616  59.384  1.00  0.00    -0.268 OA
BRANCH  31  34
HETATM   34  C   UNL     1       7.756  29.755  58.228  1.00  0.00     0.068 A 
HETATM   35  C   UNL     1       9.029  29.584  57.658  1.00  0.00     0.095 A 
HETATM   36  C   UNL     1       9.193  28.751  56.548  1.00  0.00     0.039 A 
HETATM   37  C   UNL     1       8.083  28.137  55.967  1.00  0.00     0.003 A 
HETATM   38  C   UNL     1       6.810  28.368  56.483  1.00  0.00     0.002 A 
HETATM   39  C   UNL     1       6.645  29.178  57.607  1.00  0.00     0.032 A 
BRANCH  35  40
HETATM   40  O   UNL     1      10.081  30.222  58.272  1.00  0.00    -0.354 OA
HETATM   41  C   UNL     1      11.276  30.206  57.492  1.00  0.00     0.210 C 
ENDBRANCH  35  40
ENDBRANCH  31  34
ENDBRANCH   9  30
TORSDOF 8
ENDMDL
MODEL 5
REMARK VINA RESULT:      -9.5      1.706      2.242
REMARK  8 active torsions:
REMARK  status: ('A' for Active; 'I' for Inactive)
REMARK    1  A    between atoms: C_4  and  S_5 
REMARK    2  A    between atoms: S_5  and  C_6 
REMARK    3  A    between atoms: C_6  and  C_7 
REMARK       I    between atoms: C_7  and  N_8 
REMARK    4  A    between atoms: N_8  and  C_9 
REMARK    5  A    between atoms: C_20  and  C_21 
REMARK    6  A    between atoms: C_27  and  C_28 
REMARK       I    between atoms: C_28  and  N_29 
REMARK    7  A    between atoms: N_29  and  C_30 
REMARK    8  A    between atoms: C_31  and  O_32 
ROOT
HETATM    1  C   UNL     1       3.476  31.568  57.426  1.00  0.00     0.069 C 
HETATM    2  C   UNL     1       4.726  31.749  58.249  1.00  0.00     0.019 C 
HETATM    3  N   UNL     1       5.570  30.649  58.328  1.00  0.00    -0.353 N 
HETATM    4  C   UNL     1       6.899  30.727  58.720  1.00  0.00     0.088 C 
HETATM    5  C   UNL     1       7.344  31.851  59.335  1.00  0.00     0.069 C 
HETATM    6  C   UNL     1       8.718  32.078  59.639  1.00  0.00     0.099 C 
HETATM    7  N   UNL     1       9.837  32.265  59.885  1.00  0.00    -0.192 NA
HETATM    8  C   UNL     1       6.358  32.968  59.694  1.00  0.00     0.106 C 
HETATM    9  C   UNL     1       5.073  32.892  58.885  1.00  0.00     0.046 C 
HETATM   10  H   UNL     1       5.369  29.873  57.701  1.00  0.00     0.166 HD
ENDROOT
BRANCH   4  11
HETATM   11  S   UNL     1       7.978  29.399  58.330  1.00  0.00    -0.102 SA
BRANCH  11  12
HETATM   12  C   UNL     1       7.987  29.523  56.506  1.00  0.00     0.184 C 
BRANCH  12  13
HETATM   13  C   UNL     1       7.881  28.155  55.842  1.00  0.00     0.231 C 
HETATM   14  N   UNL     1       7.937  27.093  56.727  1.00  0.00    -0.327 N 
HETATM   15  H   UNL     1       8.161  27.338  57.687  1.00  0.00     0.169 HD
HETATM   16  O   UNL     1       7.688  28.076  54.630  1.00  0.00    -0.272 OA
BRANCH  14  17
HETATM   17  C   UNL     1       7.828  25.719  56.441  1.00  0.00     0.034 A 
HETATM   18  C   UNL     1       7.025  25.194  55.426  1.00  0.00     0.031 A 
HETATM   19  C   UNL     1       6.978  23.813  55.201  1.00  0.00     0.026 A 
HETATM   20  C   UNL     1       7.735  22.954  55.991  1.00  0.00     0.034 A 
HETATM   21 CL   UNL     1       7.682  21.258  55.707  1.00  0.00    -0.084 Cl
HETATM   22  C   UNL     1       8.536  23.461  57.009  1.00  0.00     0.026 A 
HETATM   23  C   UNL     1       8.579  24.841  57.235  1.00  0.00     0.031 A 
ENDBRANCH  14  17
ENDBRANCH  12  13
ENDBRANCH  11  12
ENDBRANCH   4  11
BRANCH   8  24
HETATM   24  C   UNL     1       6.126  32.970  61.212  1.00  0.00    -0.044 A 
HETATM   25  C   UNL     1       5.357  31.952  61.802  1.00  0.00     0.008 A 
HETATM   26  C   UNL     1       5.116  31.944  63.177  1.00  0.00     0.001 A 
HETATM   27  C   UNL     1       5.635  32.952  63.984  1.00  0.00     0.000 A 
HETATM   28  C   UNL     1       6.385  33.977  63.416  1.00  0.00     0.001 A 
HETATM   29  C   UNL     1       6.619  33.994  62.039  1.00  0.00     0.008 A 
ENDBRANCH   8  24
BRANCH   9  30
HETATM   30  C   UNL     1       4.293  34.139  58.670  1.00  0.00     0.255 C 
HETATM   31  N   UNL     1       3.408  34.412  59.676  1.00  0.00    -0.321 N 
HETATM   32  H   UNL     1       2.431  34.387  59.399  1.00  0.00     0.169 HD
HETATM   33  O   UNL     1       4.333  34.744  57.607  1.00  0.00    -0.268 OA
BRANCH  31  34
HETATM   34  C   UNL     1       3.611  35.447  60.628  1.00  0.00     0.068 A 
HETATM   35  C   UNL     1       3.072  35.270  61.913  1.00  0.00     0.095 A 
HETATM   36  C   UNL     1       3.353  36.193  62.924  1.00  0.00     0.039 A 
HETATM   37  C   UNL     1       4.118  37.325  62.640  1.00  0.00     0.003 A 
HETATM   38  C   UNL     1       4.588  37.543  61.347  1.00  0.00     0.002 A 
HETATM   39  C   UNL     1       4.332  36.609  60.341  1.00  0.00     0.032 A 
BRANCH  35  40
HETATM   40  O   UNL     1       2.320  34.139  62.128  1.00  0.00    -0.354 OA
HETATM   41  C   UNL     1       2.025  33.916  63.506  1.00  0.00     0.210 C 
ENDBRANCH  35  40
ENDBRANCH  31  34
ENDBRANCH   9  30
TORSDOF 8
ENDMDL
MODEL 6
REMARK VINA RESULT:      -9.3      2.007      3.890
REMARK  8 active torsions:
REMARK  status: ('A' for Active; 'I' for Inactive)
REMARK    1  A    between atoms: C_4  and  S_5 
REMARK    2  A    between atoms: S_5  and  C_6 
REMARK    3  A    between atoms: C_6  and  C_7 
REMARK       I    between atoms: C_7  and  N_8 
REMARK    4  A    between atoms: N_8  and  C_9 
REMARK    5  A    between atoms: C_20  and  C_21 
REMARK    6  A    between atoms: C_27  and  C_28 
REMARK       I    between atoms: C_28  and  N_29 
REMARK    7  A    between atoms: N_29  and  C_30 
REMARK    8  A    between atoms: C_31  and  O_32 
ROOT
HETATM    1  C   UNL     1       8.360  32.007  60.904  1.00  0.00     0.069 C 
HETATM    2  C   UNL     1       7.087  31.961  60.098  1.00  0.00     0.019 C 
HETATM    3  N   UNL     1       7.211  31.527  58.784  1.00  0.00    -0.353 N 
HETATM    4  C   UNL     1       6.143  31.082  58.018  1.00  0.00     0.088 C 
HETATM    5  C   UNL     1       4.877  31.342  58.431  1.00  0.00     0.069 C 
HETATM    6  C   UNL     1       3.725  30.801  57.789  1.00  0.00     0.099 C 
HETATM    7  N   UNL     1       2.786  30.359  57.269  1.00  0.00    -0.192 NA
HETATM    8  C   UNL     1       4.641  32.216  59.667  1.00  0.00     0.106 C 
HETATM    9  C   UNL     1       5.863  32.294  60.567  1.00  0.00     0.046 C 
HETATM   10  H   UNL     1       8.107  31.121  58.520  1.00  0.00     0.166 HD
ENDROOT
BRANCH   4  11
HETATM   11  S   UNL     1       6.468  30.127  56.582  1.00  0.00    -0.102 SA
BRANCH  11  12
HETATM   12  C   UNL     1       6.531  28.455  57.322  1.00  0.00     0.184 C 
BRANCH  12  13
HETATM   13  C   UNL     1       6.326  27.363  56.279  1.00  0.00     0.231 C 
HETATM   14  N   UNL     1       7.369  26.457  56.200  1.00  0.00    -0.327 N 
HETATM   15  H   UNL     1       8.190  26.689  56.751  1.00  0.00     0.169 HD
HETATM   16  O   UNL     1       5.272  27.307  55.650  1.00  0.00    -0.272 OA
BRANCH  14  17
HETATM   17  C   UNL     1       7.469  25.319  55.376  1.00  0.00     0.034 A 
HETATM   18  C   UNL     1       7.621  25.371  53.989  1.00  0.00     0.031 A 
HETATM   19  C   UNL     1       7.722  24.192  53.241  1.00  0.00     0.026 A 
HETATM   20  C   UNL     1       7.671  22.957  53.880  1.00  0.00     0.034 A 
HETATM   21 CL   UNL     1       7.802  21.510  52.960  1.00  0.00    -0.084 Cl
HETATM   22  C   UNL     1       7.514  22.889  55.261  1.00  0.00     0.026 A 
HETATM   23  C   UNL     1       7.410  24.068  56.006  1.00  0.00     0.031 A 
ENDBRANCH  14  17
ENDBRANCH  12  13
ENDBRANCH  11  12
ENDBRANCH   4  11
BRANCH   8  24
HETATM   24  C   UNL     1       4.118  33.590  59.222  1.00  0.00    -0.044 A 
HETATM   25  C   UNL     1       2.966  34.127  59.824  1.00  0.00     0.008 A 
HETATM   26  C   UNL     1       2.461  35.365  59.422  1.00  0.00     0.001 A 
HETATM   27  C   UNL     1       3.093  36.084  58.413  1.00  0.00     0.000 A 
HETATM   28  C   UNL     1       4.224  35.561  57.793  1.00  0.00     0.001 A 
HETATM   29  C   UNL     1       4.727  34.318  58.186  1.00  0.00     0.008 A 
ENDBRANCH   8  24
BRANCH   9  30
HETATM   30  C   UNL     1       5.665  32.583  62.012  1.00  0.00     0.255 C 
HETATM   31  N   UNL     1       6.345  33.685  62.449  1.00  0.00    -0.321 N 
HETATM   32  H   UNL     1       7.069  33.491  63.135  1.00  0.00     0.169 HD
HETATM   33  O   UNL     1       5.087  31.794  62.749  1.00  0.00    -0.268 OA
BRANCH  31  34
HETATM   34  C   UNL     1       5.709  34.917  62.758  1.00  0.00     0.068 A 
HETATM   35  C   UNL     1       5.426  35.188  64.107  1.00  0.00     0.095 A 
HETATM   36  C   UNL     1       4.922  36.438  64.480  1.00  0.00     0.039 A 
HETATM   37  C   UNL     1       4.642  37.395  63.504  1.00  0.00     0.003 A 
HETATM   38  C   UNL     1       4.849  37.100  62.158  1.00  0.00     0.002 A 
HETATM   39  C   UNL     1       5.377  35.863  61.784  1.00  0.00     0.032 A 
BRANCH  35  40
HETATM   40  O   UNL     1       5.716  34.202  65.019  1.00  0.00    -0.354 OA
HETATM   41  C   UNL     1       4.609  33.871  65.857  1.00  0.00     0.210 C 
ENDBRANCH  35  40
ENDBRANCH  31  34
ENDBRANCH   9  30
TORSDOF 8
ENDMDL
MODEL 7
REMARK VINA RESULT:      -9.2      5.065      8.915
REMARK  8 active torsions:
REMARK  status: ('A' for Active; 'I' for Inactive)
REMARK    1  A    between atoms: C_4  and  S_5 
REMARK    2  A    between atoms: S_5  and  C_6 
REMARK    3  A    between atoms: C_6  and  C_7 
REMARK       I    between atoms: C_7  and  N_8 
REMARK    4  A    between atoms: N_8  and  C_9 
REMARK    5  A    between atoms: C_20  and  C_21 
REMARK    6  A    between atoms: C_27  and  C_28 
REMARK       I    between atoms: C_28  and  N_29 
REMARK    7  A    between atoms: N_29  and  C_30 
REMARK    8  A    between atoms: C_31  and  O_32 
ROOT
HETATM    1  C   UNL     1       4.988  26.317  57.242  1.00  0.00     0.069 C 
HETATM    2  C   UNL     1       5.771  25.645  56.143  1.00  0.00     0.019 C 
HETATM    3  N   UNL     1       5.049  25.283  55.012  1.00  0.00    -0.353 N 
HETATM    4  C   UNL     1       5.633  24.996  53.787  1.00  0.00     0.088 C 
HETATM    5  C   UNL     1       6.968  24.762  53.728  1.00  0.00     0.069 C 
HETATM    6  C   UNL     1       7.675  24.605  52.500  1.00  0.00     0.099 C 
HETATM    7  N   UNL     1       8.252  24.478  51.501  1.00  0.00    -0.192 NA
HETATM    8  C   UNL     1       7.793  24.705  55.019  1.00  0.00     0.106 C 
HETATM    9  C   UNL     1       7.099  25.393  56.183  1.00  0.00     0.046 C 
HETATM   10  H   UNL     1       4.099  25.641  54.943  1.00  0.00     0.166 HD
ENDROOT
BRANCH   4  11
HETATM   11  S   UNL     1       4.636  25.024  52.343  1.00  0.00    -0.102 SA
BRANCH  11  12
HETATM   12  C   UNL     1       5.324  26.501  51.513  1.00  0.00     0.184 C 
BRANCH  12  13
HETATM   13  C   UNL     1       5.394  27.701  52.451  1.00  0.00     0.231 C 
HETATM   14  N   UNL     1       4.158  28.148  52.886  1.00  0.00    -0.327 N 
HETATM   15  H   UNL     1       3.356  27.710  52.443  1.00  0.00     0.169 HD
HETATM   16  O   UNL     1       6.486  28.137  52.808  1.00  0.00    -0.272 OA
BRANCH  14  17
HETATM   17  C   UNL     1       3.882  29.199  53.782  1.00  0.00     0.034 A 
HETATM   18  C   UNL     1       4.018  29.099  55.168  1.00  0.00     0.031 A 
HETATM   19  C   UNL     1       3.731  30.195  55.990  1.00  0.00     0.026 A 
HETATM   20  C   UNL     1       3.306  31.394  55.426  1.00  0.00     0.034 A 
HETATM   21 CL   UNL     1       2.961  32.742  56.438  1.00  0.00    -0.084 Cl
HETATM   22  C   UNL     1       3.161  31.507  54.047  1.00  0.00     0.026 A 
HETATM   23  C   UNL     1       3.445  30.411  53.228  1.00  0.00     0.031 A 
ENDBRANCH  14  17
ENDBRANCH  12  13
ENDBRANCH  11  12
ENDBRANCH   4  11
BRANCH   8  24
HETATM   24  C   UNL     1       8.176  23.246  55.309  1.00  0.00    -0.044 A 
HETATM   25  C   UNL     1       7.278  22.413  56.000  1.00  0.00     0.008 A 
HETATM   26  C   UNL     1       7.612  21.090  56.293  1.00  0.00     0.001 A 
HETATM   27  C   UNL     1       8.847  20.578  55.907  1.00  0.00     0.000 A 
HETATM   28  C   UNL     1       9.755  21.392  55.237  1.00  0.00     0.001 A 
HETATM   29  C   UNL     1       9.429  22.720  54.951  1.00  0.00     0.008 A 
ENDBRANCH   8  24
BRANCH   9  30
HETATM   30  C   UNL     1       7.933  25.931  57.290  1.00  0.00     0.255 C 
HETATM   31  N   UNL     1       8.635  27.055  56.953  1.00  0.00    -0.321 N 
HETATM   32  H   UNL     1       9.644  26.942  56.962  1.00  0.00     0.169 HD
HETATM   33  O   UNL     1       8.092  25.307  58.332  1.00  0.00    -0.268 OA
BRANCH  31  34
HETATM   34  C   UNL     1       8.292  28.352  57.419  1.00  0.00     0.068 A 
HETATM   35  C   UNL     1       9.296  29.335  57.420  1.00  0.00     0.095 A 
HETATM   36  C   UNL     1       8.982  30.658  57.743  1.00  0.00     0.039 A 
HETATM   37  C   UNL     1       7.682  30.991  58.126  1.00  0.00     0.003 A 
HETATM   38  C   UNL     1       6.703  30.004  58.202  1.00  0.00     0.002 A 
HETATM   39  C   UNL     1       7.006  28.686  57.854  1.00  0.00     0.032 A 
BRANCH  35  40
HETATM   40  O   UNL     1      10.558  28.941  57.041  1.00  0.00    -0.354 OA
HETATM   41  C   UNL     1      11.549  29.942  57.273  1.00  0.00     0.210 C 
ENDBRANCH  35  40
ENDBRANCH  31  34
ENDBRANCH   9  30
TORSDOF 8
ENDMDL
MODEL 8
REMARK VINA RESULT:      -9.2      5.599     10.204
REMARK  8 active torsions:
REMARK  status: ('A' for Active; 'I' for Inactive)
REMARK    1  A    between atoms: C_4  and  S_5 
REMARK    2  A    between atoms: S_5  and  C_6 
REMARK    3  A    between atoms: C_6  and  C_7 
REMARK       I    between atoms: C_7  and  N_8 
REMARK    4  A    between atoms: N_8  and  C_9 
REMARK    5  A    between atoms: C_20  and  C_21 
REMARK    6  A    between atoms: C_27  and  C_28 
REMARK       I    between atoms: C_28  and  N_29 
REMARK    7  A    between atoms: N_29  and  C_30 
REMARK    8  A    between atoms: C_31  and  O_32 
ROOT
HETATM    1  C   UNL     1       8.130  25.118  52.669  1.00  0.00     0.069 C 
HETATM    2  C   UNL     1       7.377  26.082  53.550  1.00  0.00     0.019 C 
HETATM    3  N   UNL     1       6.662  27.077  52.895  1.00  0.00    -0.353 N 
HETATM    4  C   UNL     1       5.646  27.811  53.490  1.00  0.00     0.088 C 
HETATM    5  C   UNL     1       5.516  27.790  54.840  1.00  0.00     0.069 C 
HETATM    6  C   UNL     1       4.420  28.392  55.524  1.00  0.00     0.099 C 
HETATM    7  N   UNL     1       3.526  28.880  56.082  1.00  0.00    -0.192 NA
HETATM    8  C   UNL     1       6.553  27.055  55.697  1.00  0.00     0.106 C 
HETATM    9  C   UNL     1       7.343  26.029  54.901  1.00  0.00     0.046 C 
HETATM   10  H   UNL     1       6.567  26.983  51.886  1.00  0.00     0.166 HD
ENDROOT
BRANCH   4  11
HETATM   11  S   UNL     1       4.514  28.678  52.467  1.00  0.00    -0.102 SA
BRANCH  11  12
HETATM   12  C   UNL     1       5.609  29.091  51.062  1.00  0.00     0.184 C 
BRANCH  12  13
HETATM   13  C   UNL     1       4.943  28.811  49.720  1.00  0.00     0.231 C 
HETATM   14  N   UNL     1       3.634  28.372  49.821  1.00  0.00    -0.327 N 
HETATM   15  H   UNL     1       3.313  28.174  50.764  1.00  0.00     0.169 HD
HETATM   16  O   UNL     1       5.547  29.047  48.676  1.00  0.00    -0.272 OA
BRANCH  14  17
HETATM   17  C   UNL     1       2.738  28.069  48.778  1.00  0.00     0.034 A 
HETATM   18  C   UNL     1       2.710  26.846  48.104  1.00  0.00     0.031 A 
HETATM   19  C   UNL     1       1.780  26.620  47.082  1.00  0.00     0.026 A 
HETATM   20  C   UNL     1       0.876  27.618  46.731  1.00  0.00     0.034 A 
HETATM   21 CL   UNL     1      -0.270  27.336  45.480  1.00  0.00    -0.084 Cl
HETATM   22  C   UNL     1       0.896  28.844  47.390  1.00  0.00     0.026 A 
HETATM   23  C   UNL     1       1.827  29.069  48.409  1.00  0.00     0.031 A 
ENDBRANCH  14  17
ENDBRANCH  12  13
ENDBRANCH  11  12
ENDBRANCH   4  11
BRANCH   8  24
HETATM   24  C   UNL     1       7.436  28.085  56.416  1.00  0.00    -0.044 A 
HETATM   25  C   UNL     1       8.494  28.702  55.725  1.00  0.00     0.008 A 
HETATM   26  C   UNL     1       9.323  29.626  56.363  1.00  0.00     0.001 A 
HETATM   27  C   UNL     1       9.113  29.947  57.701  1.00  0.00     0.000 A 
HETATM   28  C   UNL     1       8.082  29.334  58.407  1.00  0.00     0.001 A 
HETATM   29  C   UNL     1       7.257  28.401  57.774  1.00  0.00     0.008 A 
ENDBRANCH   8  24
BRANCH   9  30
HETATM   30  C   UNL     1       7.940  24.875  55.624  1.00  0.00     0.255 C 
HETATM   31  N   UNL     1       7.232  23.714  55.481  1.00  0.00    -0.321 N 
HETATM   32  H   UNL     1       6.827  23.357  56.341  1.00  0.00     0.169 HD
HETATM   33  O   UNL     1       8.873  25.021  56.403  1.00  0.00    -0.268 OA
BRANCH  31  34
HETATM   34  C   UNL     1       7.672  22.631  54.673  1.00  0.00     0.068 A 
HETATM   35  C   UNL     1       8.499  21.664  55.267  1.00  0.00     0.095 A 
HETATM   36  C   UNL     1       8.853  20.513  54.557  1.00  0.00     0.039 A 
HETATM   37  C   UNL     1       8.435  20.354  53.235  1.00  0.00     0.003 A 
HETATM   38  C   UNL     1       7.680  21.349  52.618  1.00  0.00     0.002 A 
HETATM   39  C   UNL     1       7.303  22.487  53.332  1.00  0.00     0.032 A 
BRANCH  35  40
HETATM   40  O   UNL     1       8.884  21.882  56.569  1.00  0.00    -0.354 OA
HETATM   41  C   UNL     1       8.263  20.989  57.493  1.00  0.00     0.210 C 
ENDBRANCH  35  40
ENDBRANCH  31  34
ENDBRANCH   9  30
TORSDOF 8
ENDMDL
MODEL 9
REMARK VINA RESULT:      -9.1      4.139      8.099
REMARK  8 active torsions:
REMARK  status: ('A' for Active; 'I' for Inactive)
REMARK    1  A    between atoms: C_4  and  S_5 
REMARK    2  A    between atoms: S_5  and  C_6 
REMARK    3  A    between atoms: C_6  and  C_7 
REMARK       I    between atoms: C_7  and  N_8 
REMARK    4  A    between atoms: N_8  and  C_9 
REMARK    5  A    between atoms: C_20  and  C_21 
REMARK    6  A    between atoms: C_27  and  C_28 
REMARK       I    between atoms: C_28  and  N_29 
REMARK    7  A    between atoms: N_29  and  C_30 
REMARK    8  A    between atoms: C_31  and  O_32 
ROOT
HETATM    1  C   UNL     1       7.644  27.741  54.052  1.00  0.00     0.069 C 
HETATM    2  C   UNL     1       6.941  28.531  55.126  1.00  0.00     0.019 C 
HETATM    3  N   UNL     1       6.072  29.522  54.685  1.00  0.00    -0.353 N 
HETATM    4  C   UNL     1       5.089  30.092  55.482  1.00  0.00     0.088 C 
HETATM    5  C   UNL     1       5.139  29.913  56.826  1.00  0.00     0.069 C 
HETATM    6  C   UNL     1       4.099  30.335  57.705  1.00  0.00     0.099 C 
HETATM    7  N   UNL     1       3.252  30.676  58.421  1.00  0.00    -0.192 NA
HETATM    8  C   UNL     1       6.333  29.187  57.457  1.00  0.00     0.106 C 
HETATM    9  C   UNL     1       7.088  28.330  56.455  1.00  0.00     0.046 C 
HETATM   10  H   UNL     1       5.853  29.529  53.692  1.00  0.00     0.166 HD
ENDROOT
BRANCH   4  11
HETATM   11  S   UNL     1       3.769  30.956  54.715  1.00  0.00    -0.102 SA
BRANCH  11  12
HETATM   12  C   UNL     1       4.294  30.848  52.967  1.00  0.00     0.184 C 
BRANCH  12  13
HETATM   13  C   UNL     1       3.828  29.553  52.311  1.00  0.00     0.231 C 
HETATM   14  N   UNL     1       4.155  29.451  50.970  1.00  0.00    -0.327 N 
HETATM   15  H   UNL     1       4.552  30.288  50.554  1.00  0.00     0.169 HD
HETATM   16  O   UNL     1       3.283  28.685  52.990  1.00  0.00    -0.272 OA
BRANCH  14  17
HETATM   17  C   UNL     1       3.907  28.375  50.096  1.00  0.00     0.034 A 
HETATM   18  C   UNL     1       4.751  27.272  49.958  1.00  0.00     0.031 A 
HETATM   19  C   UNL     1       4.429  26.238  49.071  1.00  0.00     0.026 A 
HETATM   20  C   UNL     1       3.259  26.305  48.321  1.00  0.00     0.034 A 
HETATM   21 CL   UNL     1       2.860  25.030  47.237  1.00  0.00    -0.084 Cl
HETATM   22  C   UNL     1       2.410  27.401  48.444  1.00  0.00     0.026 A 
HETATM   23  C   UNL     1       2.736  28.435  49.328  1.00  0.00     0.031 A 
ENDBRANCH  14  17
ENDBRANCH  12  13
ENDBRANCH  11  12
ENDBRANCH   4  11
BRANCH   8  24
HETATM   24  C   UNL     1       7.221  30.210  58.181  1.00  0.00    -0.044 A 
HETATM   25  C   UNL     1       8.588  30.298  57.862  1.00  0.00     0.008 A 
HETATM   26  C   UNL     1       9.419  31.206  58.521  1.00  0.00     0.001 A 
HETATM   27  C   UNL     1       8.902  32.037  59.510  1.00  0.00     0.000 A 
HETATM   28  C   UNL     1       7.556  31.953  59.852  1.00  0.00     0.001 A 
HETATM   29  C   UNL     1       6.723  31.039  59.202  1.00  0.00     0.008 A 
ENDBRANCH   8  24
BRANCH   9  30
HETATM   30  C   UNL     1       7.862  27.164  56.958  1.00  0.00     0.255 C 
HETATM   31  N   UNL     1       7.151  25.996  56.963  1.00  0.00    -0.321 N 
HETATM   32  H   UNL     1       6.986  25.605  57.885  1.00  0.00     0.169 HD
HETATM   33  O   UNL     1       8.964  27.301  57.474  1.00  0.00    -0.268 OA
BRANCH  31  34
HETATM   34  C   UNL     1       7.376  24.947  56.030  1.00  0.00     0.068 A 
HETATM   35  C   UNL     1       6.425  24.759  55.014  1.00  0.00     0.095 A 
HETATM   36  C   UNL     1       6.662  23.831  53.996  1.00  0.00     0.039 A 
HETATM   37  C   UNL     1       7.816  23.046  54.024  1.00  0.00     0.003 A 
HETATM   38  C   UNL     1       8.722  23.176  55.073  1.00  0.00     0.002 A 
HETATM   39  C   UNL     1       8.502  24.121  56.077  1.00  0.00     0.032 A 
BRANCH  35  40
HETATM   40  O   UNL     1       5.306  25.557  55.047  1.00  0.00    -0.354 OA
HETATM   41  C   UNL     1       4.696  25.718  53.767  1.00  0.00     0.210 C 
ENDBRANCH  35  40
ENDBRANCH  31  34
ENDBRANCH   9  30
TORSDOF 8
ENDMDL
MODEL 10
REMARK VINA RESULT:      -9.1      5.955      9.877
REMARK  8 active torsions:
REMARK  status: ('A' for Active; 'I' for Inactive)
REMARK    1  A    between atoms: C_4  and  S_5 
REMARK    2  A    between atoms: S_5  and  C_6 
REMARK    3  A    between atoms: C_6  and  C_7 
REMARK       I    between atoms: C_7  and  N_8 
REMARK    4  A    between atoms: N_8  and  C_9 
REMARK    5  A    between atoms: C_20  and  C_21 
REMARK    6  A    between atoms: C_27  and  C_28 
REMARK       I    between atoms: C_28  and  N_29 
REMARK    7  A    between atoms: N_29  and  C_30 
REMARK    8  A    between atoms: C_31  and  O_32 
ROOT
HETATM    1  C   UNL     1       5.360  27.026  50.983  1.00  0.00     0.069 C 
HETATM    2  C   UNL     1       5.159  27.727  52.302  1.00  0.00     0.019 C 
HETATM    3  N   UNL     1       4.920  29.094  52.236  1.00  0.00    -0.353 N 
HETATM    4  C   UNL     1       4.366  29.828  53.276  1.00  0.00     0.088 C 
HETATM    5  C   UNL     1       4.317  29.285  54.518  1.00  0.00     0.069 C 
HETATM    6  C   UNL     1       3.638  29.902  55.609  1.00  0.00     0.099 C 
HETATM    7  N   UNL     1       3.084  30.402  56.498  1.00  0.00    -0.192 NA
HETATM    8  C   UNL     1       4.970  27.924  54.784  1.00  0.00     0.106 C 
HETATM    9  C   UNL     1       5.182  27.121  53.511  1.00  0.00     0.046 C 
HETATM   10  H   UNL     1       4.736  29.482  51.314  1.00  0.00     0.166 HD
ENDROOT
BRANCH   4  11
HETATM   11  S   UNL     1       3.675  31.403  52.930  1.00  0.00    -0.102 SA
BRANCH  11  12
HETATM   12  C   UNL     1       4.005  31.505  51.134  1.00  0.00     0.184 C 
BRANCH  12  13
HETATM   13  C   UNL     1       2.832  30.989  50.309  1.00  0.00     0.231 C 
HETATM   14  N   UNL     1       3.178  30.023  49.381  1.00  0.00    -0.327 N 
HETATM   15  H   UNL     1       4.174  29.860  49.273  1.00  0.00     0.169 HD
HETATM   16  O   UNL     1       1.693  31.384  50.550  1.00  0.00    -0.272 OA
BRANCH  14  17
HETATM   17  C   UNL     1       2.330  29.323  48.500  1.00  0.00     0.034 A 
HETATM   18  C   UNL     1       1.898  28.012  48.711  1.00  0.00     0.031 A 
HETATM   19  C   UNL     1       1.047  27.388  47.791  1.00  0.00     0.026 A 
HETATM   20  C   UNL     1       0.627  28.075  46.656  1.00  0.00     0.034 A 
HETATM   21 CL   UNL     1      -0.423  27.310  45.530  1.00  0.00    -0.084 Cl
HETATM   22  C   UNL     1       1.054  29.380  46.430  1.00  0.00     0.026 A 
HETATM   23  C   UNL     1       1.906  30.001  47.349  1.00  0.00     0.031 A 
ENDBRANCH  14  17
ENDBRANCH  12  13
ENDBRANCH  11  12
ENDBRANCH   4  11
BRANCH   8  24
HETATM   24  C   UNL     1       6.256  28.131  55.598  1.00  0.00    -0.044 A 
HETATM   25  C   UNL     1       6.211  28.067  57.003  1.00  0.00     0.008 A 
HETATM   26  C   UNL     1       7.362  28.273  57.765  1.00  0.00     0.001 A 
HETATM   27  C   UNL     1       8.575  28.549  57.140  1.00  0.00     0.000 A 
HETATM   28  C   UNL     1       8.635  28.634  55.753  1.00  0.00     0.001 A 
HETATM   29  C   UNL     1       7.483  28.439  54.987  1.00  0.00     0.008 A 
ENDBRANCH   8  24
BRANCH   9  30
HETATM   30  C   UNL     1       5.249  25.639  53.608  1.00  0.00     0.255 C 
HETATM   31  N   UNL     1       6.523  25.144  53.566  1.00  0.00    -0.321 N 
HETATM   32  H   UNL     1       6.726  24.567  52.756  1.00  0.00     0.169 HD
HETATM   33  O   UNL     1       4.240  24.948  53.551  1.00  0.00    -0.268 OA
BRANCH  31  34
HETATM   34  C   UNL     1       7.190  24.622  54.707  1.00  0.00     0.068 A 
HETATM   35  C   UNL     1       8.198  23.667  54.496  1.00  0.00     0.095 A 
HETATM   36  C   UNL     1       8.975  23.220  55.569  1.00  0.00     0.039 A 
HETATM   37  C   UNL     1       8.707  23.676  56.860  1.00  0.00     0.003 A 
HETATM   38  C   UNL     1       7.657  24.563  57.083  1.00  0.00     0.002 A 
HETATM   39  C   UNL     1       6.896  25.033  56.010  1.00  0.00     0.032 A 
BRANCH  35  40
HETATM   40  O   UNL     1       8.408  23.252  53.203  1.00  0.00    -0.354 OA
HETATM   41  C   UNL     1       8.091  21.875  52.999  1.00  0.00     0.210 C 
ENDBRANCH  35  40
ENDBRANCH  31  34
ENDBRANCH   9  30
TORSDOF 8
ENDMDL
