MODEL 1
REMARK VINA RESULT:      -8.6      0.000      0.000
REMARK  4 active torsions:
REMARK  status: ('A' for Active; 'I' for Inactive)
REMARK    1  A    between atoms: C_9  and  C_10 
REMARK    2  A    between atoms: C_13  and  O_14 
REMARK    3  A    between atoms: C_18  and  C_19 
REMARK       I    between atoms: C_19  and  N_20 
REMARK    4  A    between atoms: N_20  and  C_21 
ROOT
HETATM    1  C   UNL     1       4.092  29.243  55.837  1.00  0.00     0.070 C 
HETATM    2  C   UNL     1       5.460  28.804  55.378  1.00  0.00     0.037 C 
HETATM    3  N   UNL     1       6.512  29.166  56.218  1.00  0.00    -0.192 N 
HETATM    4  C   UNL     1       7.799  29.156  55.817  1.00  0.00     0.725 A 
HETATM    5  N   UNL     1       8.125  28.571  54.623  1.00  0.00    -0.084 N 
HETATM    6  N   UNL     1       9.431  28.746  54.331  1.00  0.00    -0.149 NA
HETATM    7  C   UNL     1       9.841  29.399  55.425  1.00  0.00     0.275 A 
HETATM    8  N   UNL     1       8.874  29.667  56.360  1.00  0.00    -0.054 NA
HETATM    9  C   UNL     1       7.158  27.891  53.754  1.00  0.00     0.202 C 
HETATM   10  C   UNL     1       5.725  28.180  54.201  1.00  0.00     0.062 C 
HETATM   11  H   UNL     1       6.285  29.720  57.040  1.00  0.00     0.184 HD
ENDROOT
BRANCH  10  12
HETATM   12  C   UNL     1       4.703  27.873  53.163  1.00  0.00     0.256 C 
HETATM   13  N   UNL     1       5.064  28.246  51.886  1.00  0.00    -0.323 N 
HETATM   14  H   UNL     1       5.931  28.758  51.784  1.00  0.00     0.169 HD
HETATM   15  O   UNL     1       3.647  27.359  53.513  1.00  0.00    -0.267 OA
BRANCH  13  16
HETATM   16  C   UNL     1       4.392  27.923  50.687  1.00  0.00     0.035 A 
HETATM   17  C   UNL     1       3.340  28.671  50.154  1.00  0.00     0.031 A 
HETATM   18  C   UNL     1       2.690  28.256  48.986  1.00  0.00     0.026 A 
HETATM   19  C   UNL     1       3.089  27.087  48.346  1.00  0.00     0.034 A 
HETATM   20 CL   UNL     1       2.277  26.568  46.922  1.00  0.00    -0.084 Cl
HETATM   21  C   UNL     1       4.140  26.334  48.860  1.00  0.00     0.026 A 
HETATM   22  C   UNL     1       4.793  26.754  50.024  1.00  0.00     0.031 A 
ENDBRANCH  13  16
ENDBRANCH  10  12
BRANCH   9  23
HETATM   23  C   UNL     1       7.458  26.394  53.709  1.00  0.00    -0.028 A 
HETATM   24  C   UNL     1       7.537  25.617  54.877  1.00  0.00     0.012 A 
HETATM   25  C   UNL     1       7.856  24.258  54.805  1.00  0.00     0.037 A 
HETATM   26  C   UNL     1       8.097  23.646  53.575  1.00  0.00     0.068 A 
HETATM   27  C   UNL     1       7.985  24.399  52.407  1.00  0.00     0.037 A 
HETATM   28  C   UNL     1       7.666  25.761  52.474  1.00  0.00     0.012 A 
BRANCH  26  29
HETATM   29  O   UNL     1       8.421  22.320  53.648  1.00  0.00    -0.356 OA
HETATM   30  C   UNL     1       9.131  21.902  54.807  1.00  0.00     0.210 C 
ENDBRANCH  26  29
ENDBRANCH   9  23
TORSDOF 4
ENDMDL
MODEL 2
REMARK VINA RESULT:      -8.4      3.213      6.114
REMARK  4 active torsions:
REMARK  status: ('A' for Active; 'I' for Inactive)
REMARK    1  A    between atoms: C_9  and  C_10 
REMARK    2  A    between atoms: C_13  and  O_14 
REMARK    3  A    between atoms: C_18  and  C_19 
REMARK       I    between atoms: C_19  and  N_20 
REMARK    4  A    between atoms: N_20  and  C_21 
ROOT
HETATM    1  C   UNL     1       8.338  27.557  57.377  1.00  0.00     0.070 C 
HETATM    2  C   UNL     1       7.082  28.173  56.814  1.00  0.00     0.037 C 
HETATM    3  N   UNL     1       6.862  29.502  57.169  1.00  0.00    -0.192 N 
HETATM    4  C   UNL     1       5.660  30.100  57.043  1.00  0.00     0.725 A 
HETATM    5  N   UNL     1       4.666  29.465  56.349  1.00  0.00    -0.084 N 
HETATM    6  N   UNL     1       3.506  30.152  56.415  1.00  0.00    -0.149 NA
HETATM    7  C   UNL     1       3.894  31.221  57.120  1.00  0.00     0.275 A 
HETATM    8  N   UNL     1       5.205  31.229  57.522  1.00  0.00    -0.054 NA
HETATM    9  C   UNL     1       4.836  28.175  55.670  1.00  0.00     0.202 C 
HETATM   10  C   UNL     1       6.147  27.509  56.087  1.00  0.00     0.062 C 
HETATM   11  H   UNL     1       7.534  29.936  57.798  1.00  0.00     0.184 HD
ENDROOT
BRANCH  10  12
HETATM   12  C   UNL     1       6.204  26.055  55.770  1.00  0.00     0.256 C 
HETATM   13  N   UNL     1       7.189  25.711  54.870  1.00  0.00    -0.323 N 
HETATM   14  H   UNL     1       7.715  26.467  54.452  1.00  0.00     0.169 HD
HETATM   15  O   UNL     1       5.384  25.308  56.291  1.00  0.00    -0.267 OA
BRANCH  13  16
HETATM   16  C   UNL     1       7.602  24.405  54.523  1.00  0.00     0.035 A 
HETATM   17  C   UNL     1       8.387  23.590  55.342  1.00  0.00     0.031 A 
HETATM   18  C   UNL     1       8.799  22.326  54.904  1.00  0.00     0.026 A 
HETATM   19  C   UNL     1       8.429  21.873  53.642  1.00  0.00     0.034 A 
HETATM   20 CL   UNL     1       8.953  20.327  53.098  1.00  0.00    -0.084 Cl
HETATM   21  C   UNL     1       7.642  22.670  52.817  1.00  0.00     0.026 A 
HETATM   22  C   UNL     1       7.225  23.930  53.259  1.00  0.00     0.031 A 
ENDBRANCH  13  16
ENDBRANCH  10  12
BRANCH   9  23
HETATM   23  C   UNL     1       4.739  28.365  54.157  1.00  0.00    -0.028 A 
HETATM   24  C   UNL     1       5.878  28.561  53.358  1.00  0.00     0.012 A 
HETATM   25  C   UNL     1       5.752  28.774  51.983  1.00  0.00     0.037 A 
HETATM   26  C   UNL     1       4.496  28.790  51.376  1.00  0.00     0.068 A 
HETATM   27  C   UNL     1       3.362  28.560  52.153  1.00  0.00     0.037 A 
HETATM   28  C   UNL     1       3.483  28.346  53.531  1.00  0.00     0.012 A 
BRANCH  26  29
HETATM   29  O   UNL     1       4.513  29.032  50.030  1.00  0.00    -0.356 OA
HETATM   30  C   UNL     1       5.684  29.648  49.509  1.00  0.00     0.210 C 
ENDBRANCH  26  29
ENDBRANCH   9  23
TORSDOF 4
ENDMDL
MODEL 3
REMARK VINA RESULT:      -8.3      1.729      2.281
REMARK  4 active torsions:
REMARK  status: ('A' for Active; 'I' for Inactive)
REMARK    1  A    between atoms: C_9  and  C_10 
REMARK    2  A    between atoms: C_13  and  O_14 
REMARK    3  A    between atoms: C_18  and  C_19 
REMARK       I    between atoms: C_19  and  N_20 
REMARK    4  A    between atoms: N_20  and  C_21 
ROOT
HETATM    1  C   UNL     1       3.668  30.275  56.493  1.00  0.00     0.070 C 
HETATM    2  C   UNL     1       5.034  29.637  56.545  1.00  0.00     0.037 C 
HETATM    3  N   UNL     1       5.761  29.884  57.707  1.00  0.00    -0.192 N 
HETATM    4  C   UNL     1       7.091  29.684  57.790  1.00  0.00     0.725 A 
HETATM    5  N   UNL     1       7.732  29.015  56.782  1.00  0.00    -0.084 N 
HETATM    6  N   UNL     1       9.068  29.000  56.975  1.00  0.00    -0.149 NA
HETATM    7  C   UNL     1       9.153  29.633  58.151  1.00  0.00     0.275 A 
HETATM    8  N   UNL     1       7.966  30.066  58.685  1.00  0.00    -0.054 NA
HETATM    9  C   UNL     1       7.049  28.440  55.618  1.00  0.00     0.202 C 
HETATM   10  C   UNL     1       5.607  28.938  55.531  1.00  0.00     0.062 C 
HETATM   11  H   UNL     1       5.339  30.496  58.402  1.00  0.00     0.184 HD
ENDROOT
BRANCH  10  12
HETATM   12  C   UNL     1       4.984  28.733  54.194  1.00  0.00     0.256 C 
HETATM   13  N   UNL     1       5.815  29.024  53.133  1.00  0.00    -0.323 N 
HETATM   14  H   UNL     1       6.719  29.421  53.353  1.00  0.00     0.169 HD
HETATM   15  O   UNL     1       3.818  28.363  54.140  1.00  0.00    -0.267 OA
BRANCH  13  16
HETATM   16  C   UNL     1       5.573  28.755  51.768  1.00  0.00     0.035 A 
HETATM   17  C   UNL     1       5.466  29.741  50.784  1.00  0.00     0.031 A 
HETATM   18  C   UNL     1       5.173  29.397  49.459  1.00  0.00     0.026 A 
HETATM   19  C   UNL     1       4.983  28.063  49.114  1.00  0.00     0.034 A 
HETATM   20 CL   UNL     1       4.602  27.644  47.489  1.00  0.00    -0.084 Cl
HETATM   21  C   UNL     1       5.091  27.068  50.080  1.00  0.00     0.026 A 
HETATM   22  C   UNL     1       5.392  27.413  51.402  1.00  0.00     0.031 A 
ENDBRANCH  13  16
ENDBRANCH  10  12
BRANCH   9  23
HETATM   23  C   UNL     1       7.132  26.915  55.664  1.00  0.00    -0.028 A 
HETATM   24  C   UNL     1       7.461  26.154  54.530  1.00  0.00     0.012 A 
HETATM   25  C   UNL     1       7.488  24.759  54.595  1.00  0.00     0.037 A 
HETATM   26  C   UNL     1       7.194  24.094  55.786  1.00  0.00     0.068 A 
HETATM   27  C   UNL     1       6.901  24.840  56.927  1.00  0.00     0.037 A 
HETATM   28  C   UNL     1       6.874  26.239  56.867  1.00  0.00     0.012 A 
BRANCH  26  29
HETATM   29  O   UNL     1       7.233  22.730  55.706  1.00  0.00    -0.356 OA
HETATM   30  C   UNL     1       7.858  22.178  54.554  1.00  0.00     0.210 C 
ENDBRANCH  26  29
ENDBRANCH   9  23
TORSDOF 4
ENDMDL
MODEL 4
REMARK VINA RESULT:      -8.0      3.538      6.991
REMARK  4 active torsions:
REMARK  status: ('A' for Active; 'I' for Inactive)
REMARK    1  A    between atoms: C_9  and  C_10 
REMARK    2  A    between atoms: C_13  and  O_14 
REMARK    3  A    between atoms: C_18  and  C_19 
REMARK       I    between atoms: C_19  and  N_20 
REMARK    4  A    between atoms: N_20  and  C_21 
ROOT
HETATM    1  C   UNL     1       3.763  25.856  48.776  1.00  0.00     0.070 C 
HETATM    2  C   UNL     1       4.313  27.100  49.428  1.00  0.00     0.037 C 
HETATM    3  N   UNL     1       4.135  28.278  48.706  1.00  0.00    -0.192 N 
HETATM    4  C   UNL     1       4.835  29.401  48.962  1.00  0.00     0.725 A 
HETATM    5  N   UNL     1       5.593  29.474  50.098  1.00  0.00    -0.084 N 
HETATM    6  N   UNL     1       6.306  30.619  50.140  1.00  0.00    -0.149 NA
HETATM    7  C   UNL     1       5.882  31.213  49.019  1.00  0.00     0.275 A 
HETATM    8  N   UNL     1       4.979  30.502  48.270  1.00  0.00    -0.054 NA
HETATM    9  C   UNL     1       5.658  28.412  51.109  1.00  0.00     0.202 C 
HETATM   10  C   UNL     1       5.020  27.124  50.587  1.00  0.00     0.062 C 
HETATM   11  H   UNL     1       3.689  28.205  47.794  1.00  0.00     0.184 HD
ENDROOT
BRANCH  10  12
HETATM   12  C   UNL     1       5.396  25.914  51.369  1.00  0.00     0.256 C 
HETATM   13  N   UNL     1       6.717  25.879  51.759  1.00  0.00    -0.323 N 
HETATM   14  H   UNL     1       7.317  26.618  51.415  1.00  0.00     0.169 HD
HETATM   15  O   UNL     1       4.541  25.060  51.575  1.00  0.00    -0.267 OA
BRANCH  13  16
HETATM   16  C   UNL     1       7.314  24.965  52.655  1.00  0.00     0.035 A 
HETATM   17  C   UNL     1       7.766  23.695  52.289  1.00  0.00     0.031 A 
HETATM   18  C   UNL     1       8.300  22.825  53.247  1.00  0.00     0.026 A 
HETATM   19  C   UNL     1       8.381  23.222  54.577  1.00  0.00     0.034 A 
HETATM   20 CL   UNL     1       9.018  22.145  55.757  1.00  0.00    -0.084 Cl
HETATM   21  C   UNL     1       7.940  24.486  54.958  1.00  0.00     0.026 A 
HETATM   22  C   UNL     1       7.414  25.357  53.997  1.00  0.00     0.031 A 
ENDBRANCH  13  16
ENDBRANCH  10  12
BRANCH   9  23
HETATM   23  C   UNL     1       5.015  28.889  52.410  1.00  0.00    -0.028 A 
HETATM   24  C   UNL     1       3.794  29.583  52.425  1.00  0.00     0.012 A 
HETATM   25  C   UNL     1       3.253  30.043  53.628  1.00  0.00     0.037 A 
HETATM   26  C   UNL     1       3.912  29.820  54.837  1.00  0.00     0.068 A 
HETATM   27  C   UNL     1       5.107  29.101  54.839  1.00  0.00     0.037 A 
HETATM   28  C   UNL     1       5.652  28.637  53.635  1.00  0.00     0.012 A 
BRANCH  26  29
HETATM   29  O   UNL     1       3.288  30.344  55.936  1.00  0.00    -0.356 OA
HETATM   30  C   UNL     1       2.805  31.676  55.818  1.00  0.00     0.210 C 
ENDBRANCH  26  29
ENDBRANCH   9  23
TORSDOF 4
ENDMDL
MODEL 5
REMARK VINA RESULT:      -7.9      2.879      4.960
REMARK  4 active torsions:
REMARK  status: ('A' for Active; 'I' for Inactive)
REMARK    1  A    between atoms: C_9  and  C_10 
REMARK    2  A    between atoms: C_13  and  O_14 
REMARK    3  A    between atoms: C_18  and  C_19 
REMARK       I    between atoms: C_19  and  N_20 
REMARK    4  A    between atoms: N_20  and  C_21 
ROOT
HETATM    1  C   UNL     1       7.674  24.502  51.591  1.00  0.00     0.070 C 
HETATM    2  C   UNL     1       7.533  24.545  53.093  1.00  0.00     0.037 C 
HETATM    3  N   UNL     1       8.544  23.899  53.802  1.00  0.00    -0.192 N 
HETATM    4  C   UNL     1       8.416  23.552  55.098  1.00  0.00     0.725 A 
HETATM    5  N   UNL     1       7.354  24.029  55.818  1.00  0.00    -0.084 N 
HETATM    6  N   UNL     1       7.323  23.498  57.058  1.00  0.00    -0.149 NA
HETATM    7  C   UNL     1       8.433  22.751  57.032  1.00  0.00     0.275 A 
HETATM    8  N   UNL     1       9.132  22.757  55.851  1.00  0.00    -0.054 NA
HETATM    9  C   UNL     1       6.352  24.957  55.280  1.00  0.00     0.202 C 
HETATM   10  C   UNL     1       6.478  25.076  53.762  1.00  0.00     0.062 C 
HETATM   11  H   UNL     1       9.265  23.425  53.262  1.00  0.00     0.184 HD
ENDROOT
BRANCH  10  12
HETATM   12  C   UNL     1       5.276  25.663  53.108  1.00  0.00     0.256 C 
HETATM   13  N   UNL     1       5.440  26.964  52.685  1.00  0.00    -0.323 N 
HETATM   14  H   UNL     1       6.310  27.420  52.928  1.00  0.00     0.169 HD
HETATM   15  O   UNL     1       4.262  24.980  53.023  1.00  0.00    -0.267 OA
BRANCH  13  16
HETATM   16  C   UNL     1       4.554  27.712  51.879  1.00  0.00     0.035 A 
HETATM   17  C   UNL     1       3.597  28.596  52.382  1.00  0.00     0.031 A 
HETATM   18  C   UNL     1       2.719  29.263  51.519  1.00  0.00     0.026 A 
HETATM   19  C   UNL     1       2.794  29.045  50.148  1.00  0.00     0.034 A 
HETATM   20 CL   UNL     1       1.701  29.849  49.090  1.00  0.00    -0.084 Cl
HETATM   21  C   UNL     1       3.745  28.172  49.629  1.00  0.00     0.026 A 
HETATM   22  C   UNL     1       4.627  27.512  50.493  1.00  0.00     0.031 A 
ENDBRANCH  13  16
ENDBRANCH  10  12
BRANCH   9  23
HETATM   23  C   UNL     1       6.467  26.311  55.979  1.00  0.00    -0.028 A 
HETATM   24  C   UNL     1       7.697  26.975  56.114  1.00  0.00     0.012 A 
HETATM   25  C   UNL     1       7.776  28.192  56.795  1.00  0.00     0.037 A 
HETATM   26  C   UNL     1       6.635  28.774  57.349  1.00  0.00     0.068 A 
HETATM   27  C   UNL     1       5.403  28.142  57.190  1.00  0.00     0.037 A 
HETATM   28  C   UNL     1       5.320  26.922  56.508  1.00  0.00     0.012 A 
BRANCH  26  29
HETATM   29  O   UNL     1       6.855  29.952  58.009  1.00  0.00    -0.356 OA
HETATM   30  C   UNL     1       8.044  30.033  58.786  1.00  0.00     0.210 C 
ENDBRANCH  26  29
ENDBRANCH   9  23
TORSDOF 4
ENDMDL
MODEL 6
REMARK VINA RESULT:      -7.6      4.209      7.577
REMARK  4 active torsions:
REMARK  status: ('A' for Active; 'I' for Inactive)
REMARK    1  A    between atoms: C_9  and  C_10 
REMARK    2  A    between atoms: C_13  and  O_14 
REMARK    3  A    between atoms: C_18  and  C_19 
REMARK       I    between atoms: C_19  and  N_20 
REMARK    4  A    between atoms: N_20  and  C_21 
ROOT
HETATM    1  C   UNL     1       8.776  31.040  58.766  1.00  0.00     0.070 C 
HETATM    2  C   UNL     1       7.294  31.209  58.538  1.00  0.00     0.037 C 
HETATM    3  N   UNL     1       6.691  32.220  59.283  1.00  0.00    -0.192 N 
HETATM    4  C   UNL     1       5.356  32.296  59.459  1.00  0.00     0.725 A 
HETATM    5  N   UNL     1       4.535  31.491  58.717  1.00  0.00    -0.084 N 
HETATM    6  N   UNL     1       3.247  31.620  59.097  1.00  0.00    -0.149 NA
HETATM    7  C   UNL     1       3.363  32.564  60.038  1.00  0.00     0.275 A 
HETATM    8  N   UNL     1       4.637  33.006  60.289  1.00  0.00    -0.054 NA
HETATM    9  C   UNL     1       5.013  30.569  57.680  1.00  0.00     0.202 C 
HETATM   10  C   UNL     1       6.531  30.409  57.749  1.00  0.00     0.062 C 
HETATM   11  H   UNL     1       7.277  32.732  59.938  1.00  0.00     0.184 HD
ENDROOT
BRANCH  10  12
HETATM   12  C   UNL     1       7.039  29.214  57.021  1.00  0.00     0.256 C 
HETATM   13  N   UNL     1       6.810  28.018  57.667  1.00  0.00    -0.323 N 
HETATM   14  H   UNL     1       6.404  28.067  58.593  1.00  0.00     0.169 HD
HETATM   15  O   UNL     1       7.625  29.380  55.957  1.00  0.00    -0.267 OA
BRANCH  13  16
HETATM   16  C   UNL     1       7.007  26.721  57.145  1.00  0.00     0.035 A 
HETATM   17  C   UNL     1       8.156  25.957  57.365  1.00  0.00     0.031 A 
HETATM   18  C   UNL     1       8.299  24.698  56.770  1.00  0.00     0.026 A 
HETATM   19  C   UNL     1       7.293  24.199  55.949  1.00  0.00     0.034 A 
HETATM   20 CL   UNL     1       7.480  22.661  55.202  1.00  0.00    -0.084 Cl
HETATM   21  C   UNL     1       6.140  24.944  55.725  1.00  0.00     0.026 A 
HETATM   22  C   UNL     1       5.995  26.199  56.327  1.00  0.00     0.031 A 
ENDBRANCH  13  16
ENDBRANCH  10  12
BRANCH   9  23
HETATM   23  C   UNL     1       4.543  31.041  56.305  1.00  0.00    -0.028 A 
HETATM   24  C   UNL     1       3.780  30.219  55.458  1.00  0.00     0.012 A 
HETATM   25  C   UNL     1       3.401  30.665  54.189  1.00  0.00     0.037 A 
HETATM   26  C   UNL     1       3.768  31.934  53.740  1.00  0.00     0.068 A 
HETATM   27  C   UNL     1       4.494  32.771  54.586  1.00  0.00     0.037 A 
HETATM   28  C   UNL     1       4.875  32.329  55.859  1.00  0.00     0.012 A 
BRANCH  26  29
HETATM   29  O   UNL     1       3.354  32.235  52.472  1.00  0.00    -0.356 OA
HETATM   30  C   UNL     1       3.720  31.318  51.449  1.00  0.00     0.210 C 
ENDBRANCH  26  29
ENDBRANCH   9  23
TORSDOF 4
ENDMDL
MODEL 7
REMARK VINA RESULT:      -7.6      9.502     12.841
REMARK  4 active torsions:
REMARK  status: ('A' for Active; 'I' for Inactive)
REMARK    1  A    between atoms: C_9  and  C_10 
REMARK    2  A    between atoms: C_13  and  O_14 
REMARK    3  A    between atoms: C_18  and  C_19 
REMARK       I    between atoms: C_19  and  N_20 
REMARK    4  A    between atoms: N_20  and  C_21 
ROOT
HETATM    1  C   UNL     1       7.948  31.965  63.064  1.00  0.00     0.070 C 
HETATM    2  C   UNL     1       7.012  32.925  63.754  1.00  0.00     0.037 C 
HETATM    3  N   UNL     1       7.417  33.342  65.020  1.00  0.00    -0.192 N 
HETATM    4  C   UNL     1       6.574  33.916  65.902  1.00  0.00     0.725 A 
HETATM    5  N   UNL     1       5.330  34.305  65.484  1.00  0.00    -0.084 N 
HETATM    6  N   UNL     1       4.585  34.758  66.514  1.00  0.00    -0.149 NA
HETATM    7  C   UNL     1       5.468  34.663  67.515  1.00  0.00     0.275 A 
HETATM    8  N   UNL     1       6.698  34.154  67.182  1.00  0.00    -0.054 NA
HETATM    9  C   UNL     1       4.859  34.190  64.099  1.00  0.00     0.202 C 
HETATM   10  C   UNL     1       5.805  33.320  63.272  1.00  0.00     0.062 C 
HETATM   11  H   UNL     1       8.278  32.945  65.390  1.00  0.00     0.184 HD
ENDROOT
BRANCH  10  12
HETATM   12  C   UNL     1       5.206  32.828  62.000  1.00  0.00     0.256 C 
HETATM   13  N   UNL     1       5.753  33.385  60.865  1.00  0.00    -0.323 N 
HETATM   14  H   UNL     1       6.435  34.121  60.996  1.00  0.00     0.169 HD
HETATM   15  O   UNL     1       4.288  32.019  62.059  1.00  0.00    -0.267 OA
BRANCH  13  16
HETATM   16  C   UNL     1       5.523  32.986  59.529  1.00  0.00     0.035 A 
HETATM   17  C   UNL     1       4.604  33.602  58.677  1.00  0.00     0.031 A 
HETATM   18  C   UNL     1       4.396  33.115  57.381  1.00  0.00     0.026 A 
HETATM   19  C   UNL     1       5.106  32.006  56.934  1.00  0.00     0.034 A 
HETATM   20 CL   UNL     1       4.835  31.396  55.348  1.00  0.00    -0.084 Cl
HETATM   21  C   UNL     1       6.030  31.385  57.767  1.00  0.00     0.026 A 
HETATM   22  C   UNL     1       6.242  31.878  59.060  1.00  0.00     0.031 A 
ENDBRANCH  13  16
ENDBRANCH  10  12
BRANCH   9  23
HETATM   23  C   UNL     1       4.673  35.580  63.493  1.00  0.00    -0.028 A 
HETATM   24  C   UNL     1       3.432  36.015  62.999  1.00  0.00     0.012 A 
HETATM   25  C   UNL     1       3.304  37.277  62.412  1.00  0.00     0.037 A 
HETATM   26  C   UNL     1       4.404  38.130  62.309  1.00  0.00     0.068 A 
HETATM   27  C   UNL     1       5.632  37.722  62.828  1.00  0.00     0.037 A 
HETATM   28  C   UNL     1       5.764  36.459  63.417  1.00  0.00     0.012 A 
BRANCH  26  29
HETATM   29  O   UNL     1       4.147  39.323  61.693  1.00  0.00    -0.356 OA
HETATM   30  C   UNL     1       4.965  40.423  62.072  1.00  0.00     0.210 C 
ENDBRANCH  26  29
ENDBRANCH   9  23
TORSDOF 4
ENDMDL
MODEL 8
REMARK VINA RESULT:      -7.6      3.462      5.536
REMARK  4 active torsions:
REMARK  status: ('A' for Active; 'I' for Inactive)
REMARK    1  A    between atoms: C_9  and  C_10 
REMARK    2  A    between atoms: C_13  and  O_14 
REMARK    3  A    between atoms: C_18  and  C_19 
REMARK       I    between atoms: C_19  and  N_20 
REMARK    4  A    between atoms: N_20  and  C_21 
ROOT
HETATM    1  C   UNL     1       5.464  27.181  50.545  1.00  0.00     0.070 C 
HETATM    2  C   UNL     1       6.066  26.660  51.826  1.00  0.00     0.037 C 
HETATM    3  N   UNL     1       7.024  25.660  51.667  1.00  0.00    -0.192 N 
HETATM    4  C   UNL     1       7.416  24.861  52.680  1.00  0.00     0.725 A 
HETATM    5  N   UNL     1       7.032  25.162  53.958  1.00  0.00    -0.084 N 
HETATM    6  N   UNL     1       7.419  24.203  54.826  1.00  0.00    -0.149 NA
HETATM    7  C   UNL     1       8.081  23.382  54.003  1.00  0.00     0.275 A 
HETATM    8  N   UNL     1       8.104  23.748  52.681  1.00  0.00    -0.054 NA
HETATM    9  C   UNL     1       6.253  26.352  54.320  1.00  0.00     0.202 C 
HETATM   10  C   UNL     1       5.682  27.029  53.075  1.00  0.00     0.062 C 
HETATM   11  H   UNL     1       7.213  25.338  50.721  1.00  0.00     0.184 HD
ENDROOT
BRANCH  10  12
HETATM   12  C   UNL     1       4.573  27.979  53.367  1.00  0.00     0.256 C 
HETATM   13  N   UNL     1       4.957  29.302  53.405  1.00  0.00    -0.323 N 
HETATM   14  H   UNL     1       5.946  29.497  53.317  1.00  0.00     0.169 HD
HETATM   15  O   UNL     1       3.453  27.527  53.573  1.00  0.00    -0.267 OA
BRANCH  13  16
HETATM   16  C   UNL     1       4.109  30.429  53.474  1.00  0.00     0.035 A 
HETATM   17  C   UNL     1       3.757  31.211  52.371  1.00  0.00     0.031 A 
HETATM   18  C   UNL     1       2.952  32.346  52.530  1.00  0.00     0.026 A 
HETATM   19  C   UNL     1       2.497  32.704  53.795  1.00  0.00     0.034 A 
HETATM   20 CL   UNL     1       1.525  34.109  53.991  1.00  0.00    -0.084 Cl
HETATM   21  C   UNL     1       2.833  31.932  54.902  1.00  0.00     0.026 A 
HETATM   22  C   UNL     1       3.632  30.794  54.741  1.00  0.00     0.031 A 
ENDBRANCH  13  16
ENDBRANCH  10  12
BRANCH   9  23
HETATM   23  C   UNL     1       7.108  27.303  55.155  1.00  0.00    -0.028 A 
HETATM   24  C   UNL     1       8.017  28.197  54.565  1.00  0.00     0.012 A 
HETATM   25  C   UNL     1       8.816  29.024  55.358  1.00  0.00     0.037 A 
HETATM   26  C   UNL     1       8.724  28.983  56.750  1.00  0.00     0.068 A 
HETATM   27  C   UNL     1       7.800  28.125  57.345  1.00  0.00     0.037 A 
HETATM   28  C   UNL     1       6.997  27.295  56.554  1.00  0.00     0.012 A 
BRANCH  26  29
HETATM   29  O   UNL     1       9.578  29.826  57.406  1.00  0.00    -0.356 OA
HETATM   30  C   UNL     1      10.941  29.793  57.001  1.00  0.00     0.210 C 
ENDBRANCH  26  29
ENDBRANCH   9  23
TORSDOF 4
ENDMDL
MODEL 9
REMARK VINA RESULT:      -7.5      3.367      6.233
REMARK  4 active torsions:
REMARK  status: ('A' for Active; 'I' for Inactive)
REMARK    1  A    between atoms: C_9  and  C_10 
REMARK    2  A    between atoms: C_13  and  O_14 
REMARK    3  A    between atoms: C_18  and  C_19 
REMARK       I    between atoms: C_19  and  N_20 
REMARK    4  A    between atoms: N_20  and  C_21 
ROOT
HETATM    1  C   UNL     1       5.496  30.863  50.560  1.00  0.00     0.070 C 
HETATM    2  C   UNL     1       5.236  29.388  50.380  1.00  0.00     0.037 C 
HETATM    3  N   UNL     1       5.470  28.896  49.098  1.00  0.00    -0.192 N 
HETATM    4  C   UNL     1       4.986  27.712  48.673  1.00  0.00     0.725 A 
HETATM    5  N   UNL     1       4.426  26.853  49.580  1.00  0.00    -0.084 N 
HETATM    6  N   UNL     1       3.900  25.770  48.971  1.00  0.00    -0.149 NA
HETATM    7  C   UNL     1       4.230  26.020  47.699  1.00  0.00     0.275 A 
HETATM    8  N   UNL     1       4.897  27.198  47.474  1.00  0.00    -0.054 NA
HETATM    9  C   UNL     1       4.365  27.113  51.023  1.00  0.00     0.202 C 
HETATM   10  C   UNL     1       4.724  28.566  51.332  1.00  0.00     0.062 C 
HETATM   11  H   UNL     1       5.757  29.564  48.385  1.00  0.00     0.184 HD
ENDROOT
BRANCH  10  12
HETATM   12  C   UNL     1       4.302  29.010  52.689  1.00  0.00     0.256 C 
HETATM   13  N   UNL     1       5.347  29.286  53.544  1.00  0.00    -0.323 N 
HETATM   14  H   UNL     1       6.280  29.086  53.208  1.00  0.00     0.169 HD
HETATM   15  O   UNL     1       3.104  29.066  52.942  1.00  0.00    -0.267 OA
BRANCH  13  16
HETATM   16  C   UNL     1       5.264  29.895  54.815  1.00  0.00     0.035 A 
HETATM   17  C   UNL     1       4.650  31.127  55.053  1.00  0.00     0.031 A 
HETATM   18  C   UNL     1       4.654  31.689  56.335  1.00  0.00     0.026 A 
HETATM   19  C   UNL     1       5.276  31.022  57.385  1.00  0.00     0.034 A 
HETATM   20 CL   UNL     1       5.298  31.724  58.955  1.00  0.00    -0.084 Cl
HETATM   21  C   UNL     1       5.887  29.791  57.166  1.00  0.00     0.026 A 
HETATM   22  C   UNL     1       5.875  29.227  55.886  1.00  0.00     0.031 A 
ENDBRANCH  13  16
ENDBRANCH  10  12
BRANCH   9  23
HETATM   23  C   UNL     1       5.259  26.125  51.771  1.00  0.00    -0.028 A 
HETATM   24  C   UNL     1       4.788  25.376  52.862  1.00  0.00     0.012 A 
HETATM   25  C   UNL     1       5.643  24.511  53.551  1.00  0.00     0.037 A 
HETATM   26  C   UNL     1       6.977  24.372  53.167  1.00  0.00     0.068 A 
HETATM   27  C   UNL     1       7.445  25.083  52.063  1.00  0.00     0.037 A 
HETATM   28  C   UNL     1       6.592  25.949  51.370  1.00  0.00     0.012 A 
BRANCH  26  29
HETATM   29  O   UNL     1       7.709  23.513  53.940  1.00  0.00    -0.356 OA
HETATM   30  C   UNL     1       7.802  22.169  53.485  1.00  0.00     0.210 C 
ENDBRANCH  26  29
ENDBRANCH   9  23
TORSDOF 4
ENDMDL
MODEL 10
REMARK VINA RESULT:      -7.5      9.148     12.786
REMARK  4 active torsions:
REMARK  status: ('A' for Active; 'I' for Inactive)
REMARK    1  A    between atoms: C_9  and  C_10 
REMARK    2  A    between atoms: C_13  and  O_14 
REMARK    3  A    between atoms: C_18  and  C_19 
REMARK       I    between atoms: C_19  and  N_20 
REMARK    4  A    between atoms: N_20  and  C_21 
ROOT
HETATM    1  C   UNL     1       7.974  33.350  64.355  1.00  0.00     0.070 C 
HETATM    2  C   UNL     1       6.552  33.851  64.411  1.00  0.00     0.037 C 
HETATM    3  N   UNL     1       6.277  34.742  65.445  1.00  0.00    -0.192 N 
HETATM    4  C   UNL     1       5.021  35.026  65.846  1.00  0.00     0.725 A 
HETATM    5  N   UNL     1       3.964  34.602  65.088  1.00  0.00    -0.084 N 
HETATM    6  N   UNL     1       2.787  34.877  65.689  1.00  0.00    -0.149 NA
HETATM    7  C   UNL     1       3.215  35.519  66.782  1.00  0.00     0.275 A 
HETATM    8  N   UNL     1       4.576  35.633  66.916  1.00  0.00    -0.054 NA
HETATM    9  C   UNL     1       4.105  33.892  63.811  1.00  0.00     0.202 C 
HETATM   10  C   UNL     1       5.547  33.433  63.599  1.00  0.00     0.062 C 
HETATM   11  H   UNL     1       7.031  34.954  66.094  1.00  0.00     0.184 HD
ENDROOT
BRANCH  10  12
HETATM   12  C   UNL     1       5.690  32.381  62.555  1.00  0.00     0.256 C 
HETATM   13  N   UNL     1       6.416  32.775  61.451  1.00  0.00    -0.323 N 
HETATM   14  H   UNL     1       6.705  33.744  61.413  1.00  0.00     0.169 HD
HETATM   15  O   UNL     1       5.150  31.297  62.736  1.00  0.00    -0.267 OA
BRANCH  13  16
HETATM   16  C   UNL     1       6.871  31.952  60.398  1.00  0.00     0.035 A 
HETATM   17  C   UNL     1       6.219  31.824  59.169  1.00  0.00     0.031 A 
HETATM   18  C   UNL     1       6.705  30.947  58.192  1.00  0.00     0.026 A 
HETATM   19  C   UNL     1       7.845  30.191  58.443  1.00  0.00     0.034 A 
HETATM   20 CL   UNL     1       8.430  29.098  57.249  1.00  0.00    -0.084 Cl
HETATM   21  C   UNL     1       8.510  30.311  59.659  1.00  0.00     0.026 A 
HETATM   22  C   UNL     1       8.027  31.194  60.631  1.00  0.00     0.031 A 
ENDBRANCH  13  16
ENDBRANCH  10  12
BRANCH   9  23
HETATM   23  C   UNL     1       3.603  34.771  62.667  1.00  0.00    -0.028 A 
HETATM   24  C   UNL     1       4.265  35.952  62.292  1.00  0.00     0.012 A 
HETATM   25  C   UNL     1       3.757  36.757  61.269  1.00  0.00     0.037 A 
HETATM   26  C   UNL     1       2.588  36.401  60.596  1.00  0.00     0.068 A 
HETATM   27  C   UNL     1       1.943  35.212  60.935  1.00  0.00     0.037 A 
HETATM   28  C   UNL     1       2.448  34.403  61.959  1.00  0.00     0.012 A 
BRANCH  26  29
HETATM   29  O   UNL     1       2.188  37.286  59.634  1.00  0.00    -0.356 OA
HETATM   30  C   UNL     1       2.425  38.663  59.899  1.00  0.00     0.210 C 
ENDBRANCH  26  29
ENDBRANCH   9  23
TORSDOF 4
ENDMDL
