MODEL 1
REMARK VINA RESULT:     -10.2      0.000      0.000
REMARK  3 active torsions:
REMARK  status: ('A' for Active; 'I' for Inactive)
REMARK    1  A    between atoms: C_7  and  C_8 
REMARK    2  A    between atoms: N_9  and  C_11 
REMARK    3  A    between atoms: C_11  and  C_12 
ROOT
HETATM    1  C   UNL     1       6.311  26.947  56.861  1.00  0.00     0.238 C 
HETATM    2  N   UNL     1       7.201  28.181  56.807  1.00  0.00    -0.056 N 
HETATM    3  H   UNL     1       6.919  28.744  57.617  1.00  0.00     0.281 HD
HETATM    4  C   UNL     1       6.986  29.064  55.604  1.00  0.00     0.236 C 
HETATM    5  C   UNL     1       5.524  29.463  55.496  1.00  0.00     0.028 C 
HETATM    6  C   UNL     1       4.607  28.251  55.455  1.00  0.00     0.004 C 
HETATM    7  C   UNL     1       4.844  27.350  56.661  1.00  0.00     0.040 C 
ENDROOT
BRANCH   2   8
HETATM    8  C   UNL     1       8.676  27.895  57.014  1.00  0.00     0.295 C 
BRANCH   8   9
HETATM    9  C   UNL     1       9.468  29.115  57.255  1.00  0.00     0.077 A 
HETATM   10  N   UNL     1       9.223  30.043  58.254  1.00  0.00    -0.155 N 
HETATM   11  C   UNL     1      10.146  31.078  58.086  1.00  0.00     0.732 A 
HETATM   12  C   UNL     1       8.269  30.077  59.267  1.00  0.00     0.117 A 
HETATM   13  N   UNL     1      10.124  32.178  58.889  1.00  0.00    -0.074 NA
HETATM   14  N   UNL     1      10.960  30.806  57.091  1.00  0.00    -0.072 NA
HETATM   15  C   UNL     1       9.234  32.190  59.832  1.00  0.00     0.138 A 
HETATM   16  C   UNL     1       8.224  31.129  60.097  1.00  0.00     0.038 A 
HETATM   17  C   UNL     1      10.591  29.589  56.608  1.00  0.00     0.164 A 
ENDBRANCH   8   9
ENDBRANCH   2   8
BRANCH   1  18
HETATM   18  C   UNL     1       6.745  25.830  55.966  1.00  0.00     0.041 A 
HETATM   19  N   UNL     1       6.832  24.536  56.446  1.00  0.00    -0.357 N 
HETATM   20  C   UNL     1       7.330  23.692  55.483  1.00  0.00     0.042 A 
HETATM   21  H   UNL     1       6.594  24.229  57.383  1.00  0.00     0.166 HD
HETATM   22  C   UNL     1       7.490  24.442  54.322  1.00  0.00    -0.008 A 
HETATM   23  C   UNL     1       7.629  22.327  55.547  1.00  0.00     0.030 A 
HETATM   24  C   UNL     1       7.967  23.806  53.161  1.00  0.00     0.014 A 
HETATM   25  C   UNL     1       7.095  25.772  54.628  1.00  0.00     0.040 A 
HETATM   26  C   UNL     1       8.276  22.443  53.207  1.00  0.00     0.001 A 
HETATM   27  C   UNL     1       8.110  21.717  54.385  1.00  0.00     0.002 A 
ENDBRANCH   1  18
TORSDOF 3
ENDMDL
MODEL 2
REMARK VINA RESULT:      -9.5      4.733      7.665
REMARK  3 active torsions:
REMARK  status: ('A' for Active; 'I' for Inactive)
REMARK    1  A    between atoms: C_7  and  C_8 
REMARK    2  A    between atoms: N_9  and  C_11 
REMARK    3  A    between atoms: C_11  and  C_12 
ROOT
HETATM    1  C   UNL     1       7.324  26.354  53.220  1.00  0.00     0.238 C 
HETATM    2  N   UNL     1       5.980  26.765  52.637  1.00  0.00    -0.056 N 
HETATM    3  H   UNL     1       6.103  27.743  52.354  1.00  0.00     0.281 HD
HETATM    4  C   UNL     1       4.838  26.769  53.622  1.00  0.00     0.236 C 
HETATM    5  C   UNL     1       5.180  27.634  54.823  1.00  0.00     0.028 C 
HETATM    6  C   UNL     1       6.474  27.196  55.489  1.00  0.00     0.004 C 
HETATM    7  C   UNL     1       7.620  27.171  54.485  1.00  0.00     0.040 C 
ENDROOT
BRANCH   2   8
HETATM    8  C   UNL     1       5.598  26.027  51.368  1.00  0.00     0.295 C 
BRANCH   8   9
HETATM    9  C   UNL     1       5.094  26.926  50.313  1.00  0.00     0.077 A 
HETATM   10  N   UNL     1       4.283  26.544  49.257  1.00  0.00    -0.155 N 
HETATM   11  C   UNL     1       4.101  27.671  48.452  1.00  0.00     0.732 A 
HETATM   12  C   UNL     1       3.715  25.316  48.928  1.00  0.00     0.117 A 
HETATM   13  N   UNL     1       3.389  27.601  47.293  1.00  0.00    -0.074 NA
HETATM   14  N   UNL     1       4.703  28.712  48.983  1.00  0.00    -0.072 NA
HETATM   15  C   UNL     1       2.861  26.452  47.006  1.00  0.00     0.138 A 
HETATM   16  C   UNL     1       2.985  25.205  47.809  1.00  0.00     0.038 A 
HETATM   17  C   UNL     1       5.268  28.285  50.144  1.00  0.00     0.164 A 
ENDBRANCH   8   9
ENDBRANCH   2   8
BRANCH   1  18
HETATM   18  C   UNL     1       7.490  24.879  53.415  1.00  0.00     0.041 A 
HETATM   19  N   UNL     1       7.263  24.303  54.651  1.00  0.00    -0.357 N 
HETATM   20  C   UNL     1       7.557  22.960  54.623  1.00  0.00     0.042 A 
HETATM   21  H   UNL     1       6.950  24.784  55.487  1.00  0.00     0.166 HD
HETATM   22  C   UNL     1       7.902  22.642  53.312  1.00  0.00    -0.008 A 
HETATM   23  C   UNL     1       7.524  22.008  55.647  1.00  0.00     0.030 A 
HETATM   24  C   UNL     1       8.226  21.310  52.998  1.00  0.00     0.014 A 
HETATM   25  C   UNL     1       7.829  23.845  52.560  1.00  0.00     0.040 A 
HETATM   26  C   UNL     1       8.203  20.345  54.011  1.00  0.00     0.001 A 
HETATM   27  C   UNL     1       7.858  20.692  55.315  1.00  0.00     0.002 A 
ENDBRANCH   1  18
TORSDOF 3
ENDMDL
MODEL 3
REMARK VINA RESULT:      -9.5      1.664      2.743
REMARK  3 active torsions:
REMARK  status: ('A' for Active; 'I' for Inactive)
REMARK    1  A    between atoms: C_7  and  C_8 
REMARK    2  A    between atoms: N_9  and  C_11 
REMARK    3  A    between atoms: C_11  and  C_12 
ROOT
HETATM    1  C   UNL     1       5.778  25.922  54.859  1.00  0.00     0.238 C 
HETATM    2  N   UNL     1       6.663  27.145  55.048  1.00  0.00    -0.056 N 
HETATM    3  H   UNL     1       6.012  27.914  55.239  1.00  0.00     0.281 HD
HETATM    4  C   UNL     1       7.436  27.563  53.823  1.00  0.00     0.236 C 
HETATM    5  C   UNL     1       6.494  27.770  52.649  1.00  0.00     0.028 C 
HETATM    6  C   UNL     1       5.654  26.534  52.371  1.00  0.00     0.004 C 
HETATM    7  C   UNL     1       4.893  26.102  53.618  1.00  0.00     0.040 C 
ENDROOT
BRANCH   2   8
HETATM    8  C   UNL     1       7.569  27.077  56.264  1.00  0.00     0.295 C 
BRANCH   8   9
HETATM    9  C   UNL     1       7.614  28.345  57.015  1.00  0.00     0.077 A 
HETATM   10  N   UNL     1       8.741  29.133  57.186  1.00  0.00    -0.155 N 
HETATM   11  C   UNL     1       8.375  30.194  58.018  1.00  0.00     0.732 A 
HETATM   12  C   UNL     1      10.041  29.000  56.708  1.00  0.00     0.117 A 
HETATM   13  N   UNL     1       9.289  31.120  58.421  1.00  0.00    -0.074 NA
HETATM   14  N   UNL     1       7.095  30.124  58.311  1.00  0.00    -0.072 NA
HETATM   15  C   UNL     1      10.493  30.985  57.960  1.00  0.00     0.138 A 
HETATM   16  C   UNL     1      10.970  29.901  57.058  1.00  0.00     0.038 A 
HETATM   17  C   UNL     1       6.608  29.031  57.664  1.00  0.00     0.164 A 
ENDBRANCH   8   9
ENDBRANCH   2   8
BRANCH   1  18
HETATM   18  C   UNL     1       6.510  24.617  54.879  1.00  0.00     0.041 A 
HETATM   19  N   UNL     1       6.874  23.995  53.699  1.00  0.00    -0.357 N 
HETATM   20  C   UNL     1       7.456  22.776  53.951  1.00  0.00     0.042 A 
HETATM   21  H   UNL     1       6.720  24.353  52.763  1.00  0.00     0.166 HD
HETATM   22  C   UNL     1       7.549  22.642  55.333  1.00  0.00    -0.008 A 
HETATM   23  C   UNL     1       7.921  21.798  53.065  1.00  0.00     0.030 A 
HETATM   24  C   UNL     1       8.139  21.482  55.867  1.00  0.00     0.014 A 
HETATM   25  C   UNL     1       6.980  23.813  55.903  1.00  0.00     0.040 A 
HETATM   26  C   UNL     1       8.606  20.491  54.996  1.00  0.00     0.001 A 
HETATM   27  C   UNL     1       8.496  20.650  53.616  1.00  0.00     0.002 A 
ENDBRANCH   1  18
TORSDOF 3
ENDMDL
MODEL 4
REMARK VINA RESULT:      -9.2      3.789      6.435
REMARK  3 active torsions:
REMARK  status: ('A' for Active; 'I' for Inactive)
REMARK    1  A    between atoms: C_7  and  C_8 
REMARK    2  A    between atoms: N_9  and  C_11 
REMARK    3  A    between atoms: C_11  and  C_12 
ROOT
HETATM    1  C   UNL     1       7.276  26.683  54.474  1.00  0.00     0.238 C 
HETATM    2  N   UNL     1       5.849  27.194  54.337  1.00  0.00    -0.056 N 
HETATM    3  H   UNL     1       5.939  28.214  54.284  1.00  0.00     0.281 HD
HETATM    4  C   UNL     1       4.963  26.926  55.527  1.00  0.00     0.236 C 
HETATM    5  C   UNL     1       5.600  27.473  56.793  1.00  0.00     0.028 C 
HETATM    6  C   UNL     1       6.996  26.914  57.013  1.00  0.00     0.004 C 
HETATM    7  C   UNL     1       7.881  27.167  55.799  1.00  0.00     0.040 C 
ENDROOT
BRANCH   2   8
HETATM    8  C   UNL     1       5.162  26.786  53.047  1.00  0.00     0.295 C 
BRANCH   8   9
HETATM    9  C   UNL     1       5.322  27.784  51.973  1.00  0.00     0.077 A 
HETATM   10  N   UNL     1       5.115  27.546  50.624  1.00  0.00    -0.155 N 
HETATM   11  C   UNL     1       5.448  28.721  49.946  1.00  0.00     0.732 A 
HETATM   12  C   UNL     1       4.690  26.410  49.942  1.00  0.00     0.117 A 
HETATM   13  N   UNL     1       5.403  28.787  48.586  1.00  0.00    -0.074 NA
HETATM   14  N   UNL     1       5.787  29.661  50.801  1.00  0.00    -0.072 NA
HETATM   15  C   UNL     1       4.998  27.722  47.967  1.00  0.00     0.138 A 
HETATM   16  C   UNL     1       4.606  26.434  48.604  1.00  0.00     0.038 A 
HETATM   17  C   UNL     1       5.665  29.119  52.042  1.00  0.00     0.164 A 
ENDBRANCH   8   9
ENDBRANCH   2   8
BRANCH   1  18
HETATM   18  C   UNL     1       7.431  25.211  54.255  1.00  0.00     0.041 A 
HETATM   19  N   UNL     1       7.318  24.326  55.311  1.00  0.00    -0.357 N 
HETATM   20  C   UNL     1       7.580  23.041  54.899  1.00  0.00     0.042 A 
HETATM   21  H   UNL     1       7.100  24.566  56.272  1.00  0.00     0.166 HD
HETATM   22  C   UNL     1       7.785  23.084  53.523  1.00  0.00    -0.008 A 
HETATM   23  C   UNL     1       7.632  21.851  55.633  1.00  0.00     0.030 A 
HETATM   24  C   UNL     1       8.048  21.884  52.837  1.00  0.00     0.014 A 
HETATM   25  C   UNL     1       7.661  24.443  53.126  1.00  0.00     0.040 A 
HETATM   26  C   UNL     1       8.108  20.685  53.555  1.00  0.00     0.001 A 
HETATM   27  C   UNL     1       7.904  20.673  54.933  1.00  0.00     0.002 A 
ENDBRANCH   1  18
TORSDOF 3
ENDMDL
MODEL 5
REMARK VINA RESULT:      -9.0      1.774      2.469
REMARK  3 active torsions:
REMARK  status: ('A' for Active; 'I' for Inactive)
REMARK    1  A    between atoms: C_7  and  C_8 
REMARK    2  A    between atoms: N_9  and  C_11 
REMARK    3  A    between atoms: C_11  and  C_12 
ROOT
HETATM    1  C   UNL     1       5.621  26.018  54.563  1.00  0.00     0.238 C 
HETATM    2  N   UNL     1       6.522  27.186  54.939  1.00  0.00    -0.056 N 
HETATM    3  H   UNL     1       5.881  27.921  55.257  1.00  0.00     0.281 HD
HETATM    4  C   UNL     1       7.291  27.788  53.791  1.00  0.00     0.236 C 
HETATM    5  C   UNL     1       6.344  28.191  52.674  1.00  0.00     0.028 C 
HETATM    6  C   UNL     1       5.488  27.025  52.207  1.00  0.00     0.004 C 
HETATM    7  C   UNL     1       4.730  26.405  53.375  1.00  0.00     0.040 C 
ENDROOT
BRANCH   2   8
HETATM    8  C   UNL     1       7.435  26.914  56.120  1.00  0.00     0.295 C 
BRANCH   8   9
HETATM    9  C   UNL     1       7.873  28.146  56.801  1.00  0.00     0.077 A 
HETATM   10  N   UNL     1       7.033  29.140  57.274  1.00  0.00    -0.155 N 
HETATM   11  C   UNL     1       7.846  30.159  57.775  1.00  0.00     0.732 A 
HETATM   12  C   UNL     1       5.645  29.246  57.288  1.00  0.00     0.117 A 
HETATM   13  N   UNL     1       7.311  31.312  58.265  1.00  0.00    -0.074 NA
HETATM   14  N   UNL     1       9.113  29.818  57.683  1.00  0.00    -0.072 NA
HETATM   15  C   UNL     1       6.016  31.390  58.278  1.00  0.00     0.138 A 
HETATM   16  C   UNL     1       5.071  30.351  57.784  1.00  0.00     0.038 A 
HETATM   17  C   UNL     1       9.142  28.572  57.139  1.00  0.00     0.164 A 
ENDBRANCH   8   9
ENDBRANCH   2   8
BRANCH   1  18
HETATM   18  C   UNL     1       6.339  24.720  54.366  1.00  0.00     0.041 A 
HETATM   19  N   UNL     1       6.612  23.896  55.442  1.00  0.00    -0.357 N 
HETATM   20  C   UNL     1       7.349  22.806  55.046  1.00  0.00     0.042 A 
HETATM   21  H   UNL     1       6.343  24.062  56.406  1.00  0.00     0.166 HD
HETATM   22  C   UNL     1       7.483  22.881  53.662  1.00  0.00    -0.008 A 
HETATM   23  C   UNL     1       7.885  21.757  55.800  1.00  0.00     0.030 A 
HETATM   24  C   UNL     1       8.180  21.861  52.990  1.00  0.00     0.014 A 
HETATM   25  C   UNL     1       6.823  24.068  53.245  1.00  0.00     0.040 A 
HETATM   26  C   UNL     1       8.727  20.806  53.728  1.00  0.00     0.001 A 
HETATM   27  C   UNL     1       8.581  20.758  55.113  1.00  0.00     0.002 A 
ENDBRANCH   1  18
TORSDOF 3
ENDMDL
MODEL 6
REMARK VINA RESULT:      -8.6      1.753      7.523
REMARK  3 active torsions:
REMARK  status: ('A' for Active; 'I' for Inactive)
REMARK    1  A    between atoms: C_7  and  C_8 
REMARK    2  A    between atoms: N_9  and  C_11 
REMARK    3  A    between atoms: C_11  and  C_12 
ROOT
HETATM    1  C   UNL     1       7.004  27.082  55.439  1.00  0.00     0.238 C 
HETATM    2  N   UNL     1       6.979  25.680  56.032  1.00  0.00    -0.056 N 
HETATM    3  H   UNL     1       6.563  25.092  55.301  1.00  0.00     0.281 HD
HETATM    4  C   UNL     1       6.089  25.519  57.238  1.00  0.00     0.236 C 
HETATM    5  C   UNL     1       4.677  25.982  56.918  1.00  0.00     0.028 C 
HETATM    6  C   UNL     1       4.651  27.413  56.407  1.00  0.00     0.004 C 
HETATM    7  C   UNL     1       5.570  27.577  55.203  1.00  0.00     0.040 C 
ENDROOT
BRANCH   2   8
HETATM    8  C   UNL     1       8.352  25.087  56.288  1.00  0.00     0.295 C 
BRANCH   8   9
HETATM    9  C   UNL     1       8.351  23.613  56.267  1.00  0.00     0.077 A 
HETATM   10  N   UNL     1       8.221  22.829  55.132  1.00  0.00    -0.155 N 
HETATM   11  C   UNL     1       8.192  21.499  55.555  1.00  0.00     0.732 A 
HETATM   12  C   UNL     1       8.104  23.167  53.787  1.00  0.00     0.117 A 
HETATM   13  N   UNL     1       8.013  20.481  54.667  1.00  0.00    -0.074 NA
HETATM   14  N   UNL     1       8.351  21.431  56.858  1.00  0.00    -0.072 NA
HETATM   15  C   UNL     1       7.913  20.813  53.418  1.00  0.00     0.138 A 
HETATM   16  C   UNL     1       7.951  22.198  52.873  1.00  0.00     0.038 A 
HETATM   17  C   UNL     1       8.502  22.708  57.299  1.00  0.00     0.164 A 
ENDBRANCH   8   9
ENDBRANCH   2   8
BRANCH   1  18
HETATM   18  C   UNL     1       7.850  28.059  56.192  1.00  0.00     0.041 A 
HETATM   19  N   UNL     1       7.523  28.426  57.484  1.00  0.00    -0.357 N 
HETATM   20  C   UNL     1       8.383  29.392  57.948  1.00  0.00     0.042 A 
HETATM   21  H   UNL     1       6.745  28.069  58.028  1.00  0.00     0.166 HD
HETATM   22  C   UNL     1       9.344  29.594  56.963  1.00  0.00    -0.008 A 
HETATM   23  C   UNL     1       8.392  30.082  59.166  1.00  0.00     0.030 A 
HETATM   24  C   UNL     1      10.373  30.525  57.197  1.00  0.00     0.014 A 
HETATM   25  C   UNL     1       9.018  28.735  55.880  1.00  0.00     0.040 A 
HETATM   26  C   UNL     1      10.396  31.228  58.407  1.00  0.00     0.001 A 
HETATM   27  C   UNL     1       9.418  31.008  59.374  1.00  0.00     0.002 A 
ENDBRANCH   1  18
TORSDOF 3
ENDMDL
MODEL 7
REMARK VINA RESULT:      -8.3      2.665      5.114
REMARK  3 active torsions:
REMARK  status: ('A' for Active; 'I' for Inactive)
REMARK    1  A    between atoms: C_7  and  C_8 
REMARK    2  A    between atoms: N_9  and  C_11 
REMARK    3  A    between atoms: C_11  and  C_12 
ROOT
HETATM    1  C   UNL     1       7.202  28.267  54.981  1.00  0.00     0.238 C 
HETATM    2  N   UNL     1       6.079  28.511  55.979  1.00  0.00    -0.056 N 
HETATM    3  H   UNL     1       5.965  29.531  56.002  1.00  0.00     0.281 HD
HETATM    4  C   UNL     1       6.393  28.105  57.397  1.00  0.00     0.236 C 
HETATM    5  C   UNL     1       7.672  28.776  57.867  1.00  0.00     0.028 C 
HETATM    6  C   UNL     1       8.841  28.480  56.942  1.00  0.00     0.004 C 
HETATM    7  C   UNL     1       8.511  28.870  55.507  1.00  0.00     0.040 C 
ENDROOT
BRANCH   2   8
HETATM    8  C   UNL     1       4.730  27.968  55.545  1.00  0.00     0.295 C 
BRANCH   8   9
HETATM    9  C   UNL     1       4.241  28.581  54.296  1.00  0.00     0.077 A 
HETATM   10  N   UNL     1       3.923  29.919  54.133  1.00  0.00    -0.155 N 
HETATM   11  C   UNL     1       3.430  30.067  52.835  1.00  0.00     0.732 A 
HETATM   12  C   UNL     1       4.001  30.999  55.008  1.00  0.00     0.117 A 
HETATM   13  N   UNL     1       2.974  31.270  52.387  1.00  0.00    -0.074 NA
HETATM   14  N   UNL     1       3.484  28.920  52.193  1.00  0.00    -0.072 NA
HETATM   15  C   UNL     1       3.061  32.267  53.212  1.00  0.00     0.138 A 
HETATM   16  C   UNL     1       3.587  32.208  54.604  1.00  0.00     0.038 A 
HETATM   17  C   UNL     1       4.025  28.018  53.055  1.00  0.00     0.164 A 
ENDBRANCH   8   9
ENDBRANCH   2   8
BRANCH   1  18
HETATM   18  C   UNL     1       7.341  26.844  54.540  1.00  0.00     0.041 A 
HETATM   19  N   UNL     1       7.349  25.817  55.467  1.00  0.00    -0.357 N 
HETATM   20  C   UNL     1       7.573  24.609  54.851  1.00  0.00     0.042 A 
HETATM   21  H   UNL     1       7.237  25.916  56.470  1.00  0.00     0.166 HD
HETATM   22  C   UNL     1       7.625  24.848  53.481  1.00  0.00    -0.008 A 
HETATM   23  C   UNL     1       7.711  23.329  55.400  1.00  0.00     0.030 A 
HETATM   24  C   UNL     1       7.819  23.763  52.608  1.00  0.00     0.014 A 
HETATM   25  C   UNL     1       7.451  26.246  53.297  1.00  0.00     0.040 A 
HETATM   26  C   UNL     1       7.964  22.477  53.138  1.00  0.00     0.001 A 
HETATM   27  C   UNL     1       7.912  22.266  54.514  1.00  0.00     0.002 A 
ENDBRANCH   1  18
TORSDOF 3
ENDMDL
MODEL 8
REMARK VINA RESULT:      -8.3      3.485      5.285
REMARK  3 active torsions:
REMARK  status: ('A' for Active; 'I' for Inactive)
REMARK    1  A    between atoms: C_7  and  C_8 
REMARK    2  A    between atoms: N_9  and  C_11 
REMARK    3  A    between atoms: C_11  and  C_12 
ROOT
HETATM    1  C   UNL     1       7.317  26.275  52.910  1.00  0.00     0.238 C 
HETATM    2  N   UNL     1       6.919  26.108  54.369  1.00  0.00    -0.056 N 
HETATM    3  H   UNL     1       7.808  26.038  54.878  1.00  0.00     0.281 HD
HETATM    4  C   UNL     1       6.172  24.837  54.681  1.00  0.00     0.236 C 
HETATM    5  C   UNL     1       6.964  23.629  54.209  1.00  0.00     0.028 C 
HETATM    6  C   UNL     1       7.302  23.716  52.729  1.00  0.00     0.004 C 
HETATM    7  C   UNL     1       8.037  25.013  52.415  1.00  0.00     0.040 C 
ENDROOT
BRANCH   2   8
HETATM    8  C   UNL     1       6.214  27.312  54.964  1.00  0.00     0.295 C 
BRANCH   8   9
HETATM    9  C   UNL     1       6.847  27.791  56.207  1.00  0.00     0.077 A 
HETATM   10  N   UNL     1       6.611  29.019  56.803  1.00  0.00    -0.155 N 
HETATM   11  C   UNL     1       7.462  29.108  57.907  1.00  0.00     0.732 A 
HETATM   12  C   UNL     1       5.751  30.059  56.463  1.00  0.00     0.117 A 
HETATM   13  N   UNL     1       7.507  30.234  58.673  1.00  0.00    -0.074 NA
HETATM   14  N   UNL     1       8.150  27.996  58.043  1.00  0.00    -0.072 NA
HETATM   15  C   UNL     1       6.693  31.190  58.347  1.00  0.00     0.138 A 
HETATM   16  C   UNL     1       5.741  31.177  57.202  1.00  0.00     0.038 A 
HETATM   17  C   UNL     1       7.748  27.165  57.045  1.00  0.00     0.164 A 
ENDBRANCH   8   9
ENDBRANCH   2   8
BRANCH   1  18
HETATM   18  C   UNL     1       6.204  26.711  52.010  1.00  0.00     0.041 A 
HETATM   19  N   UNL     1       5.840  25.947  50.917  1.00  0.00    -0.357 N 
HETATM   20  C   UNL     1       4.860  26.576  50.187  1.00  0.00     0.042 A 
HETATM   21  H   UNL     1       6.244  25.055  50.651  1.00  0.00     0.166 HD
HETATM   22  C   UNL     1       4.519  27.738  50.873  1.00  0.00    -0.008 A 
HETATM   23  C   UNL     1       4.241  26.195  48.992  1.00  0.00     0.030 A 
HETATM   24  C   UNL     1       3.508  28.565  50.350  1.00  0.00     0.014 A 
HETATM   25  C   UNL     1       5.347  27.798  52.026  1.00  0.00     0.040 A 
HETATM   26  C   UNL     1       2.881  28.203  49.152  1.00  0.00     0.001 A 
HETATM   27  C   UNL     1       3.246  27.035  48.485  1.00  0.00     0.002 A 
ENDBRANCH   1  18
TORSDOF 3
ENDMDL
MODEL 9
REMARK VINA RESULT:      -8.2      3.717      5.859
REMARK  3 active torsions:
REMARK  status: ('A' for Active; 'I' for Inactive)
REMARK    1  A    between atoms: C_7  and  C_8 
REMARK    2  A    between atoms: N_9  and  C_11 
REMARK    3  A    between atoms: C_11  and  C_12 
ROOT
HETATM    1  C   UNL     1       7.533  26.020  55.720  1.00  0.00     0.238 C 
HETATM    2  N   UNL     1       6.818  26.923  54.726  1.00  0.00    -0.056 N 
HETATM    3  H   UNL     1       6.971  27.875  55.076  1.00  0.00     0.281 HD
HETATM    4  C   UNL     1       5.321  26.746  54.673  1.00  0.00     0.236 C 
HETATM    5  C   UNL     1       4.722  26.908  56.059  1.00  0.00     0.028 C 
HETATM    6  C   UNL     1       5.350  25.956  57.065  1.00  0.00     0.004 C 
HETATM    7  C   UNL     1       6.864  26.123  57.097  1.00  0.00     0.040 C 
ENDROOT
BRANCH   2   8
HETATM    8  C   UNL     1       7.415  26.910  53.331  1.00  0.00     0.295 C 
BRANCH   8   9
HETATM    9  C   UNL     1       6.397  26.759  52.274  1.00  0.00     0.077 A 
HETATM   10  N   UNL     1       5.667  27.794  51.713  1.00  0.00    -0.155 N 
HETATM   11  C   UNL     1       4.766  27.217  50.815  1.00  0.00     0.732 A 
HETATM   12  C   UNL     1       5.700  29.168  51.928  1.00  0.00     0.117 A 
HETATM   13  N   UNL     1       3.861  27.979  50.139  1.00  0.00    -0.074 NA
HETATM   14  N   UNL     1       4.945  25.916  50.760  1.00  0.00    -0.072 NA
HETATM   15  C   UNL     1       3.911  29.258  50.345  1.00  0.00     0.138 A 
HETATM   16  C   UNL     1       4.845  29.961  51.267  1.00  0.00     0.038 A 
HETATM   17  C   UNL     1       5.971  25.629  51.605  1.00  0.00     0.164 A 
ENDBRANCH   8   9
ENDBRANCH   2   8
BRANCH   1  18
HETATM   18  C   UNL     1       7.719  24.610  55.256  1.00  0.00     0.041 A 
HETATM   19  N   UNL     1       7.622  23.557  56.146  1.00  0.00    -0.357 N 
HETATM   20  C   UNL     1       7.911  22.365  55.524  1.00  0.00     0.042 A 
HETATM   21  H   UNL     1       7.398  23.627  57.133  1.00  0.00     0.166 HD
HETATM   22  C   UNL     1       8.116  22.645  54.176  1.00  0.00    -0.008 A 
HETATM   23  C   UNL     1       7.986  21.070  56.047  1.00  0.00     0.030 A 
HETATM   24  C   UNL     1       8.405  21.585  53.298  1.00  0.00     0.014 A 
HETATM   25  C   UNL     1       7.966  24.049  54.015  1.00  0.00     0.040 A 
HETATM   26  C   UNL     1       8.489  20.283  53.803  1.00  0.00     0.001 A 
HETATM   27  C   UNL     1       8.282  20.033  55.158  1.00  0.00     0.002 A 
ENDBRANCH   1  18
TORSDOF 3
ENDMDL
MODEL 10
REMARK VINA RESULT:      -8.2      3.967      5.876
REMARK  3 active torsions:
REMARK  status: ('A' for Active; 'I' for Inactive)
REMARK    1  A    between atoms: C_7  and  C_8 
REMARK    2  A    between atoms: N_9  and  C_11 
REMARK    3  A    between atoms: C_11  and  C_12 
ROOT
HETATM    1  C   UNL     1       6.952  26.413  52.488  1.00  0.00     0.238 C 
HETATM    2  N   UNL     1       6.249  26.452  53.837  1.00  0.00    -0.056 N 
HETATM    3  H   UNL     1       7.001  26.583  54.523  1.00  0.00     0.281 HD
HETATM    4  C   UNL     1       5.560  25.170  54.230  1.00  0.00     0.236 C 
HETATM    5  C   UNL     1       6.538  24.008  54.179  1.00  0.00     0.028 C 
HETATM    6  C   UNL     1       7.195  23.880  52.814  1.00  0.00     0.004 C 
HETATM    7  C   UNL     1       7.870  25.185  52.411  1.00  0.00     0.040 C 
ENDROOT
BRANCH   2   8
HETATM    8  C   UNL     1       5.327  27.643  54.026  1.00  0.00     0.295 C 
BRANCH   8   9
HETATM    9  C   UNL     1       5.457  28.262  55.358  1.00  0.00     0.077 A 
HETATM   10  N   UNL     1       6.638  28.728  55.911  1.00  0.00    -0.155 N 
HETATM   11  C   UNL     1       6.340  29.163  57.204  1.00  0.00     0.732 A 
HETATM   12  C   UNL     1       7.934  28.786  55.405  1.00  0.00     0.117 A 
HETATM   13  N   UNL     1       7.316  29.629  58.033  1.00  0.00    -0.074 NA
HETATM   14  N   UNL     1       5.053  29.041  57.441  1.00  0.00    -0.072 NA
HETATM   15  C   UNL     1       8.515  29.683  57.543  1.00  0.00     0.138 A 
HETATM   16  C   UNL     1       8.923  29.260  56.176  1.00  0.00     0.038 A 
HETATM   17  C   UNL     1       4.494  28.541  56.306  1.00  0.00     0.164 A 
ENDBRANCH   8   9
ENDBRANCH   2   8
BRANCH   1  18
HETATM   18  C   UNL     1       6.040  26.544  51.309  1.00  0.00     0.041 A 
HETATM   19  N   UNL     1       6.004  27.714  50.574  1.00  0.00    -0.357 N 
HETATM   20  C   UNL     1       5.040  27.645  49.596  1.00  0.00     0.042 A 
HETATM   21  H   UNL     1       6.579  28.536  50.728  1.00  0.00     0.166 HD
HETATM   22  C   UNL     1       4.495  26.365  49.646  1.00  0.00    -0.008 A 
HETATM   23  C   UNL     1       4.627  28.606  48.667  1.00  0.00     0.030 A 
HETATM   24  C   UNL     1       3.493  26.016  48.723  1.00  0.00     0.014 A 
HETATM   25  C   UNL     1       5.148  25.676  50.703  1.00  0.00     0.040 A 
HETATM   26  C   UNL     1       3.064  26.966  47.789  1.00  0.00     0.001 A 
HETATM   27  C   UNL     1       3.624  28.241  47.765  1.00  0.00     0.002 A 
ENDBRANCH   1  18
TORSDOF 3
ENDMDL
