MODEL 1
REMARK VINA RESULT:      -8.1      0.000      0.000
REMARK  5 active torsions:
REMARK  status: ('A' for Active; 'I' for Inactive)
REMARK    1  A    between atoms: C_2  and  C_3 
REMARK    2  A    between atoms: C_3  and  N_4 
REMARK       I    between atoms: N_4  and  C_5 
REMARK    3  A    between atoms: C_5  and  C_6 
REMARK    4  A    between atoms: C_10  and  N_11 
REMARK       I    between atoms: N_11  and  C_12 
REMARK       I    between atoms: C_12  and  N_13 
REMARK    5  A    between atoms: N_13  and  C_14 
ROOT
HETATM    1  C   UNL     1       7.437  25.855  55.088  1.00  0.00     0.053 A 
HETATM    2  C   UNL     1       7.359  27.198  54.699  1.00  0.00     0.051 A 
HETATM    3 CL   UNL     1       6.776  27.709  53.150  1.00  0.00    -0.083 Cl
HETATM    4  C   UNL     1       7.719  28.216  55.598  1.00  0.00     0.054 A 
HETATM    5  C   UNL     1       8.158  27.910  56.888  1.00  0.00     0.038 A 
HETATM    6  C   UNL     1       8.225  26.571  57.280  1.00  0.00     0.030 A 
HETATM    7  C   UNL     1       7.865  25.554  56.391  1.00  0.00     0.021 A 
ENDROOT
BRANCH   5   8
HETATM    8  N   UNL     1       8.495  28.882  57.852  1.00  0.00    -0.309 N 
HETATM    9  C   UNL     1       9.409  29.895  57.729  1.00  0.00     0.325 C 
HETATM   10  N   UNL     1       9.414  30.832  58.728  1.00  0.00    -0.306 N 
HETATM   11  O   UNL     1      10.244  29.994  56.834  1.00  0.00    -0.247 OA
HETATM   12  H   UNL     1      10.218  31.448  58.683  1.00  0.00     0.171 HD
HETATM   13  H   UNL     1       8.190  28.702  58.797  1.00  0.00     0.170 HD
BRANCH  10  14
HETATM   14  C   UNL     1       8.439  31.154  59.650  1.00  0.00     0.072 A 
HETATM   15  C   UNL     1       7.293  31.979  59.593  1.00  0.00     0.169 A 
HETATM   16  N   UNL     1       6.617  31.998  60.745  1.00  0.00    -0.185 NA
HETATM   17  N   UNL     1       7.355  31.225  61.557  1.00  0.00    -0.287 N 
HETATM   18  H   UNL     1       7.044  31.100  62.516  1.00  0.00     0.188 HD
HETATM   19  C   UNL     1       8.461  30.706  60.951  1.00  0.00     0.140 A 
ENDBRANCH  10  14
ENDBRANCH   5   8
BRANCH   1  20
HETATM   20  C   UNL     1       7.051  24.692  54.240  1.00  0.00     0.253 C 
HETATM   21  N   UNL     1       8.035  23.782  53.922  1.00  0.00    -0.356 N 
HETATM   22  H   UNL     1       8.995  24.051  54.102  1.00  0.00     0.162 HD
HETATM   23  O   UNL     1       5.881  24.570  53.891  1.00  0.00    -0.268 OA
BRANCH  21  24
HETATM   24  C   UNL     1       7.798  22.741  52.939  1.00  0.00     0.126 C 
BRANCH  24  25
HETATM   25  C   UNL     1       7.723  21.340  53.561  1.00  0.00    -0.005 C 
HETATM   26  C   UNL     1       8.198  21.324  55.015  1.00  0.00     0.011 C 
HETATM   27  C   UNL     1       8.562  20.363  52.735  1.00  0.00     0.011 C 
ENDBRANCH  24  25
ENDBRANCH  21  24
ENDBRANCH   1  20
TORSDOF 5
ENDMDL
MODEL 2
REMARK VINA RESULT:      -8.1      2.501      8.913
REMARK  5 active torsions:
REMARK  status: ('A' for Active; 'I' for Inactive)
REMARK    1  A    between atoms: C_2  and  C_3 
REMARK    2  A    between atoms: C_3  and  N_4 
REMARK       I    between atoms: N_4  and  C_5 
REMARK    3  A    between atoms: C_5  and  C_6 
REMARK    4  A    between atoms: C_10  and  N_11 
REMARK       I    between atoms: N_11  and  C_12 
REMARK       I    between atoms: C_12  and  N_13 
REMARK    5  A    between atoms: N_13  and  C_14 
ROOT
HETATM    1  C   UNL     1       8.817  30.187  58.333  1.00  0.00     0.053 A 
HETATM    2  C   UNL     1       9.730  29.617  57.439  1.00  0.00     0.051 A 
HETATM    3 CL   UNL     1      11.410  30.036  57.396  1.00  0.00    -0.083 Cl
HETATM    4  C   UNL     1       9.313  28.616  56.546  1.00  0.00     0.054 A 
HETATM    5  C   UNL     1       7.988  28.174  56.534  1.00  0.00     0.038 A 
HETATM    6  C   UNL     1       7.079  28.735  57.433  1.00  0.00     0.030 A 
HETATM    7  C   UNL     1       7.489  29.729  58.326  1.00  0.00     0.021 A 
ENDROOT
BRANCH   5   8
HETATM    8  N   UNL     1       7.513  27.147  55.694  1.00  0.00    -0.309 N 
HETATM    9  C   UNL     1       7.293  27.210  54.343  1.00  0.00     0.325 C 
HETATM   10  N   UNL     1       7.022  26.023  53.716  1.00  0.00    -0.306 N 
HETATM   11  O   UNL     1       7.269  28.240  53.674  1.00  0.00    -0.247 OA
HETATM   12  H   UNL     1       6.692  26.148  52.766  1.00  0.00     0.171 HD
HETATM   13  H   UNL     1       7.099  26.347  56.151  1.00  0.00     0.170 HD
BRANCH  10  14
HETATM   14  C   UNL     1       7.279  24.727  54.115  1.00  0.00     0.072 A 
HETATM   15  C   UNL     1       6.925  23.984  55.263  1.00  0.00     0.169 A 
HETATM   16  N   UNL     1       7.397  22.734  55.232  1.00  0.00    -0.185 NA
HETATM   17  N   UNL     1       8.095  22.689  54.086  1.00  0.00    -0.287 N 
HETATM   18  H   UNL     1       8.572  21.825  53.847  1.00  0.00     0.188 HD
HETATM   19  C   UNL     1       8.064  23.861  53.387  1.00  0.00     0.140 A 
ENDBRANCH  10  14
ENDBRANCH   5   8
BRANCH   1  20
HETATM   20  C   UNL     1       9.145  31.227  59.349  1.00  0.00     0.253 C 
HETATM   21  N   UNL     1       9.030  30.881  60.677  1.00  0.00    -0.356 N 
HETATM   22  H   UNL     1       8.540  30.021  60.893  1.00  0.00     0.162 HD
HETATM   23  O   UNL     1       9.534  32.329  58.971  1.00  0.00    -0.268 OA
BRANCH  21  24
HETATM   24  C   UNL     1       9.128  31.883  61.721  1.00  0.00     0.126 C 
BRANCH  24  25
HETATM   25  C   UNL     1       7.785  32.163  62.408  1.00  0.00    -0.005 C 
HETATM   26  C   UNL     1       6.874  33.052  61.558  1.00  0.00     0.011 C 
HETATM   27  C   UNL     1       8.027  32.823  63.766  1.00  0.00     0.011 C 
ENDBRANCH  24  25
ENDBRANCH  21  24
ENDBRANCH   1  20
TORSDOF 5
ENDMDL
MODEL 3
REMARK VINA RESULT:      -8.1      5.827      8.150
REMARK  5 active torsions:
REMARK  status: ('A' for Active; 'I' for Inactive)
REMARK    1  A    between atoms: C_2  and  C_3 
REMARK    2  A    between atoms: C_3  and  N_4 
REMARK       I    between atoms: N_4  and  C_5 
REMARK    3  A    between atoms: C_5  and  C_6 
REMARK    4  A    between atoms: C_10  and  N_11 
REMARK       I    between atoms: N_11  and  C_12 
REMARK       I    between atoms: C_12  and  N_13 
REMARK    5  A    between atoms: N_13  and  C_14 
ROOT
HETATM    1  C   UNL     1       7.101  24.660  53.969  1.00  0.00     0.053 A 
HETATM    2  C   UNL     1       5.888  25.225  54.380  1.00  0.00     0.051 A 
HETATM    3 CL   UNL     1       5.351  25.234  56.026  1.00  0.00    -0.083 Cl
HETATM    4  C   UNL     1       5.056  25.867  53.448  1.00  0.00     0.054 A 
HETATM    5  C   UNL     1       5.422  25.955  52.102  1.00  0.00     0.038 A 
HETATM    6  C   UNL     1       6.638  25.402  51.695  1.00  0.00     0.030 A 
HETATM    7  C   UNL     1       7.470  24.764  52.619  1.00  0.00     0.021 A 
ENDROOT
BRANCH   5   8
HETATM    8  N   UNL     1       4.656  26.620  51.124  1.00  0.00    -0.309 N 
HETATM    9  C   UNL     1       4.768  27.924  50.722  1.00  0.00     0.325 C 
HETATM   10  N   UNL     1       4.046  28.283  49.614  1.00  0.00    -0.306 N 
HETATM   11  O   UNL     1       5.415  28.793  51.300  1.00  0.00    -0.247 OA
HETATM   12  H   UNL     1       4.023  29.285  49.470  1.00  0.00     0.171 HD
HETATM   13  H   UNL     1       3.806  26.160  50.830  1.00  0.00     0.170 HD
BRANCH  10  14
HETATM   14  C   UNL     1       3.507  27.500  48.613  1.00  0.00     0.072 A 
HETATM   15  C   UNL     1       4.081  26.672  47.622  1.00  0.00     0.169 A 
HETATM   16  N   UNL     1       3.163  26.087  46.847  1.00  0.00    -0.185 NA
HETATM   17  N   UNL     1       2.002  26.579  47.308  1.00  0.00    -0.287 N 
HETATM   18  H   UNL     1       1.141  26.287  46.854  1.00  0.00     0.188 HD
HETATM   19  C   UNL     1       2.156  27.437  48.357  1.00  0.00     0.140 A 
ENDBRANCH  10  14
ENDBRANCH   5   8
BRANCH   1  20
HETATM   20  C   UNL     1       8.081  23.986  54.866  1.00  0.00     0.253 C 
HETATM   21  N   UNL     1       8.670  22.827  54.411  1.00  0.00    -0.356 N 
HETATM   22  H   UNL     1       8.264  22.388  53.594  1.00  0.00     0.162 HD
HETATM   23  O   UNL     1       8.352  24.499  55.949  1.00  0.00    -0.268 OA
BRANCH  21  24
HETATM   24  C   UNL     1       9.472  22.001  55.292  1.00  0.00     0.126 C 
BRANCH  24  25
HETATM   25  C   UNL     1       9.044  20.527  55.283  1.00  0.00    -0.005 C 
HETATM   26  C   UNL     1       8.711  20.029  53.875  1.00  0.00     0.011 C 
HETATM   27  C   UNL     1       7.833  20.336  56.197  1.00  0.00     0.011 C 
ENDBRANCH  24  25
ENDBRANCH  21  24
ENDBRANCH   1  20
TORSDOF 5
ENDMDL
MODEL 4
REMARK VINA RESULT:      -7.9      2.362      3.277
REMARK  5 active torsions:
REMARK  status: ('A' for Active; 'I' for Inactive)
REMARK    1  A    between atoms: C_2  and  C_3 
REMARK    2  A    between atoms: C_3  and  N_4 
REMARK       I    between atoms: N_4  and  C_5 
REMARK    3  A    between atoms: C_5  and  C_6 
REMARK    4  A    between atoms: C_10  and  N_11 
REMARK       I    between atoms: N_11  and  C_12 
REMARK       I    between atoms: C_12  and  N_13 
REMARK    5  A    between atoms: N_13  and  C_14 
ROOT
HETATM    1  C   UNL     1       7.408  28.692  55.916  1.00  0.00     0.053 A 
HETATM    2  C   UNL     1       6.361  29.600  56.111  1.00  0.00     0.051 A 
HETATM    3 CL   UNL     1       5.092  29.852  54.961  1.00  0.00    -0.083 Cl
HETATM    4  C   UNL     1       6.274  30.331  57.308  1.00  0.00     0.054 A 
HETATM    5  C   UNL     1       7.224  30.165  58.319  1.00  0.00     0.038 A 
HETATM    6  C   UNL     1       8.262  29.251  58.129  1.00  0.00     0.030 A 
HETATM    7  C   UNL     1       8.352  28.519  56.941  1.00  0.00     0.021 A 
ENDROOT
BRANCH   5   8
HETATM    8  N   UNL     1       7.173  30.835  59.558  1.00  0.00    -0.309 N 
HETATM    9  C   UNL     1       7.795  32.007  59.897  1.00  0.00     0.325 C 
HETATM   10  N   UNL     1       7.432  32.563  61.095  1.00  0.00    -0.306 N 
HETATM   11  O   UNL     1       8.677  32.559  59.244  1.00  0.00    -0.247 OA
HETATM   12  H   UNL     1       8.044  33.319  61.378  1.00  0.00     0.171 HD
HETATM   13  H   UNL     1       6.814  30.307  60.340  1.00  0.00     0.170 HD
BRANCH  10  14
HETATM   14  C   UNL     1       6.302  32.362  61.863  1.00  0.00     0.072 A 
HETATM   15  C   UNL     1       6.042  31.574  63.007  1.00  0.00     0.169 A 
HETATM   16  N   UNL     1       4.779  31.687  63.430  1.00  0.00    -0.185 NA
HETATM   17  N   UNL     1       4.216  32.507  62.530  1.00  0.00    -0.287 N 
HETATM   18  H   UNL     1       3.231  32.732  62.634  1.00  0.00     0.188 HD
HETATM   19  C   UNL     1       5.084  32.930  61.566  1.00  0.00     0.140 A 
ENDBRANCH  10  14
ENDBRANCH   5   8
BRANCH   1  20
HETATM   20  C   UNL     1       7.588  27.836  54.709  1.00  0.00     0.253 C 
HETATM   21  N   UNL     1       7.075  26.559  54.751  1.00  0.00    -0.356 N 
HETATM   22  H   UNL     1       6.789  26.201  55.654  1.00  0.00     0.162 HD
HETATM   23  O   UNL     1       8.148  28.305  53.722  1.00  0.00    -0.268 OA
BRANCH  21  24
HETATM   24  C   UNL     1       7.383  25.596  53.710  1.00  0.00     0.126 C 
BRANCH  24  25
HETATM   25  C   UNL     1       7.396  24.149  54.221  1.00  0.00    -0.005 C 
HETATM   26  C   UNL     1       8.226  23.992  55.497  1.00  0.00     0.011 C 
HETATM   27  C   UNL     1       7.945  23.223  53.134  1.00  0.00     0.011 C 
ENDBRANCH  24  25
ENDBRANCH  21  24
ENDBRANCH   1  20
TORSDOF 5
ENDMDL
MODEL 5
REMARK VINA RESULT:      -7.9      7.062     11.013
REMARK  5 active torsions:
REMARK  status: ('A' for Active; 'I' for Inactive)
REMARK    1  A    between atoms: C_2  and  C_3 
REMARK    2  A    between atoms: C_3  and  N_4 
REMARK       I    between atoms: N_4  and  C_5 
REMARK    3  A    between atoms: C_5  and  C_6 
REMARK    4  A    between atoms: C_10  and  N_11 
REMARK       I    between atoms: N_11  and  C_12 
REMARK       I    between atoms: C_12  and  N_13 
REMARK    5  A    between atoms: N_13  and  C_14 
ROOT
HETATM    1  C   UNL     1       6.265  32.988  62.781  1.00  0.00     0.053 A 
HETATM    2  C   UNL     1       5.039  33.302  63.380  1.00  0.00     0.051 A 
HETATM    3 CL   UNL     1       3.516  33.140  62.572  1.00  0.00    -0.083 Cl
HETATM    4  C   UNL     1       4.994  33.729  64.717  1.00  0.00     0.054 A 
HETATM    5  C   UNL     1       6.165  33.847  65.471  1.00  0.00     0.038 A 
HETATM    6  C   UNL     1       7.387  33.524  64.878  1.00  0.00     0.030 A 
HETATM    7  C   UNL     1       7.437  33.096  63.548  1.00  0.00     0.021 A 
ENDROOT
BRANCH   5   8
HETATM    8  N   UNL     1       6.188  34.230  66.827  1.00  0.00    -0.309 N 
HETATM    9  C   UNL     1       5.123  34.329  67.683  1.00  0.00     0.325 C 
HETATM   10  N   UNL     1       5.422  34.525  69.005  1.00  0.00    -0.306 N 
HETATM   11  O   UNL     1       3.940  34.308  67.351  1.00  0.00    -0.247 OA
HETATM   12  H   UNL     1       4.609  34.770  69.558  1.00  0.00     0.171 HD
HETATM   13  H   UNL     1       7.034  34.671  67.155  1.00  0.00     0.170 HD
BRANCH  10  14
HETATM   14  C   UNL     1       6.592  34.286  69.697  1.00  0.00     0.072 A 
HETATM   15  C   UNL     1       7.884  34.855  69.632  1.00  0.00     0.169 A 
HETATM   16  N   UNL     1       8.731  34.308  70.509  1.00  0.00    -0.185 NA
HETATM   17  N   UNL     1       7.997  33.354  71.103  1.00  0.00    -0.287 N 
HETATM   18  H   UNL     1       8.440  32.777  71.812  1.00  0.00     0.188 HD
HETATM   19  C   UNL     1       6.713  33.294  70.644  1.00  0.00     0.140 A 
ENDBRANCH  10  14
ENDBRANCH   5   8
BRANCH   1  20
HETATM   20  C   UNL     1       6.438  32.493  61.387  1.00  0.00     0.253 C 
HETATM   21  N   UNL     1       7.262  31.407  61.194  1.00  0.00    -0.356 N 
HETATM   22  H   UNL     1       7.860  31.132  61.964  1.00  0.00     0.162 HD
HETATM   23  O   UNL     1       5.821  33.041  60.478  1.00  0.00    -0.268 OA
BRANCH  21  24
HETATM   24  C   UNL     1       7.648  30.991  59.858  1.00  0.00     0.126 C 
BRANCH  24  25
HETATM   25  C   UNL     1       8.958  31.637  59.386  1.00  0.00    -0.005 C 
HETATM   26  C   UNL     1       9.759  30.717  58.464  1.00  0.00     0.011 C 
HETATM   27  C   UNL     1       9.810  32.021  60.597  1.00  0.00     0.011 C 
ENDBRANCH  24  25
ENDBRANCH  21  24
ENDBRANCH   1  20
TORSDOF 5
ENDMDL
MODEL 6
REMARK VINA RESULT:      -7.4      6.998     12.848
REMARK  5 active torsions:
REMARK  status: ('A' for Active; 'I' for Inactive)
REMARK    1  A    between atoms: C_2  and  C_3 
REMARK    2  A    between atoms: C_3  and  N_4 
REMARK       I    between atoms: N_4  and  C_5 
REMARK    3  A    between atoms: C_5  and  C_6 
REMARK    4  A    between atoms: C_10  and  N_11 
REMARK       I    between atoms: N_11  and  C_12 
REMARK       I    between atoms: C_12  and  N_13 
REMARK    5  A    between atoms: N_13  and  C_14 
ROOT
HETATM    1  C   UNL     1       5.910  34.033  65.666  1.00  0.00     0.053 A 
HETATM    2  C   UNL     1       4.951  33.811  64.671  1.00  0.00     0.051 A 
HETATM    3 CL   UNL     1       3.286  34.257  64.838  1.00  0.00    -0.083 Cl
HETATM    4  C   UNL     1       5.325  33.242  63.443  1.00  0.00     0.054 A 
HETATM    5  C   UNL     1       6.654  32.889  63.192  1.00  0.00     0.038 A 
HETATM    6  C   UNL     1       7.613  33.122  64.180  1.00  0.00     0.030 A 
HETATM    7  C   UNL     1       7.246  33.690  65.403  1.00  0.00     0.021 A 
ENDROOT
BRANCH   5   8
HETATM    8  N   UNL     1       7.104  32.353  61.969  1.00  0.00    -0.309 N 
HETATM    9  C   UNL     1       7.787  31.182  61.774  1.00  0.00     0.325 C 
HETATM   10  N   UNL     1       7.938  30.776  60.474  1.00  0.00    -0.306 N 
HETATM   11  O   UNL     1       8.311  30.509  62.658  1.00  0.00    -0.247 OA
HETATM   12  H   UNL     1       8.597  30.013  60.376  1.00  0.00     0.171 HD
HETATM   13  H   UNL     1       7.108  32.980  61.177  1.00  0.00     0.170 HD
BRANCH  10  14
HETATM   14  C   UNL     1       7.227  31.129  59.344  1.00  0.00     0.072 A 
HETATM   15  C   UNL     1       6.396  32.228  59.032  1.00  0.00     0.169 A 
HETATM   16  N   UNL     1       5.906  32.164  57.791  1.00  0.00    -0.185 NA
HETATM   17  N   UNL     1       6.382  31.000  57.323  1.00  0.00    -0.287 N 
HETATM   18  H   UNL     1       6.123  30.718  56.382  1.00  0.00     0.188 HD
HETATM   19  C   UNL     1       7.170  30.338  58.219  1.00  0.00     0.140 A 
ENDBRANCH  10  14
ENDBRANCH   5   8
BRANCH   1  20
HETATM   20  C   UNL     1       5.644  34.660  66.991  1.00  0.00     0.253 C 
HETATM   21  N   UNL     1       6.166  34.041  68.105  1.00  0.00    -0.356 N 
HETATM   22  H   UNL     1       6.522  33.099  67.992  1.00  0.00     0.162 HD
HETATM   23  O   UNL     1       5.008  35.709  67.039  1.00  0.00    -0.268 OA
BRANCH  21  24
HETATM   24  C   UNL     1       5.786  34.462  69.441  1.00  0.00     0.126 C 
BRANCH  24  25
HETATM   25  C   UNL     1       6.866  35.305  70.131  1.00  0.00    -0.005 C 
HETATM   26  C   UNL     1       8.277  34.785  69.847  1.00  0.00     0.011 C 
HETATM   27  C   UNL     1       6.620  35.324  71.641  1.00  0.00     0.011 C 
ENDBRANCH  24  25
ENDBRANCH  21  24
ENDBRANCH   1  20
TORSDOF 5
ENDMDL
MODEL 7
REMARK VINA RESULT:      -7.2      2.757      3.864
REMARK  5 active torsions:
REMARK  status: ('A' for Active; 'I' for Inactive)
REMARK    1  A    between atoms: C_2  and  C_3 
REMARK    2  A    between atoms: C_3  and  N_4 
REMARK       I    between atoms: N_4  and  C_5 
REMARK    3  A    between atoms: C_5  and  C_6 
REMARK    4  A    between atoms: C_10  and  N_11 
REMARK       I    between atoms: N_11  and  C_12 
REMARK       I    between atoms: C_12  and  N_13 
REMARK    5  A    between atoms: N_13  and  C_14 
ROOT
HETATM    1  C   UNL     1       7.047  28.861  56.020  1.00  0.00     0.053 A 
HETATM    2  C   UNL     1       7.760  28.353  57.113  1.00  0.00     0.051 A 
HETATM    3 CL   UNL     1       8.702  26.902  57.044  1.00  0.00    -0.083 Cl
HETATM    4  C   UNL     1       7.774  29.049  58.333  1.00  0.00     0.054 A 
HETATM    5  C   UNL     1       7.083  30.255  58.478  1.00  0.00     0.038 A 
HETATM    6  C   UNL     1       6.382  30.768  57.384  1.00  0.00     0.030 A 
HETATM    7  C   UNL     1       6.366  30.081  56.167  1.00  0.00     0.021 A 
ENDROOT
BRANCH   5   8
HETATM    8  N   UNL     1       7.090  31.024  59.659  1.00  0.00    -0.309 N 
HETATM    9  C   UNL     1       7.858  32.124  59.933  1.00  0.00     0.325 C 
HETATM   10  N   UNL     1       7.541  32.820  61.069  1.00  0.00    -0.306 N 
HETATM   11  O   UNL     1       8.827  32.496  59.275  1.00  0.00    -0.247 OA
HETATM   12  H   UNL     1       8.243  33.506  61.318  1.00  0.00     0.171 HD
HETATM   13  H   UNL     1       6.637  30.616  60.464  1.00  0.00     0.170 HD
BRANCH  10  14
HETATM   14  C   UNL     1       6.371  32.838  61.803  1.00  0.00     0.072 A 
HETATM   15  C   UNL     1       5.214  33.647  61.751  1.00  0.00     0.169 A 
HETATM   16  N   UNL     1       4.306  33.302  62.669  1.00  0.00    -0.185 NA
HETATM   17  N   UNL     1       4.900  32.305  63.342  1.00  0.00    -0.287 N 
HETATM   18  H   UNL     1       4.399  31.882  64.118  1.00  0.00     0.188 HD
HETATM   19  C   UNL     1       6.142  31.997  62.868  1.00  0.00     0.140 A 
ENDBRANCH  10  14
ENDBRANCH   5   8
BRANCH   1  20
HETATM   20  C   UNL     1       6.985  28.235  54.670  1.00  0.00     0.253 C 
HETATM   21  N   UNL     1       5.796  27.650  54.293  1.00  0.00    -0.356 N 
HETATM   22  H   UNL     1       5.103  27.496  55.015  1.00  0.00     0.162 HD
HETATM   23  O   UNL     1       7.969  28.293  53.939  1.00  0.00    -0.268 OA
BRANCH  21  24
HETATM   24  C   UNL     1       5.710  26.843  53.090  1.00  0.00     0.126 C 
BRANCH  24  25
HETATM   25  C   UNL     1       5.682  25.337  53.383  1.00  0.00    -0.005 C 
HETATM   26  C   UNL     1       7.078  24.712  53.337  1.00  0.00     0.011 C 
HETATM   27  C   UNL     1       4.770  24.633  52.377  1.00  0.00     0.011 C 
ENDBRANCH  24  25
ENDBRANCH  21  24
ENDBRANCH   1  20
TORSDOF 5
ENDMDL
MODEL 8
REMARK VINA RESULT:      -7.1      2.822      3.240
REMARK  5 active torsions:
REMARK  status: ('A' for Active; 'I' for Inactive)
REMARK    1  A    between atoms: C_2  and  C_3 
REMARK    2  A    between atoms: C_3  and  N_4 
REMARK       I    between atoms: N_4  and  C_5 
REMARK    3  A    between atoms: C_5  and  C_6 
REMARK    4  A    between atoms: C_10  and  N_11 
REMARK       I    between atoms: N_11  and  C_12 
REMARK       I    between atoms: C_12  and  N_13 
REMARK    5  A    between atoms: N_13  and  C_14 
ROOT
HETATM    1  C   UNL     1       7.702  25.246  56.392  1.00  0.00     0.053 A 
HETATM    2  C   UNL     1       6.624  25.754  55.656  1.00  0.00     0.051 A 
HETATM    3 CL   UNL     1       5.810  24.858  54.418  1.00  0.00    -0.083 Cl
HETATM    4  C   UNL     1       6.118  27.033  55.937  1.00  0.00     0.054 A 
HETATM    5  C   UNL     1       6.675  27.818  56.950  1.00  0.00     0.038 A 
HETATM    6  C   UNL     1       7.742  27.307  57.691  1.00  0.00     0.030 A 
HETATM    7  C   UNL     1       8.249  26.033  57.418  1.00  0.00     0.021 A 
ENDROOT
BRANCH   5   8
HETATM    8  N   UNL     1       6.191  29.091  57.310  1.00  0.00    -0.309 N 
HETATM    9  C   UNL     1       6.924  30.191  57.671  1.00  0.00     0.325 C 
HETATM   10  N   UNL     1       6.236  31.370  57.781  1.00  0.00    -0.306 N 
HETATM   11  O   UNL     1       8.120  30.187  57.949  1.00  0.00    -0.247 OA
HETATM   12  H   UNL     1       6.782  32.102  58.221  1.00  0.00     0.171 HD
HETATM   13  H   UNL     1       5.205  29.154  57.524  1.00  0.00     0.170 HD
BRANCH  10  14
HETATM   14  C   UNL     1       5.015  31.741  57.253  1.00  0.00     0.072 A 
HETATM   15  C   UNL     1       3.704  31.763  57.779  1.00  0.00     0.169 A 
HETATM   16  N   UNL     1       2.805  32.209  56.898  1.00  0.00    -0.185 NA
HETATM   17  N   UNL     1       3.531  32.427  55.790  1.00  0.00    -0.287 N 
HETATM   18  H   UNL     1       3.051  32.761  54.958  1.00  0.00     0.188 HD
HETATM   19  C   UNL     1       4.858  32.152  55.949  1.00  0.00     0.140 A 
ENDBRANCH  10  14
ENDBRANCH   5   8
BRANCH   1  20
HETATM   20  C   UNL     1       8.302  23.894  56.213  1.00  0.00     0.253 C 
HETATM   21  N   UNL     1       8.735  23.551  54.951  1.00  0.00    -0.356 N 
HETATM   22  H   UNL     1       8.442  24.141  54.181  1.00  0.00     0.162 HD
HETATM   23  O   UNL     1       8.421  23.159  57.189  1.00  0.00    -0.268 OA
BRANCH  21  24
HETATM   24  C   UNL     1       9.139  22.192  54.643  1.00  0.00     0.126 C 
BRANCH  24  25
HETATM   25  C   UNL     1       7.950  21.269  54.346  1.00  0.00    -0.005 C 
HETATM   26  C   UNL     1       7.712  20.253  55.465  1.00  0.00     0.011 C 
HETATM   27  C   UNL     1       8.185  20.534  53.025  1.00  0.00     0.011 C 
ENDBRANCH  24  25
ENDBRANCH  21  24
ENDBRANCH   1  20
TORSDOF 5
ENDMDL
MODEL 9
REMARK VINA RESULT:      -7.1      9.153     13.270
REMARK  5 active torsions:
REMARK  status: ('A' for Active; 'I' for Inactive)
REMARK    1  A    between atoms: C_2  and  C_3 
REMARK    2  A    between atoms: C_3  and  N_4 
REMARK       I    between atoms: N_4  and  C_5 
REMARK    3  A    between atoms: C_5  and  C_6 
REMARK    4  A    between atoms: C_10  and  N_11 
REMARK       I    between atoms: N_11  and  C_12 
REMARK       I    between atoms: C_12  and  N_13 
REMARK    5  A    between atoms: N_13  and  C_14 
ROOT
HETATM    1  C   UNL     1       4.953  33.965  65.150  1.00  0.00     0.053 A 
HETATM    2  C   UNL     1       6.260  33.870  65.642  1.00  0.00     0.051 A 
HETATM    3 CL   UNL     1       7.624  33.472  64.651  1.00  0.00    -0.083 Cl
HETATM    4  C   UNL     1       6.528  34.148  66.992  1.00  0.00     0.054 A 
HETATM    5  C   UNL     1       5.503  34.523  67.864  1.00  0.00     0.038 A 
HETATM    6  C   UNL     1       4.201  34.630  67.371  1.00  0.00     0.030 A 
HETATM    7  C   UNL     1       3.929  34.357  66.027  1.00  0.00     0.021 A 
ENDROOT
BRANCH   5   8
HETATM    8  N   UNL     1       5.709  34.856  69.218  1.00  0.00    -0.309 N 
HETATM    9  C   UNL     1       5.840  33.996  70.276  1.00  0.00     0.325 C 
HETATM   10  N   UNL     1       6.234  34.551  71.465  1.00  0.00    -0.306 N 
HETATM   11  O   UNL     1       5.585  32.795  70.252  1.00  0.00    -0.247 OA
HETATM   12  H   UNL     1       6.141  33.912  72.246  1.00  0.00     0.171 HD
HETATM   13  H   UNL     1       5.543  35.818  69.475  1.00  0.00     0.170 HD
BRANCH  10  14
HETATM   14  C   UNL     1       6.871  35.750  71.719  1.00  0.00     0.072 A 
HETATM   15  C   UNL     1       7.762  36.546  70.965  1.00  0.00     0.169 A 
HETATM   16  N   UNL     1       8.135  37.653  71.614  1.00  0.00    -0.185 NA
HETATM   17  N   UNL     1       7.523  37.543  72.804  1.00  0.00    -0.287 N 
HETATM   18  H   UNL     1       7.674  38.274  73.492  1.00  0.00     0.188 HD
HETATM   19  C   UNL     1       6.763  36.415  72.919  1.00  0.00     0.140 A 
ENDBRANCH  10  14
ENDBRANCH   5   8
BRANCH   1  20
HETATM   20  C   UNL     1       4.549  33.730  63.735  1.00  0.00     0.253 C 
HETATM   21  N   UNL     1       4.712  32.460  63.228  1.00  0.00    -0.356 N 
HETATM   22  H   UNL     1       5.278  31.813  63.764  1.00  0.00     0.162 HD
HETATM   23  O   UNL     1       4.059  34.655  63.092  1.00  0.00    -0.268 OA
BRANCH  21  24
HETATM   24  C   UNL     1       4.541  32.193  61.812  1.00  0.00     0.126 C 
BRANCH  24  25
HETATM   25  C   UNL     1       5.751  32.623  60.973  1.00  0.00    -0.005 C 
HETATM   26  C   UNL     1       5.565  32.314  59.486  1.00  0.00     0.011 C 
HETATM   27  C   UNL     1       7.011  31.926  61.490  1.00  0.00     0.011 C 
ENDBRANCH  24  25
ENDBRANCH  21  24
ENDBRANCH   1  20
TORSDOF 5
ENDMDL
MODEL 10
REMARK VINA RESULT:      -7.1      5.419      7.436
REMARK  5 active torsions:
REMARK  status: ('A' for Active; 'I' for Inactive)
REMARK    1  A    between atoms: C_2  and  C_3 
REMARK    2  A    between atoms: C_3  and  N_4 
REMARK       I    between atoms: N_4  and  C_5 
REMARK    3  A    between atoms: C_5  and  C_6 
REMARK    4  A    between atoms: C_10  and  N_11 
REMARK       I    between atoms: N_11  and  C_12 
REMARK       I    between atoms: C_12  and  N_13 
REMARK    5  A    between atoms: N_13  and  C_14 
ROOT
HETATM    1  C   UNL     1       6.453  25.204  53.849  1.00  0.00     0.053 A 
HETATM    2  C   UNL     1       6.608  26.592  53.941  1.00  0.00     0.051 A 
HETATM    3 CL   UNL     1       7.613  27.362  55.123  1.00  0.00    -0.083 Cl
HETATM    4  C   UNL     1       5.970  27.437  53.018  1.00  0.00     0.054 A 
HETATM    5  C   UNL     1       5.174  26.912  51.997  1.00  0.00     0.038 A 
HETATM    6  C   UNL     1       5.029  25.526  51.898  1.00  0.00     0.030 A 
HETATM    7  C   UNL     1       5.664  24.681  52.812  1.00  0.00     0.021 A 
ENDROOT
BRANCH   5   8
HETATM    8  N   UNL     1       4.539  27.699  51.015  1.00  0.00    -0.309 N 
HETATM    9  C   UNL     1       4.214  27.333  49.736  1.00  0.00     0.325 C 
HETATM   10  N   UNL     1       3.421  28.204  49.038  1.00  0.00    -0.306 N 
HETATM   11  O   UNL     1       4.616  26.324  49.161  1.00  0.00    -0.247 OA
HETATM   12  H   UNL     1       3.362  27.977  48.052  1.00  0.00     0.171 HD
HETATM   13  H   UNL     1       4.499  28.692  51.192  1.00  0.00     0.170 HD
BRANCH  10  14
HETATM   14  C   UNL     1       2.591  29.210  49.491  1.00  0.00     0.072 A 
HETATM   15  C   UNL     1       2.705  30.618  49.510  1.00  0.00     0.169 A 
HETATM   16  N   UNL     1       1.638  31.212  50.053  1.00  0.00    -0.185 NA
HETATM   17  N   UNL     1       0.860  30.184  50.426  1.00  0.00    -0.287 N 
HETATM   18  H   UNL     1      -0.020  30.389  50.889  1.00  0.00     0.188 HD
HETATM   19  C   UNL     1       1.392  28.964  50.122  1.00  0.00     0.140 A 
ENDBRANCH  10  14
ENDBRANCH   5   8
BRANCH   1  20
HETATM   20  C   UNL     1       7.105  24.206  54.743  1.00  0.00     0.253 C 
HETATM   21  N   UNL     1       8.184  23.512  54.243  1.00  0.00    -0.356 N 
HETATM   22  H   UNL     1       8.350  23.562  53.246  1.00  0.00     0.162 HD
HETATM   23  O   UNL     1       6.685  24.067  55.888  1.00  0.00    -0.268 OA
BRANCH  21  24
HETATM   24  C   UNL     1       8.745  22.384  54.964  1.00  0.00     0.126 C 
BRANCH  24  25
HETATM   25  C   UNL     1       7.984  21.075  54.711  1.00  0.00    -0.005 C 
HETATM   26  C   UNL     1       8.442  19.950  55.641  1.00  0.00     0.011 C 
HETATM   27  C   UNL     1       8.167  20.646  53.254  1.00  0.00     0.011 C 
ENDBRANCH  24  25
ENDBRANCH  21  24
ENDBRANCH   1  20
TORSDOF 5
ENDMDL
