MODEL 1
REMARK VINA RESULT:      -8.9      0.000      0.000
REMARK  6 active torsions:
REMARK  status: ('A' for Active; 'I' for Inactive)
REMARK    1  A    between atoms: C_9  and  C_10 
REMARK       I    between atoms: C_10  and  N_11 
REMARK    2  A    between atoms: N_11  and  C_12 
REMARK    3  A    between atoms: C_12  and  C_13 
REMARK    4  A    between atoms: C_13  and  O_14 
REMARK    5  A    between atoms: C_13  and  C_15 
REMARK    6  A    between atoms: C_18  and  O_19 
ROOT
HETATM    1  C   UNL     1       8.323  28.880  55.564  1.00  0.00     0.258 C 
HETATM    2  N   UNL     1       7.187  28.107  55.607  1.00  0.00    -0.350 N 
HETATM    3  O   UNL     1       9.065  28.917  54.587  1.00  0.00    -0.267 OA
HETATM    4  H   UNL     1       6.591  28.215  56.426  1.00  0.00     0.163 HD
ENDROOT
BRANCH   2   5
HETATM    5  C   UNL     1       6.683  27.319  54.484  1.00  0.00     0.114 C 
HETATM    6  C   UNL     1       5.808  28.179  53.567  1.00  0.00     0.035 C 
BRANCH   5   7
HETATM    7  C   UNL     1       5.967  26.003  54.915  1.00  0.00     0.173 C 
BRANCH   7   8
HETATM    8  O   UNL     1       4.700  25.880  54.255  1.00  0.00    -0.389 OA
HETATM    9  H   UNL     1       4.356  25.001  54.487  1.00  0.00     0.210 HD
ENDBRANCH   7   8
BRANCH   7  10
HETATM   10  C   UNL     1       6.794  24.771  54.590  1.00  0.00    -0.028 A 
HETATM   11  C   UNL     1       7.202  24.523  53.272  1.00  0.00     0.012 A 
HETATM   12  C   UNL     1       7.952  23.386  52.961  1.00  0.00     0.037 A 
HETATM   13  C   UNL     1       8.323  22.484  53.959  1.00  0.00     0.068 A 
HETATM   14  C   UNL     1       7.910  22.711  55.270  1.00  0.00     0.037 A 
HETATM   15  C   UNL     1       7.149  23.844  55.582  1.00  0.00     0.012 A 
BRANCH  13  16
HETATM   16  O   UNL     1       9.071  21.423  53.527  1.00  0.00    -0.356 OA
HETATM   17  C   UNL     1       8.366  20.389  52.851  1.00  0.00     0.210 C 
ENDBRANCH  13  16
ENDBRANCH   7  10
ENDBRANCH   5   7
ENDBRANCH   2   5
BRANCH   1  18
HETATM   18  C   UNL     1       8.567  29.682  56.752  1.00  0.00     0.105 A 
HETATM   19  C   UNL     1       7.637  30.360  57.521  1.00  0.00     0.169 A 
HETATM   20  N   UNL     1       6.273  30.469  57.406  1.00  0.00    -0.233 NA
HETATM   21  N   UNL     1       8.351  31.000  58.539  1.00  0.00    -0.219 N 
HETATM   22  C   UNL     1       5.672  31.199  58.301  1.00  0.00     0.035 A 
HETATM   23  C   UNL     1       4.176  31.356  58.214  1.00  0.00     0.070 C 
HETATM   24  C   UNL     1       6.356  31.925  59.418  1.00  0.00     0.053 A 
HETATM   25  C   UNL     1       7.692  31.790  59.491  1.00  0.00     0.036 A 
HETATM   26  C   UNL     1       8.517  32.456  60.548  1.00  0.00     0.070 C 
HETATM   27  N   UNL     1       9.679  30.745  58.449  1.00  0.00    -0.170 NA
HETATM   28  C   UNL     1       9.811  29.957  57.378  1.00  0.00     0.071 A 
HETATM   29  C   UNL     1      11.159  29.481  56.971  1.00  0.00     0.073 C 
ENDBRANCH   1  18
TORSDOF 6
ENDMDL
MODEL 2
REMARK VINA RESULT:      -8.8      3.772      9.484
REMARK  6 active torsions:
REMARK  status: ('A' for Active; 'I' for Inactive)
REMARK    1  A    between atoms: C_9  and  C_10 
REMARK       I    between atoms: C_10  and  N_11 
REMARK    2  A    between atoms: N_11  and  C_12 
REMARK    3  A    between atoms: C_12  and  C_13 
REMARK    4  A    between atoms: C_13  and  O_14 
REMARK    5  A    between atoms: C_13  and  C_15 
REMARK    6  A    between atoms: C_18  and  O_19 
ROOT
HETATM    1  C   UNL     1       8.446  30.035  58.698  1.00  0.00     0.258 C 
HETATM    2  N   UNL     1       8.244  30.156  60.053  1.00  0.00    -0.350 N 
HETATM    3  O   UNL     1       9.429  30.501  58.130  1.00  0.00    -0.267 OA
HETATM    4  H   UNL     1       7.444  29.658  60.442  1.00  0.00     0.163 HD
ENDROOT
BRANCH   2   5
HETATM    5  C   UNL     1       9.198  30.763  60.978  1.00  0.00     0.114 C 
HETATM    6  C   UNL     1       9.291  29.949  62.273  1.00  0.00     0.035 C 
BRANCH   5   7
HETATM    7  C   UNL     1       8.929  32.274  61.253  1.00  0.00     0.173 C 
BRANCH   7   8
HETATM    8  O   UNL     1       8.666  32.970  60.028  1.00  0.00    -0.389 OA
HETATM    9  H   UNL     1       7.777  32.697  59.744  1.00  0.00     0.210 HD
ENDBRANCH   7   8
BRANCH   7  10
HETATM   10  C   UNL     1       7.745  32.483  62.183  1.00  0.00    -0.028 A 
HETATM   11  C   UNL     1       7.954  32.866  63.515  1.00  0.00     0.012 A 
HETATM   12  C   UNL     1       6.873  33.048  64.381  1.00  0.00     0.037 A 
HETATM   13  C   UNL     1       5.564  32.867  63.933  1.00  0.00     0.068 A 
HETATM   14  C   UNL     1       5.344  32.470  62.615  1.00  0.00     0.037 A 
HETATM   15  C   UNL     1       6.427  32.276  61.748  1.00  0.00     0.012 A 
BRANCH  13  16
HETATM   16  O   UNL     1       4.596  33.093  64.872  1.00  0.00    -0.356 OA
HETATM   17  C   UNL     1       4.995  33.831  66.022  1.00  0.00     0.210 C 
ENDBRANCH  13  16
ENDBRANCH   7  10
ENDBRANCH   5   7
ENDBRANCH   2   5
BRANCH   1  18
HETATM   18  C   UNL     1       7.425  29.283  57.988  1.00  0.00     0.105 A 
HETATM   19  C   UNL     1       7.458  27.948  57.622  1.00  0.00     0.169 A 
HETATM   20  N   UNL     1       8.411  26.980  57.814  1.00  0.00    -0.233 NA
HETATM   21  N   UNL     1       6.261  27.692  56.944  1.00  0.00    -0.219 N 
HETATM   22  C   UNL     1       8.142  25.799  57.335  1.00  0.00     0.035 A 
HETATM   23  C   UNL     1       9.160  24.702  57.514  1.00  0.00     0.070 C 
HETATM   24  C   UNL     1       6.894  25.437  56.592  1.00  0.00     0.053 A 
HETATM   25  C   UNL     1       5.990  26.417  56.426  1.00  0.00     0.036 A 
HETATM   26  C   UNL     1       4.695  26.212  55.702  1.00  0.00     0.070 C 
HETATM   27  N   UNL     1       5.479  28.796  56.880  1.00  0.00    -0.170 NA
HETATM   28  C   UNL     1       6.176  29.752  57.504  1.00  0.00     0.071 A 
HETATM   29  C   UNL     1       5.613  31.123  57.616  1.00  0.00     0.073 C 
ENDBRANCH   1  18
TORSDOF 6
ENDMDL
MODEL 3
REMARK VINA RESULT:      -8.7      1.817      2.102
REMARK  6 active torsions:
REMARK  status: ('A' for Active; 'I' for Inactive)
REMARK    1  A    between atoms: C_9  and  C_10 
REMARK       I    between atoms: C_10  and  N_11 
REMARK    2  A    between atoms: N_11  and  C_12 
REMARK    3  A    between atoms: C_12  and  C_13 
REMARK    4  A    between atoms: C_13  and  O_14 
REMARK    5  A    between atoms: C_13  and  C_15 
REMARK    6  A    between atoms: C_18  and  O_19 
ROOT
HETATM    1  C   UNL     1       5.673  27.980  55.965  1.00  0.00     0.258 C 
HETATM    2  N   UNL     1       6.280  27.711  54.761  1.00  0.00    -0.350 N 
HETATM    3  O   UNL     1       4.485  27.755  56.175  1.00  0.00    -0.267 OA
HETATM    4  H   UNL     1       7.288  27.850  54.716  1.00  0.00     0.163 HD
ENDROOT
BRANCH   2   5
HETATM    5  C   UNL     1       5.621  27.053  53.635  1.00  0.00     0.114 C 
HETATM    6  C   UNL     1       4.535  27.954  53.039  1.00  0.00     0.035 C 
BRANCH   5   7
HETATM    7  C   UNL     1       5.084  25.628  53.969  1.00  0.00     0.173 C 
BRANCH   7   8
HETATM    8  O   UNL     1       4.096  25.224  53.012  1.00  0.00    -0.389 OA
HETATM    9  H   UNL     1       4.430  24.406  52.605  1.00  0.00     0.210 HD
ENDBRANCH   7   8
BRANCH   7  10
HETATM   10  C   UNL     1       6.192  24.589  53.978  1.00  0.00    -0.028 A 
HETATM   11  C   UNL     1       6.622  24.027  55.189  1.00  0.00     0.012 A 
HETATM   12  C   UNL     1       7.649  23.080  55.208  1.00  0.00     0.037 A 
HETATM   13  C   UNL     1       8.255  22.663  54.023  1.00  0.00     0.068 A 
HETATM   14  C   UNL     1       7.847  23.226  52.815  1.00  0.00     0.037 A 
HETATM   15  C   UNL     1       6.826  24.183  52.794  1.00  0.00     0.012 A 
BRANCH  13  16
HETATM   16  O   UNL     1       9.233  21.719  54.177  1.00  0.00    -0.356 OA
HETATM   17  C   UNL     1       8.792  20.390  54.428  1.00  0.00     0.210 C 
ENDBRANCH  13  16
ENDBRANCH   7  10
ENDBRANCH   5   7
ENDBRANCH   2   5
BRANCH   1  18
HETATM   18  C   UNL     1       6.551  28.523  56.989  1.00  0.00     0.105 A 
HETATM   19  C   UNL     1       6.471  29.761  57.602  1.00  0.00     0.169 A 
HETATM   20  N   UNL     1       5.582  30.795  57.444  1.00  0.00    -0.233 NA
HETATM   21  N   UNL     1       7.544  29.832  58.497  1.00  0.00    -0.219 N 
HETATM   22  C   UNL     1       5.785  31.851  58.179  1.00  0.00     0.035 A 
HETATM   23  C   UNL     1       4.840  33.017  58.038  1.00  0.00     0.070 C 
HETATM   24  C   UNL     1       6.909  32.017  59.154  1.00  0.00     0.053 A 
HETATM   25  C   UNL     1       7.755  30.980  59.274  1.00  0.00     0.036 A 
HETATM   26  C   UNL     1       8.928  30.995  60.205  1.00  0.00     0.070 C 
HETATM   27  N   UNL     1       8.282  28.695  58.480  1.00  0.00    -0.170 NA
HETATM   28  C   UNL     1       7.689  27.910  57.575  1.00  0.00     0.071 A 
HETATM   29  C   UNL     1       8.246  26.563  57.287  1.00  0.00     0.073 C 
ENDBRANCH   1  18
TORSDOF 6
ENDMDL
MODEL 4
REMARK VINA RESULT:      -8.7      2.657      8.717
REMARK  6 active torsions:
REMARK  status: ('A' for Active; 'I' for Inactive)
REMARK    1  A    between atoms: C_9  and  C_10 
REMARK       I    between atoms: C_10  and  N_11 
REMARK    2  A    between atoms: N_11  and  C_12 
REMARK    3  A    between atoms: C_12  and  C_13 
REMARK    4  A    between atoms: C_13  and  O_14 
REMARK    5  A    between atoms: C_13  and  C_15 
REMARK    6  A    between atoms: C_18  and  O_19 
ROOT
HETATM    1  C   UNL     1       6.814  25.804  54.876  1.00  0.00     0.258 C 
HETATM    2  N   UNL     1       7.560  26.098  55.994  1.00  0.00    -0.350 N 
HETATM    3  O   UNL     1       5.911  26.531  54.472  1.00  0.00    -0.267 OA
HETATM    4  H   UNL     1       8.344  25.478  56.195  1.00  0.00     0.163 HD
ENDROOT
BRANCH   2   5
HETATM    5  C   UNL     1       7.435  27.330  56.769  1.00  0.00     0.114 C 
HETATM    6  C   UNL     1       5.979  27.565  57.183  1.00  0.00     0.035 C 
BRANCH   5   7
HETATM    7  C   UNL     1       8.055  28.576  56.067  1.00  0.00     0.173 C 
BRANCH   7   8
HETATM    8  O   UNL     1       7.089  29.211  55.219  1.00  0.00    -0.389 OA
HETATM    9  H   UNL     1       7.591  29.778  54.611  1.00  0.00     0.210 HD
ENDBRANCH   7   8
BRANCH   7  10
HETATM   10  C   UNL     1       8.557  29.603  57.069  1.00  0.00    -0.028 A 
HETATM   11  C   UNL     1       7.649  30.289  57.889  1.00  0.00     0.012 A 
HETATM   12  C   UNL     1       8.099  31.245  58.803  1.00  0.00     0.037 A 
HETATM   13  C   UNL     1       9.461  31.524  58.930  1.00  0.00     0.068 A 
HETATM   14  C   UNL     1      10.371  30.860  58.108  1.00  0.00     0.037 A 
HETATM   15  C   UNL     1       9.921  29.910  57.183  1.00  0.00     0.012 A 
BRANCH  13  16
HETATM   16  O   UNL     1       9.772  32.465  59.872  1.00  0.00    -0.356 OA
HETATM   17  C   UNL     1       9.685  32.049  61.230  1.00  0.00     0.210 C 
ENDBRANCH  13  16
ENDBRANCH   7  10
ENDBRANCH   5   7
ENDBRANCH   2   5
BRANCH   1  18
HETATM   18  C   UNL     1       7.193  24.583  54.186  1.00  0.00     0.105 A 
HETATM   19  C   UNL     1       7.584  23.380  54.748  1.00  0.00     0.169 A 
HETATM   20  N   UNL     1       7.717  22.993  56.058  1.00  0.00    -0.233 NA
HETATM   21  N   UNL     1       7.868  22.516  53.685  1.00  0.00    -0.219 N 
HETATM   22  C   UNL     1       8.118  21.771  56.265  1.00  0.00     0.035 A 
HETATM   23  C   UNL     1       8.286  21.300  57.686  1.00  0.00     0.070 C 
HETATM   24  C   UNL     1       8.451  20.783  55.190  1.00  0.00     0.053 A 
HETATM   25  C   UNL     1       8.307  21.206  53.922  1.00  0.00     0.036 A 
HETATM   26  C   UNL     1       8.603  20.337  52.739  1.00  0.00     0.070 C 
HETATM   27  N   UNL     1       7.662  23.118  52.488  1.00  0.00    -0.170 NA
HETATM   28  C   UNL     1       7.260  24.357  52.787  1.00  0.00     0.071 A 
HETATM   29  C   UNL     1       6.948  25.316  51.695  1.00  0.00     0.073 C 
ENDBRANCH   1  18
TORSDOF 6
ENDMDL
MODEL 5
REMARK VINA RESULT:      -8.6      1.337      2.865
REMARK  6 active torsions:
REMARK  status: ('A' for Active; 'I' for Inactive)
REMARK    1  A    between atoms: C_9  and  C_10 
REMARK       I    between atoms: C_10  and  N_11 
REMARK    2  A    between atoms: N_11  and  C_12 
REMARK    3  A    between atoms: C_12  and  C_13 
REMARK    4  A    between atoms: C_13  and  O_14 
REMARK    5  A    between atoms: C_13  and  C_15 
REMARK    6  A    between atoms: C_18  and  O_19 
ROOT
HETATM    1  C   UNL     1       5.682  28.771  55.799  1.00  0.00     0.258 C 
HETATM    2  N   UNL     1       6.673  28.333  54.952  1.00  0.00    -0.350 N 
HETATM    3  O   UNL     1       4.517  28.397  55.707  1.00  0.00    -0.267 OA
HETATM    4  H   UNL     1       7.623  28.633  55.167  1.00  0.00     0.163 HD
ENDROOT
BRANCH   2   5
HETATM    5  C   UNL     1       6.484  27.321  53.916  1.00  0.00     0.114 C 
HETATM    6  C   UNL     1       5.791  27.921  52.689  1.00  0.00     0.035 C 
BRANCH   5   7
HETATM    7  C   UNL     1       5.767  26.033  54.424  1.00  0.00     0.173 C 
BRANCH   7   8
HETATM    8  O   UNL     1       4.548  25.815  53.700  1.00  0.00    -0.389 OA
HETATM    9  H   UNL     1       4.795  25.761  52.761  1.00  0.00     0.210 HD
ENDBRANCH   7   8
BRANCH   7  10
HETATM   10  C   UNL     1       6.638  24.797  54.271  1.00  0.00    -0.028 A 
HETATM   11  C   UNL     1       6.979  24.330  52.994  1.00  0.00     0.012 A 
HETATM   12  C   UNL     1       7.769  23.187  52.842  1.00  0.00     0.037 A 
HETATM   13  C   UNL     1       8.246  22.498  53.958  1.00  0.00     0.068 A 
HETATM   14  C   UNL     1       7.900  22.944  55.233  1.00  0.00     0.037 A 
HETATM   15  C   UNL     1       7.099  24.083  55.386  1.00  0.00     0.012 A 
BRANCH  13  16
HETATM   16  O   UNL     1       9.022  21.408  53.675  1.00  0.00    -0.356 OA
HETATM   17  C   UNL     1       8.427  20.407  52.857  1.00  0.00     0.210 C 
ENDBRANCH  13  16
ENDBRANCH   7  10
ENDBRANCH   5   7
ENDBRANCH   2   5
BRANCH   1  18
HETATM   18  C   UNL     1       6.121  29.688  56.838  1.00  0.00     0.105 A 
HETATM   19  C   UNL     1       7.420  29.965  57.229  1.00  0.00     0.169 A 
HETATM   20  N   UNL     1       8.624  29.488  56.773  1.00  0.00    -0.233 NA
HETATM   21  N   UNL     1       7.334  30.890  58.274  1.00  0.00    -0.219 N 
HETATM   22  C   UNL     1       9.691  29.948  57.362  1.00  0.00     0.035 A 
HETATM   23  C   UNL     1      11.037  29.450  56.902  1.00  0.00     0.070 C 
HETATM   24  C   UNL     1       9.691  30.931  58.492  1.00  0.00     0.053 A 
HETATM   25  C   UNL     1       8.490  31.369  58.906  1.00  0.00     0.036 A 
HETATM   26  C   UNL     1       8.327  32.350  60.025  1.00  0.00     0.070 C 
HETATM   27  N   UNL     1       6.046  31.212  58.547  1.00  0.00    -0.170 NA
HETATM   28  C   UNL     1       5.318  30.491  57.689  1.00  0.00     0.071 A 
HETATM   29  C   UNL     1       3.835  30.592  57.711  1.00  0.00     0.073 C 
ENDBRANCH   1  18
TORSDOF 6
ENDMDL
MODEL 6
REMARK VINA RESULT:      -8.5      1.397      2.584
REMARK  6 active torsions:
REMARK  status: ('A' for Active; 'I' for Inactive)
REMARK    1  A    between atoms: C_9  and  C_10 
REMARK       I    between atoms: C_10  and  N_11 
REMARK    2  A    between atoms: N_11  and  C_12 
REMARK    3  A    between atoms: C_12  and  C_13 
REMARK    4  A    between atoms: C_13  and  O_14 
REMARK    5  A    between atoms: C_13  and  C_15 
REMARK    6  A    between atoms: C_18  and  O_19 
ROOT
HETATM    1  C   UNL     1       7.475  29.325  56.516  1.00  0.00     0.258 C 
HETATM    2  N   UNL     1       6.659  28.293  56.115  1.00  0.00    -0.350 N 
HETATM    3  O   UNL     1       8.656  29.401  56.193  1.00  0.00    -0.267 OA
HETATM    4  H   UNL     1       5.673  28.367  56.361  1.00  0.00     0.163 HD
ENDROOT
BRANCH   2   5
HETATM    5  C   UNL     1       7.065  27.230  55.198  1.00  0.00     0.114 C 
HETATM    6  C   UNL     1       7.030  27.722  53.747  1.00  0.00     0.035 C 
BRANCH   5   7
HETATM    7  C   UNL     1       6.270  25.902  55.387  1.00  0.00     0.173 C 
BRANCH   7   8
HETATM    8  O   UNL     1       5.049  25.934  54.637  1.00  0.00    -0.389 OA
HETATM    9  H   UNL     1       4.357  25.588  55.227  1.00  0.00     0.210 HD
ENDBRANCH   7   8
BRANCH   7  10
HETATM   10  C   UNL     1       7.071  24.690  54.941  1.00  0.00    -0.028 A 
HETATM   11  C   UNL     1       6.795  24.078  53.711  1.00  0.00     0.012 A 
HETATM   12  C   UNL     1       7.516  22.954  53.298  1.00  0.00     0.037 A 
HETATM   13  C   UNL     1       8.536  22.431  54.095  1.00  0.00     0.068 A 
HETATM   14  C   UNL     1       8.808  23.021  55.327  1.00  0.00     0.037 A 
HETATM   15  C   UNL     1       8.078  24.141  55.748  1.00  0.00     0.012 A 
BRANCH  13  16
HETATM   16  O   UNL     1       9.177  21.343  53.569  1.00  0.00    -0.356 OA
HETATM   17  C   UNL     1       8.381  20.458  52.789  1.00  0.00     0.210 C 
ENDBRANCH  13  16
ENDBRANCH   7  10
ENDBRANCH   5   7
ENDBRANCH   2   5
BRANCH   1  18
HETATM   18  C   UNL     1       6.826  30.341  57.328  1.00  0.00     0.105 A 
HETATM   19  C   UNL     1       7.171  30.752  58.604  1.00  0.00     0.169 A 
HETATM   20  N   UNL     1       8.181  30.352  59.443  1.00  0.00    -0.233 NA
HETATM   21  N   UNL     1       6.243  31.732  58.972  1.00  0.00    -0.219 N 
HETATM   22  C   UNL     1       8.237  30.939  60.605  1.00  0.00     0.035 A 
HETATM   23  C   UNL     1       9.325  30.529  61.564  1.00  0.00     0.070 C 
HETATM   24  C   UNL     1       7.284  31.989  61.083  1.00  0.00     0.053 A 
HETATM   25  C   UNL     1       6.310  32.348  60.229  1.00  0.00     0.036 A 
HETATM   26  C   UNL     1       5.280  33.382  60.564  1.00  0.00     0.070 C 
HETATM   27  N   UNL     1       5.344  31.960  57.984  1.00  0.00    -0.170 NA
HETATM   28  C   UNL     1       5.690  31.126  56.999  1.00  0.00     0.071 A 
HETATM   29  C   UNL     1       4.901  31.100  55.740  1.00  0.00     0.073 C 
ENDBRANCH   1  18
TORSDOF 6
ENDMDL
MODEL 7
REMARK VINA RESULT:      -8.2      2.303      3.825
REMARK  6 active torsions:
REMARK  status: ('A' for Active; 'I' for Inactive)
REMARK    1  A    between atoms: C_9  and  C_10 
REMARK       I    between atoms: C_10  and  N_11 
REMARK    2  A    between atoms: N_11  and  C_12 
REMARK    3  A    between atoms: C_12  and  C_13 
REMARK    4  A    between atoms: C_13  and  O_14 
REMARK    5  A    between atoms: C_13  and  C_15 
REMARK    6  A    between atoms: C_18  and  O_19 
ROOT
HETATM    1  C   UNL     1       4.783  28.777  53.778  1.00  0.00     0.258 C 
HETATM    2  N   UNL     1       5.737  28.526  52.819  1.00  0.00    -0.350 N 
HETATM    3  O   UNL     1       3.619  28.406  53.669  1.00  0.00    -0.267 OA
HETATM    4  H   UNL     1       6.693  28.796  53.044  1.00  0.00     0.163 HD
ENDROOT
BRANCH   2   5
HETATM    5  C   UNL     1       5.509  27.724  51.619  1.00  0.00     0.114 C 
HETATM    6  C   UNL     1       4.624  28.480  50.622  1.00  0.00     0.035 C 
BRANCH   5   7
HETATM    7  C   UNL     1       4.968  26.293  51.916  1.00  0.00     0.173 C 
BRANCH   7   8
HETATM    8  O   UNL     1       4.629  25.618  50.697  1.00  0.00    -0.389 OA
HETATM    9  H   UNL     1       5.457  25.239  50.356  1.00  0.00     0.210 HD
ENDBRANCH   7   8
BRANCH   7  10
HETATM   10  C   UNL     1       5.982  25.443  52.664  1.00  0.00    -0.028 A 
HETATM   11  C   UNL     1       5.726  25.036  53.980  1.00  0.00     0.012 A 
HETATM   12  C   UNL     1       6.659  24.266  54.681  1.00  0.00     0.037 A 
HETATM   13  C   UNL     1       7.854  23.874  54.078  1.00  0.00     0.068 A 
HETATM   14  C   UNL     1       8.127  24.287  52.775  1.00  0.00     0.037 A 
HETATM   15  C   UNL     1       7.199  25.068  52.075  1.00  0.00     0.012 A 
BRANCH  13  16
HETATM   16  O   UNL     1       8.672  23.109  54.863  1.00  0.00    -0.356 OA
HETATM   17  C   UNL     1       8.192  22.810  56.169  1.00  0.00     0.210 C 
ENDBRANCH  13  16
ENDBRANCH   7  10
ENDBRANCH   5   7
ENDBRANCH   2   5
BRANCH   1  18
HETATM   18  C   UNL     1       5.263  29.488  54.951  1.00  0.00     0.105 A 
HETATM   19  C   UNL     1       6.165  29.041  55.902  1.00  0.00     0.169 A 
HETATM   20  N   UNL     1       6.850  27.857  56.014  1.00  0.00    -0.233 NA
HETATM   21  N   UNL     1       6.293  30.067  56.844  1.00  0.00    -0.219 N 
HETATM   22  C   UNL     1       7.634  27.736  57.047  1.00  0.00     0.035 A 
HETATM   23  C   UNL     1       8.403  26.452  57.219  1.00  0.00     0.070 C 
HETATM   24  C   UNL     1       7.826  28.777  58.106  1.00  0.00     0.053 A 
HETATM   25  C   UNL     1       7.135  29.920  57.955  1.00  0.00     0.036 A 
HETATM   26  C   UNL     1       7.217  31.052  58.931  1.00  0.00     0.070 C 
HETATM   27  N   UNL     1       5.524  31.136  56.521  1.00  0.00    -0.170 NA
HETATM   28  C   UNL     1       4.905  30.789  55.389  1.00  0.00     0.071 A 
HETATM   29  C   UNL     1       3.959  31.738  54.743  1.00  0.00     0.073 C 
ENDBRANCH   1  18
TORSDOF 6
ENDMDL
MODEL 8
REMARK VINA RESULT:      -8.1      4.564      7.653
REMARK  6 active torsions:
REMARK  status: ('A' for Active; 'I' for Inactive)
REMARK    1  A    between atoms: C_9  and  C_10 
REMARK       I    between atoms: C_10  and  N_11 
REMARK    2  A    between atoms: N_11  and  C_12 
REMARK    3  A    between atoms: C_12  and  C_13 
REMARK    4  A    between atoms: C_13  and  O_14 
REMARK    5  A    between atoms: C_13  and  C_15 
REMARK    6  A    between atoms: C_18  and  O_19 
ROOT
HETATM    1  C   UNL     1       4.947  26.831  50.764  1.00  0.00     0.258 C 
HETATM    2  N   UNL     1       5.235  27.623  51.851  1.00  0.00    -0.350 N 
HETATM    3  O   UNL     1       5.038  25.608  50.792  1.00  0.00    -0.267 OA
HETATM    4  H   UNL     1       5.042  28.619  51.754  1.00  0.00     0.163 HD
ENDROOT
BRANCH   2   5
HETATM    5  C   UNL     1       5.588  27.112  53.173  1.00  0.00     0.114 C 
HETATM    6  C   UNL     1       5.113  28.070  54.271  1.00  0.00     0.035 C 
BRANCH   5   7
HETATM    7  C   UNL     1       7.098  26.752  53.322  1.00  0.00     0.173 C 
BRANCH   7   8
HETATM    8  O   UNL     1       7.690  27.495  54.395  1.00  0.00    -0.389 OA
HETATM    9  H   UNL     1       8.449  26.971  54.704  1.00  0.00     0.210 HD
ENDBRANCH   7   8
BRANCH   7  10
HETATM   10  C   UNL     1       7.306  25.272  53.596  1.00  0.00    -0.028 A 
HETATM   11  C   UNL     1       7.765  24.425  52.578  1.00  0.00     0.012 A 
HETATM   12  C   UNL     1       7.947  23.060  52.817  1.00  0.00     0.037 A 
HETATM   13  C   UNL     1       7.692  22.517  54.077  1.00  0.00     0.068 A 
HETATM   14  C   UNL     1       7.219  23.347  55.093  1.00  0.00     0.037 A 
HETATM   15  C   UNL     1       7.026  24.713  54.852  1.00  0.00     0.012 A 
BRANCH  13  16
HETATM   16  O   UNL     1       7.927  21.174  54.185  1.00  0.00    -0.356 OA
HETATM   17  C   UNL     1       8.189  20.481  52.971  1.00  0.00     0.210 C 
ENDBRANCH  13  16
ENDBRANCH   7  10
ENDBRANCH   5   7
ENDBRANCH   2   5
BRANCH   1  18
HETATM   18  C   UNL     1       4.494  27.548  49.583  1.00  0.00     0.105 A 
HETATM   19  C   UNL     1       4.668  28.889  49.289  1.00  0.00     0.169 A 
HETATM   20  N   UNL     1       5.294  29.895  49.982  1.00  0.00    -0.233 NA
HETATM   21  N   UNL     1       4.041  29.111  48.058  1.00  0.00    -0.219 N 
HETATM   22  C   UNL     1       5.281  31.075  49.430  1.00  0.00     0.035 A 
HETATM   23  C   UNL     1       5.950  32.214  50.155  1.00  0.00     0.070 C 
HETATM   24  C   UNL     1       4.629  31.404  48.124  1.00  0.00     0.053 A 
HETATM   25  C   UNL     1       4.027  30.389  47.481  1.00  0.00     0.036 A 
HETATM   26  C   UNL     1       3.330  30.561  46.167  1.00  0.00     0.070 C 
HETATM   27  N   UNL     1       3.495  27.973  47.566  1.00  0.00    -0.170 NA
HETATM   28  C   UNL     1       3.764  27.035  48.480  1.00  0.00     0.071 A 
HETATM   29  C   UNL     1       3.298  25.640  48.266  1.00  0.00     0.073 C 
ENDBRANCH   1  18
TORSDOF 6
ENDMDL
MODEL 9
REMARK VINA RESULT:      -8.1      4.269      8.238
REMARK  6 active torsions:
REMARK  status: ('A' for Active; 'I' for Inactive)
REMARK    1  A    between atoms: C_9  and  C_10 
REMARK       I    between atoms: C_10  and  N_11 
REMARK    2  A    between atoms: N_11  and  C_12 
REMARK    3  A    between atoms: C_12  and  C_13 
REMARK    4  A    between atoms: C_13  and  O_14 
REMARK    5  A    between atoms: C_13  and  C_15 
REMARK    6  A    between atoms: C_18  and  O_19 
ROOT
HETATM    1  C   UNL     1       7.291  25.707  53.389  1.00  0.00     0.258 C 
HETATM    2  N   UNL     1       5.975  26.038  53.162  1.00  0.00    -0.350 N 
HETATM    3  O   UNL     1       8.212  26.140  52.703  1.00  0.00    -0.267 OA
HETATM    4  H   UNL     1       5.296  25.699  53.841  1.00  0.00     0.163 HD
ENDROOT
BRANCH   2   5
HETATM    5  C   UNL     1       5.528  26.996  52.155  1.00  0.00     0.114 C 
HETATM    6  C   UNL     1       4.287  27.754  52.639  1.00  0.00     0.035 C 
BRANCH   5   7
HETATM    7  C   UNL     1       5.319  26.369  50.743  1.00  0.00     0.173 C 
BRANCH   7   8
HETATM    8  O   UNL     1       4.367  25.299  50.802  1.00  0.00    -0.389 OA
HETATM    9  H   UNL     1       3.496  25.715  50.919  1.00  0.00     0.210 HD
ENDBRANCH   7   8
BRANCH   7  10
HETATM   10  C   UNL     1       4.824  27.391  49.733  1.00  0.00    -0.028 A 
HETATM   11  C   UNL     1       3.610  27.187  49.062  1.00  0.00     0.012 A 
HETATM   12  C   UNL     1       3.152  28.114  48.122  1.00  0.00     0.037 A 
HETATM   13  C   UNL     1       3.886  29.268  47.845  1.00  0.00     0.068 A 
HETATM   14  C   UNL     1       5.103  29.474  48.493  1.00  0.00     0.037 A 
HETATM   15  C   UNL     1       5.568  28.540  49.428  1.00  0.00     0.012 A 
BRANCH  13  16
HETATM   16  O   UNL     1       3.321  30.103  46.920  1.00  0.00    -0.356 OA
HETATM   17  C   UNL     1       1.962  29.846  46.588  1.00  0.00     0.210 C 
ENDBRANCH  13  16
ENDBRANCH   7  10
ENDBRANCH   5   7
ENDBRANCH   2   5
BRANCH   1  18
HETATM   18  C   UNL     1       7.518  24.830  54.526  1.00  0.00     0.105 A 
HETATM   19  C   UNL     1       7.795  23.474  54.506  1.00  0.00     0.169 A 
HETATM   20  N   UNL     1       7.941  22.594  53.463  1.00  0.00    -0.233 NA
HETATM   21  N   UNL     1       7.910  23.071  55.841  1.00  0.00    -0.219 N 
HETATM   22  C   UNL     1       8.199  21.357  53.779  1.00  0.00     0.035 A 
HETATM   23  C   UNL     1       8.361  20.350  52.669  1.00  0.00     0.070 C 
HETATM   24  C   UNL     1       8.331  20.838  55.177  1.00  0.00     0.053 A 
HETATM   25  C   UNL     1       8.179  21.734  56.167  1.00  0.00     0.036 A 
HETATM   26  C   UNL     1       8.279  21.368  57.615  1.00  0.00     0.070 C 
HETATM   27  N   UNL     1       7.729  24.111  56.691  1.00  0.00    -0.170 NA
HETATM   28  C   UNL     1       7.492  25.166  55.904  1.00  0.00     0.071 A 
HETATM   29  C   UNL     1       7.236  26.498  56.512  1.00  0.00     0.073 C 
ENDBRANCH   1  18
TORSDOF 6
ENDMDL
MODEL 10
REMARK VINA RESULT:      -8.1      2.809      8.226
REMARK  6 active torsions:
REMARK  status: ('A' for Active; 'I' for Inactive)
REMARK    1  A    between atoms: C_9  and  C_10 
REMARK       I    between atoms: C_10  and  N_11 
REMARK    2  A    between atoms: N_11  and  C_12 
REMARK    3  A    between atoms: C_12  and  C_13 
REMARK    4  A    between atoms: C_13  and  O_14 
REMARK    5  A    between atoms: C_13  and  C_15 
REMARK    6  A    between atoms: C_18  and  O_19 
ROOT
HETATM    1  C   UNL     1       7.309  26.490  56.977  1.00  0.00     0.258 C 
HETATM    2  N   UNL     1       6.523  27.320  56.212  1.00  0.00    -0.350 N 
HETATM    3  O   UNL     1       7.566  26.719  58.155  1.00  0.00    -0.267 OA
HETATM    4  H   UNL     1       6.295  26.996  55.273  1.00  0.00     0.163 HD
ENDROOT
BRANCH   2   5
HETATM    5  C   UNL     1       5.836  28.505  56.721  1.00  0.00     0.114 C 
HETATM    6  C   UNL     1       4.424  28.608  56.134  1.00  0.00     0.035 C 
BRANCH   5   7
HETATM    7  C   UNL     1       6.646  29.824  56.539  1.00  0.00     0.173 C 
BRANCH   7   8
HETATM    8  O   UNL     1       5.868  30.800  55.834  1.00  0.00    -0.389 OA
HETATM    9  H   UNL     1       5.612  31.471  56.489  1.00  0.00     0.210 HD
ENDBRANCH   7   8
BRANCH   7  10
HETATM   10  C   UNL     1       7.067  30.423  57.870  1.00  0.00    -0.028 A 
HETATM   11  C   UNL     1       8.217  29.955  58.521  1.00  0.00     0.012 A 
HETATM   12  C   UNL     1       8.605  30.491  59.753  1.00  0.00     0.037 A 
HETATM   13  C   UNL     1       7.865  31.512  60.349  1.00  0.00     0.068 A 
HETATM   14  C   UNL     1       6.711  31.975  59.719  1.00  0.00     0.037 A 
HETATM   15  C   UNL     1       6.314  31.432  58.491  1.00  0.00     0.012 A 
BRANCH  13  16
HETATM   16  O   UNL     1       8.361  31.962  61.542  1.00  0.00    -0.356 OA
HETATM   17  C   UNL     1       7.511  31.810  62.674  1.00  0.00     0.210 C 
ENDBRANCH  13  16
ENDBRANCH   7  10
ENDBRANCH   5   7
ENDBRANCH   2   5
BRANCH   1  18
HETATM   18  C   UNL     1       7.789  25.298  56.297  1.00  0.00     0.105 A 
HETATM   19  C   UNL     1       7.594  24.943  54.973  1.00  0.00     0.169 A 
HETATM   20  N   UNL     1       6.931  25.578  53.953  1.00  0.00    -0.233 NA
HETATM   21  N   UNL     1       8.225  23.707  54.795  1.00  0.00    -0.219 N 
HETATM   22  C   UNL     1       6.922  24.972  52.801  1.00  0.00     0.035 A 
HETATM   23  C   UNL     1       6.201  25.625  51.650  1.00  0.00     0.070 C 
HETATM   24  C   UNL     1       7.562  23.647  52.523  1.00  0.00     0.053 A 
HETATM   25  C   UNL     1       8.199  23.062  53.551  1.00  0.00     0.036 A 
HETATM   26  C   UNL     1       8.885  21.736  53.431  1.00  0.00     0.070 C 
HETATM   27  N   UNL     1       8.812  23.280  55.939  1.00  0.00    -0.170 NA
HETATM   28  C   UNL     1       8.550  24.231  56.841  1.00  0.00     0.071 A 
HETATM   29  C   UNL     1       9.045  24.085  58.235  1.00  0.00     0.073 C 
ENDBRANCH   1  18
TORSDOF 6
ENDMDL
