MODEL 1
REMARK VINA RESULT:      -9.6      0.000      0.000
REMARK  5 active torsions:
REMARK  status: ('A' for Active; 'I' for Inactive)
REMARK    1  A    between atoms: C_2  and  C_3 
REMARK    2  A    between atoms: C_6  and  C_7 
REMARK    3  A    between atoms: C_7  and  C_8 
REMARK       I    between atoms: C_8  and  N_9 
REMARK    4  A    between atoms: N_9  and  C_10 
REMARK    5  A    between atoms: C_17  and  C_18 
REMARK       I    between atoms: C_18  and  N_19 
ROOT
HETATM    1  C   UNL     1       8.591  28.724  56.934  1.00  0.00     0.035 A 
HETATM    2  C   UNL     1       7.889  29.558  57.817  1.00  0.00     0.046 A 
HETATM    3  C   UNL     1       8.555  30.641  58.430  1.00  0.00     0.030 A 
HETATM    4  C   UNL     1       9.888  30.872  58.118  1.00  0.00     0.063 A 
HETATM    5  N   UNL     1      10.250  31.963  58.858  1.00  0.00    -0.277 N 
HETATM    6  H   UNL     1      11.157  32.415  58.883  1.00  0.00     0.189 HD
HETATM    7  N   UNL     1       9.275  32.454  59.641  1.00  0.00    -0.168 NA
HETATM    8  C   UNL     1       8.220  31.645  59.389  1.00  0.00     0.156 A 
HETATM    9  C   UNL     1      10.611  30.079  57.224  1.00  0.00     0.034 A 
HETATM   10  C   UNL     1       9.935  28.994  56.648  1.00  0.00     0.032 A 
ENDROOT
BRANCH   1  11
HETATM   11  N   UNL     1       8.034  27.553  56.377  1.00  0.00    -0.327 N 
HETATM   12  C   UNL     1       7.520  27.406  55.100  1.00  0.00     0.226 C 
HETATM   13  O   UNL     1       7.771  28.124  54.136  1.00  0.00    -0.273 OA
HETATM   14  H   UNL     1       8.007  26.735  56.973  1.00  0.00     0.169 HD
BRANCH  12  15
HETATM   15  C   UNL     1       6.530  26.257  54.993  1.00  0.00     0.141 C 
BRANCH  15  16
HETATM   16  C   UNL     1       7.099  24.949  54.508  1.00  0.00    -0.049 A 
HETATM   17  C   UNL     1       7.169  23.850  55.376  1.00  0.00     0.008 A 
HETATM   18  C   UNL     1       7.571  22.596  54.908  1.00  0.00     0.007 A 
HETATM   19  C   UNL     1       7.896  22.408  53.560  1.00  0.00    -0.059 A 
HETATM   20  C   UNL     1       7.853  23.510  52.698  1.00  0.00     0.007 A 
HETATM   21  C   UNL     1       7.456  24.767  53.167  1.00  0.00     0.008 A 
BRANCH  19  22
HETATM   22  C   UNL     1       8.271  21.041  53.042  1.00  0.00     0.034 C 
HETATM   23  C   UNL     1       8.653  20.076  54.158  1.00  0.00     0.010 C 
ENDBRANCH  19  22
ENDBRANCH  15  16
ENDBRANCH  12  15
ENDBRANCH   1  11
BRANCH   8  24
HETATM   24  C   UNL     1       6.934  31.833  60.077  1.00  0.00     0.270 C 
HETATM   25  N   UNL     1       6.887  31.285  61.331  1.00  0.00    -0.365 N 
HETATM   26  H   UNL     1       7.703  30.795  61.678  1.00  0.00     0.159 HD
HETATM   27  H   UNL     1       6.039  31.348  61.870  1.00  0.00     0.159 HD
HETATM   28  O   UNL     1       5.963  32.409  59.601  1.00  0.00    -0.266 OA
ENDBRANCH   8  24
TORSDOF 5
ENDMDL
MODEL 2
REMARK VINA RESULT:      -8.9      6.577      9.130
REMARK  5 active torsions:
REMARK  status: ('A' for Active; 'I' for Inactive)
REMARK    1  A    between atoms: C_2  and  C_3 
REMARK    2  A    between atoms: C_6  and  C_7 
REMARK    3  A    between atoms: C_7  and  C_8 
REMARK       I    between atoms: C_8  and  N_9 
REMARK    4  A    between atoms: N_9  and  C_10 
REMARK    5  A    between atoms: C_17  and  C_18 
REMARK       I    between atoms: C_18  and  N_19 
ROOT
HETATM    1  C   UNL     1       5.013  27.081  50.302  1.00  0.00     0.035 A 
HETATM    2  C   UNL     1       4.218  26.806  49.179  1.00  0.00     0.046 A 
HETATM    3  C   UNL     1       3.130  27.651  48.870  1.00  0.00     0.030 A 
HETATM    4  C   UNL     1       2.892  28.758  49.676  1.00  0.00     0.063 A 
HETATM    5  N   UNL     1       1.791  29.365  49.140  1.00  0.00    -0.277 N 
HETATM    6  H   UNL     1       1.331  30.206  49.472  1.00  0.00     0.189 HD
HETATM    7  N   UNL     1       1.278  28.743  48.066  1.00  0.00    -0.168 NA
HETATM    8  C   UNL     1       2.095  27.679  47.888  1.00  0.00     0.156 A 
HETATM    9  C   UNL     1       3.677  29.076  50.786  1.00  0.00     0.034 A 
HETATM   10  C   UNL     1       4.735  28.207  51.086  1.00  0.00     0.032 A 
ENDROOT
BRANCH   1  11
HETATM   11  N   UNL     1       6.038  26.219  50.746  1.00  0.00    -0.327 N 
HETATM   12  C   UNL     1       5.979  25.345  51.818  1.00  0.00     0.226 C 
HETATM   13  O   UNL     1       4.955  24.908  52.335  1.00  0.00    -0.273 OA
HETATM   14  H   UNL     1       6.908  26.242  50.228  1.00  0.00     0.169 HD
BRANCH  12  15
HETATM   15  C   UNL     1       7.353  24.991  52.365  1.00  0.00     0.141 C 
BRANCH  15  16
HETATM   16  C   UNL     1       7.396  23.823  53.316  1.00  0.00    -0.049 A 
HETATM   17  C   UNL     1       7.772  22.555  52.853  1.00  0.00     0.008 A 
HETATM   18  C   UNL     1       7.943  21.492  53.744  1.00  0.00     0.007 A 
HETATM   19  C   UNL     1       7.758  21.676  55.119  1.00  0.00    -0.059 A 
HETATM   20  C   UNL     1       7.356  22.935  55.580  1.00  0.00     0.007 A 
HETATM   21  C   UNL     1       7.178  23.998  54.688  1.00  0.00     0.008 A 
BRANCH  19  22
HETATM   22  C   UNL     1       8.001  20.545  56.087  1.00  0.00     0.034 C 
HETATM   23  C   UNL     1       9.478  20.194  56.219  1.00  0.00     0.010 C 
ENDBRANCH  19  22
ENDBRANCH  15  16
ENDBRANCH  12  15
ENDBRANCH   1  11
BRANCH   8  24
HETATM   24  C   UNL     1       1.860  26.710  46.807  1.00  0.00     0.270 C 
HETATM   25  N   UNL     1       0.710  26.933  46.099  1.00  0.00    -0.365 N 
HETATM   26  H   UNL     1       0.117  27.709  46.367  1.00  0.00     0.159 HD
HETATM   27  H   UNL     1       0.456  26.306  45.352  1.00  0.00     0.159 HD
HETATM   28  O   UNL     1       2.594  25.766  46.542  1.00  0.00    -0.266 OA
ENDBRANCH   8  24
TORSDOF 5
ENDMDL
MODEL 3
REMARK VINA RESULT:      -8.8      2.321      3.021
REMARK  5 active torsions:
REMARK  status: ('A' for Active; 'I' for Inactive)
REMARK    1  A    between atoms: C_2  and  C_3 
REMARK    2  A    between atoms: C_6  and  C_7 
REMARK    3  A    between atoms: C_7  and  C_8 
REMARK       I    between atoms: C_8  and  N_9 
REMARK    4  A    between atoms: N_9  and  C_10 
REMARK    5  A    between atoms: C_17  and  C_18 
REMARK       I    between atoms: C_18  and  N_19 
ROOT
HETATM    1  C   UNL     1       5.043  28.815  56.579  1.00  0.00     0.035 A 
HETATM    2  C   UNL     1       6.038  29.393  57.381  1.00  0.00     0.046 A 
HETATM    3  C   UNL     1       5.867  30.707  57.865  1.00  0.00     0.030 A 
HETATM    4  C   UNL     1       4.695  31.388  57.557  1.00  0.00     0.063 A 
HETATM    5  N   UNL     1       4.822  32.613  58.150  1.00  0.00    -0.277 N 
HETATM    6  H   UNL     1       4.153  33.375  58.134  1.00  0.00     0.189 HD
HETATM    7  N   UNL     1       5.982  32.800  58.802  1.00  0.00    -0.168 NA
HETATM    8  C   UNL     1       6.640  31.630  58.633  1.00  0.00     0.156 A 
HETATM    9  C   UNL     1       3.673  30.834  56.784  1.00  0.00     0.034 A 
HETATM   10  C   UNL     1       3.878  29.537  56.293  1.00  0.00     0.032 A 
ENDROOT
BRANCH   1  11
HETATM   11  N   UNL     1       5.193  27.557  55.956  1.00  0.00    -0.327 N 
HETATM   12  C   UNL     1       5.770  27.306  54.723  1.00  0.00     0.226 C 
HETATM   13  O   UNL     1       6.549  28.046  54.130  1.00  0.00    -0.273 OA
HETATM   14  H   UNL     1       4.842  26.754  56.464  1.00  0.00     0.169 HD
BRANCH  12  15
HETATM   15  C   UNL     1       5.298  26.000  54.107  1.00  0.00     0.141 C 
BRANCH  15  16
HETATM   16  C   UNL     1       6.319  24.893  54.060  1.00  0.00    -0.049 A 
HETATM   17  C   UNL     1       6.713  24.251  55.242  1.00  0.00     0.008 A 
HETATM   18  C   UNL     1       7.559  23.139  55.203  1.00  0.00     0.007 A 
HETATM   19  C   UNL     1       8.017  22.634  53.981  1.00  0.00    -0.059 A 
HETATM   20  C   UNL     1       7.646  23.291  52.801  1.00  0.00     0.007 A 
HETATM   21  C   UNL     1       6.805  24.407  52.840  1.00  0.00     0.008 A 
BRANCH  19  22
HETATM   22  C   UNL     1       8.880  21.398  53.934  1.00  0.00     0.034 C 
HETATM   23  C   UNL     1       8.432  20.410  52.863  1.00  0.00     0.010 C 
ENDBRANCH  19  22
ENDBRANCH  15  16
ENDBRANCH  12  15
ENDBRANCH   1  11
BRANCH   8  24
HETATM   24  C   UNL     1       7.987  31.428  59.185  1.00  0.00     0.270 C 
HETATM   25  N   UNL     1       8.076  30.395  60.079  1.00  0.00    -0.365 N 
HETATM   26  H   UNL     1       7.237  29.873  60.302  1.00  0.00     0.159 HD
HETATM   27  H   UNL     1       8.957  30.196  60.524  1.00  0.00     0.159 HD
HETATM   28  O   UNL     1       8.967  32.109  58.906  1.00  0.00    -0.266 OA
ENDBRANCH   8  24
TORSDOF 5
ENDMDL
MODEL 4
REMARK VINA RESULT:      -8.7      2.176      2.776
REMARK  5 active torsions:
REMARK  status: ('A' for Active; 'I' for Inactive)
REMARK    1  A    between atoms: C_2  and  C_3 
REMARK    2  A    between atoms: C_6  and  C_7 
REMARK    3  A    between atoms: C_7  and  C_8 
REMARK       I    between atoms: C_8  and  N_9 
REMARK    4  A    between atoms: N_9  and  C_10 
REMARK    5  A    between atoms: C_17  and  C_18 
REMARK       I    between atoms: C_18  and  N_19 
ROOT
HETATM    1  C   UNL     1       7.173  28.362  57.246  1.00  0.00     0.035 A 
HETATM    2  C   UNL     1       7.651  29.309  58.164  1.00  0.00     0.046 A 
HETATM    3  C   UNL     1       7.009  30.561  58.272  1.00  0.00     0.030 A 
HETATM    4  C   UNL     1       5.895  30.813  57.482  1.00  0.00     0.063 A 
HETATM    5  N   UNL     1       5.506  32.085  57.800  1.00  0.00    -0.277 N 
HETATM    6  H   UNL     1       4.724  32.603  57.414  1.00  0.00     0.189 HD
HETATM    7  N   UNL     1       6.280  32.692  58.714  1.00  0.00    -0.168 NA
HETATM    8  C   UNL     1       7.215  31.762  59.016  1.00  0.00     0.156 A 
HETATM    9  C   UNL     1       5.376  29.886  56.576  1.00  0.00     0.034 A 
HETATM   10  C   UNL     1       6.047  28.659  56.469  1.00  0.00     0.032 A 
ENDROOT
BRANCH   1  11
HETATM   11  N   UNL     1       7.830  27.139  56.991  1.00  0.00    -0.327 N 
HETATM   12  C   UNL     1       7.392  25.874  57.343  1.00  0.00     0.226 C 
HETATM   13  O   UNL     1       6.234  25.560  57.604  1.00  0.00    -0.273 OA
HETATM   14  H   UNL     1       8.714  27.192  56.501  1.00  0.00     0.169 HD
BRANCH  12  15
HETATM   15  C   UNL     1       8.524  24.863  57.434  1.00  0.00     0.141 C 
BRANCH  15  16
HETATM   16  C   UNL     1       8.447  23.709  56.469  1.00  0.00    -0.049 A 
HETATM   17  C   UNL     1       8.395  22.393  56.951  1.00  0.00     0.008 A 
HETATM   18  C   UNL     1       8.193  21.321  56.078  1.00  0.00     0.007 A 
HETATM   19  C   UNL     1       8.022  21.540  54.706  1.00  0.00    -0.059 A 
HETATM   20  C   UNL     1       8.100  22.850  54.220  1.00  0.00     0.007 A 
HETATM   21  C   UNL     1       8.309  23.923  55.092  1.00  0.00     0.008 A 
BRANCH  19  22
HETATM   22  C   UNL     1       7.743  20.389  53.771  1.00  0.00     0.034 C 
HETATM   23  C   UNL     1       8.665  20.383  52.558  1.00  0.00     0.010 C 
ENDBRANCH  19  22
ENDBRANCH  15  16
ENDBRANCH  12  15
ENDBRANCH   1  11
BRANCH   8  24
HETATM   24  C   UNL     1       8.288  32.046  59.980  1.00  0.00     0.270 C 
HETATM   25  N   UNL     1       8.133  31.419  61.188  1.00  0.00    -0.365 N 
HETATM   26  H   UNL     1       7.314  30.840  61.333  1.00  0.00     0.159 HD
HETATM   27  H   UNL     1       8.810  31.571  61.918  1.00  0.00     0.159 HD
HETATM   28  O   UNL     1       9.245  32.781  59.767  1.00  0.00    -0.266 OA
ENDBRANCH   8  24
TORSDOF 5
ENDMDL
MODEL 5
REMARK VINA RESULT:      -8.5      1.842      2.107
REMARK  5 active torsions:
REMARK  status: ('A' for Active; 'I' for Inactive)
REMARK    1  A    between atoms: C_2  and  C_3 
REMARK    2  A    between atoms: C_6  and  C_7 
REMARK    3  A    between atoms: C_7  and  C_8 
REMARK       I    between atoms: C_8  and  N_9 
REMARK    4  A    between atoms: N_9  and  C_10 
REMARK    5  A    between atoms: C_17  and  C_18 
REMARK       I    between atoms: C_18  and  N_19 
ROOT
HETATM    1  C   UNL     1       7.891  28.747  55.518  1.00  0.00     0.035 A 
HETATM    2  C   UNL     1       6.812  29.463  56.057  1.00  0.00     0.046 A 
HETATM    3  C   UNL     1       6.960  30.117  57.299  1.00  0.00     0.030 A 
HETATM    4  C   UNL     1       8.189  30.059  57.944  1.00  0.00     0.063 A 
HETATM    5  N   UNL     1       8.024  30.767  59.102  1.00  0.00    -0.277 N 
HETATM    6  H   UNL     1       8.716  30.934  59.824  1.00  0.00     0.189 HD
HETATM    7  N   UNL     1       6.789  31.266  59.279  1.00  0.00    -0.168 NA
HETATM    8  C   UNL     1       6.119  30.871  58.172  1.00  0.00     0.156 A 
HETATM    9  C   UNL     1       9.292  29.378  57.425  1.00  0.00     0.034 A 
HETATM   10  C   UNL     1       9.111  28.714  56.203  1.00  0.00     0.032 A 
ENDROOT
BRANCH   1  11
HETATM   11  N   UNL     1       7.786  27.967  54.346  1.00  0.00    -0.327 N 
HETATM   12  C   UNL     1       6.785  27.060  54.041  1.00  0.00     0.226 C 
HETATM   13  O   UNL     1       5.663  27.032  54.540  1.00  0.00    -0.273 OA
HETATM   14  H   UNL     1       8.518  28.082  53.657  1.00  0.00     0.169 HD
BRANCH  12  15
HETATM   15  C   UNL     1       7.224  26.018  53.026  1.00  0.00     0.141 C 
BRANCH  15  16
HETATM   16  C   UNL     1       7.519  24.649  53.582  1.00  0.00    -0.049 A 
HETATM   17  C   UNL     1       7.249  24.365  54.927  1.00  0.00     0.008 A 
HETATM   18  C   UNL     1       7.394  23.067  55.426  1.00  0.00     0.007 A 
HETATM   19  C   UNL     1       7.796  22.021  54.586  1.00  0.00    -0.059 A 
HETATM   20  C   UNL     1       8.093  22.310  53.249  1.00  0.00     0.007 A 
HETATM   21  C   UNL     1       7.954  23.609  52.751  1.00  0.00     0.008 A 
BRANCH  19  22
HETATM   22  C   UNL     1       7.895  20.609  55.109  1.00  0.00     0.034 C 
HETATM   23  C   UNL     1       8.955  20.459  56.194  1.00  0.00     0.010 C 
ENDBRANCH  19  22
ENDBRANCH  15  16
ENDBRANCH  12  15
ENDBRANCH   1  11
BRANCH   8  24
HETATM   24  C   UNL     1       4.698  31.200  57.984  1.00  0.00     0.270 C 
HETATM   25  N   UNL     1       3.837  30.238  58.439  1.00  0.00    -0.365 N 
HETATM   26  H   UNL     1       4.223  29.393  58.844  1.00  0.00     0.159 HD
HETATM   27  H   UNL     1       2.845  30.369  58.334  1.00  0.00     0.159 HD
HETATM   28  O   UNL     1       4.281  32.226  57.458  1.00  0.00    -0.266 OA
ENDBRANCH   8  24
TORSDOF 5
ENDMDL
MODEL 6
REMARK VINA RESULT:      -8.5      6.371      8.470
REMARK  5 active torsions:
REMARK  status: ('A' for Active; 'I' for Inactive)
REMARK    1  A    between atoms: C_2  and  C_3 
REMARK    2  A    between atoms: C_6  and  C_7 
REMARK    3  A    between atoms: C_7  and  C_8 
REMARK       I    between atoms: C_8  and  N_9 
REMARK    4  A    between atoms: N_9  and  C_10 
REMARK    5  A    between atoms: C_17  and  C_18 
REMARK       I    between atoms: C_18  and  N_19 
ROOT
HETATM    1  C   UNL     1       4.487  26.698  49.787  1.00  0.00     0.035 A 
HETATM    2  C   UNL     1       3.994  27.978  50.082  1.00  0.00     0.046 A 
HETATM    3  C   UNL     1       2.906  28.493  49.345  1.00  0.00     0.030 A 
HETATM    4  C   UNL     1       2.329  27.702  48.360  1.00  0.00     0.063 A 
HETATM    5  N   UNL     1       1.324  28.461  47.829  1.00  0.00    -0.277 N 
HETATM    6  H   UNL     1       0.688  28.202  47.082  1.00  0.00     0.189 HD
HETATM    7  N   UNL     1       1.206  29.686  48.367  1.00  0.00    -0.168 NA
HETATM    8  C   UNL     1       2.180  29.722  49.306  1.00  0.00     0.156 A 
HETATM    9  C   UNL     1       2.777  26.414  48.057  1.00  0.00     0.034 A 
HETATM   10  C   UNL     1       3.875  25.936  48.785  1.00  0.00     0.032 A 
ENDROOT
BRANCH   1  11
HETATM   11  N   UNL     1       5.645  26.163  50.392  1.00  0.00    -0.327 N 
HETATM   12  C   UNL     1       5.708  25.460  51.583  1.00  0.00     0.226 C 
HETATM   13  O   UNL     1       4.771  24.882  52.128  1.00  0.00    -0.273 OA
HETATM   14  H   UNL     1       6.520  26.307  49.904  1.00  0.00     0.169 HD
BRANCH  12  15
HETATM   15  C   UNL     1       7.086  25.507  52.222  1.00  0.00     0.141 C 
BRANCH  15  16
HETATM   16  C   UNL     1       7.396  24.394  53.188  1.00  0.00    -0.049 A 
HETATM   17  C   UNL     1       7.196  24.581  54.563  1.00  0.00     0.008 A 
HETATM   18  C   UNL     1       7.353  23.520  55.458  1.00  0.00     0.007 A 
HETATM   19  C   UNL     1       7.699  22.244  54.998  1.00  0.00    -0.059 A 
HETATM   20  C   UNL     1       7.927  22.062  53.629  1.00  0.00     0.007 A 
HETATM   21  C   UNL     1       7.775  23.124  52.733  1.00  0.00     0.008 A 
BRANCH  19  22
HETATM   22  C   UNL     1       7.811  21.084  55.957  1.00  0.00     0.034 C 
HETATM   23  C   UNL     1       8.889  20.088  55.548  1.00  0.00     0.010 C 
ENDBRANCH  19  22
ENDBRANCH  15  16
ENDBRANCH  12  15
ENDBRANCH   1  11
BRANCH   8  24
HETATM   24  C   UNL     1       2.407  30.923  50.122  1.00  0.00     0.270 C 
HETATM   25  N   UNL     1       1.952  30.819  51.409  1.00  0.00    -0.365 N 
HETATM   26  H   UNL     1       1.494  29.962  51.694  1.00  0.00     0.159 HD
HETATM   27  H   UNL     1       2.047  31.602  52.035  1.00  0.00     0.159 HD
HETATM   28  O   UNL     1       2.940  31.952  49.720  1.00  0.00    -0.266 OA
ENDBRANCH   8  24
TORSDOF 5
ENDMDL
MODEL 7
REMARK VINA RESULT:      -8.4      3.814      5.026
REMARK  5 active torsions:
REMARK  status: ('A' for Active; 'I' for Inactive)
REMARK    1  A    between atoms: C_2  and  C_3 
REMARK    2  A    between atoms: C_6  and  C_7 
REMARK    3  A    between atoms: C_7  and  C_8 
REMARK       I    between atoms: C_8  and  N_9 
REMARK    4  A    between atoms: N_9  and  C_10 
REMARK    5  A    between atoms: C_17  and  C_18 
REMARK       I    between atoms: C_18  and  N_19 
ROOT
HETATM    1  C   UNL     1       5.333  27.789  52.712  1.00  0.00     0.035 A 
HETATM    2  C   UNL     1       5.289  28.117  54.075  1.00  0.00     0.046 A 
HETATM    3  C   UNL     1       4.437  29.152  54.516  1.00  0.00     0.030 A 
HETATM    4  C   UNL     1       3.637  29.804  53.585  1.00  0.00     0.063 A 
HETATM    5  N   UNL     1       2.943  30.741  54.298  1.00  0.00    -0.277 N 
HETATM    6  H   UNL     1       2.262  31.404  53.942  1.00  0.00     0.189 HD
HETATM    7  N   UNL     1       3.232  30.772  55.609  1.00  0.00    -0.168 NA
HETATM    8  C   UNL     1       4.157  29.796  55.759  1.00  0.00     0.156 A 
HETATM    9  C   UNL     1       3.637  29.487  52.225  1.00  0.00     0.034 A 
HETATM   10  C   UNL     1       4.510  28.472  51.809  1.00  0.00     0.032 A 
ENDROOT
BRANCH   1  11
HETATM   11  N   UNL     1       6.245  26.854  52.176  1.00  0.00    -0.327 N 
HETATM   12  C   UNL     1       6.143  25.474  52.227  1.00  0.00     0.226 C 
HETATM   13  O   UNL     1       5.111  24.835  52.417  1.00  0.00    -0.273 OA
HETATM   14  H   UNL     1       7.058  27.231  51.706  1.00  0.00     0.169 HD
BRANCH  12  15
HETATM   15  C   UNL     1       7.485  24.778  52.074  1.00  0.00     0.141 C 
BRANCH  15  16
HETATM   16  C   UNL     1       7.782  23.702  53.086  1.00  0.00    -0.049 A 
HETATM   17  C   UNL     1       7.947  24.035  54.437  1.00  0.00     0.008 A 
HETATM   18  C   UNL     1       8.093  23.038  55.406  1.00  0.00     0.007 A 
HETATM   19  C   UNL     1       8.061  21.685  55.047  1.00  0.00    -0.059 A 
HETATM   20  C   UNL     1       7.924  21.352  53.695  1.00  0.00     0.007 A 
HETATM   21  C   UNL     1       7.784  22.349  52.725  1.00  0.00     0.008 A 
BRANCH  19  22
HETATM   22  C   UNL     1       8.157  20.608  56.099  1.00  0.00     0.034 C 
HETATM   23  C   UNL     1       8.325  21.174  57.504  1.00  0.00     0.010 C 
ENDBRANCH  19  22
ENDBRANCH  15  16
ENDBRANCH  12  15
ENDBRANCH   1  11
BRANCH   8  24
HETATM   24  C   UNL     1       4.763  29.515  57.069  1.00  0.00     0.270 C 
HETATM   25  N   UNL     1       4.018  29.947  58.133  1.00  0.00    -0.365 N 
HETATM   26  H   UNL     1       3.143  30.425  57.951  1.00  0.00     0.159 HD
HETATM   27  H   UNL     1       4.364  29.816  59.069  1.00  0.00     0.159 HD
HETATM   28  O   UNL     1       5.843  28.960  57.236  1.00  0.00    -0.266 OA
ENDBRANCH   8  24
TORSDOF 5
ENDMDL
MODEL 8
REMARK VINA RESULT:      -8.3      3.802      6.240
REMARK  5 active torsions:
REMARK  status: ('A' for Active; 'I' for Inactive)
REMARK    1  A    between atoms: C_2  and  C_3 
REMARK    2  A    between atoms: C_6  and  C_7 
REMARK    3  A    between atoms: C_7  and  C_8 
REMARK       I    between atoms: C_8  and  N_9 
REMARK    4  A    between atoms: N_9  and  C_10 
REMARK    5  A    between atoms: C_17  and  C_18 
REMARK       I    between atoms: C_18  and  N_19 
ROOT
HETATM    1  C   UNL     1       7.999  31.730  61.677  1.00  0.00     0.035 A 
HETATM    2  C   UNL     1       6.634  31.952  61.440  1.00  0.00     0.046 A 
HETATM    3  C   UNL     1       5.844  32.562  62.439  1.00  0.00     0.030 A 
HETATM    4  C   UNL     1       6.449  32.955  63.626  1.00  0.00     0.063 A 
HETATM    5  N   UNL     1       5.447  33.497  64.381  1.00  0.00    -0.277 N 
HETATM    6  H   UNL     1       5.523  33.888  65.314  1.00  0.00     0.189 HD
HETATM    7  N   UNL     1       4.236  33.475  63.800  1.00  0.00    -0.168 NA
HETATM    8  C   UNL     1       4.465  32.898  62.597  1.00  0.00     0.156 A 
HETATM    9  C   UNL     1       7.809  32.772  63.885  1.00  0.00     0.034 A 
HETATM   10  C   UNL     1       8.567  32.141  62.889  1.00  0.00     0.032 A 
ENDROOT
BRANCH   1  11
HETATM   11  N   UNL     1       8.827  31.018  60.783  1.00  0.00    -0.327 N 
HETATM   12  C   UNL     1       9.270  31.447  59.543  1.00  0.00     0.226 C 
HETATM   13  O   UNL     1       9.325  32.614  59.163  1.00  0.00    -0.273 OA
HETATM   14  H   UNL     1       9.129  30.098  61.078  1.00  0.00     0.169 HD
BRANCH  12  15
HETATM   15  C   UNL     1       9.654  30.299  58.625  1.00  0.00     0.141 C 
BRANCH  15  16
HETATM   16  C   UNL     1       8.507  29.592  57.950  1.00  0.00    -0.049 A 
HETATM   17  C   UNL     1       8.717  28.357  57.320  1.00  0.00     0.008 A 
HETATM   18  C   UNL     1       7.643  27.627  56.804  1.00  0.00     0.007 A 
HETATM   19  C   UNL     1       6.333  28.107  56.920  1.00  0.00    -0.059 A 
HETATM   20  C   UNL     1       6.125  29.353  57.523  1.00  0.00     0.007 A 
HETATM   21  C   UNL     1       7.200  30.086  58.035  1.00  0.00     0.008 A 
BRANCH  19  22
HETATM   22  C   UNL     1       5.167  27.293  56.416  1.00  0.00     0.034 C 
HETATM   23  C   UNL     1       5.233  27.041  54.915  1.00  0.00     0.010 C 
ENDBRANCH  19  22
ENDBRANCH  15  16
ENDBRANCH  12  15
ENDBRANCH   1  11
BRANCH   8  24
HETATM   24  C   UNL     1       3.371  32.662  61.644  1.00  0.00     0.270 C 
HETATM   25  N   UNL     1       3.190  31.345  61.316  1.00  0.00    -0.365 N 
HETATM   26  H   UNL     1       3.808  30.654  61.724  1.00  0.00     0.159 HD
HETATM   27  H   UNL     1       2.475  31.091  60.654  1.00  0.00     0.159 HD
HETATM   28  O   UNL     1       2.669  33.539  61.154  1.00  0.00    -0.266 OA
ENDBRANCH   8  24
TORSDOF 5
ENDMDL
MODEL 9
REMARK VINA RESULT:      -8.1      4.916      7.258
REMARK  5 active torsions:
REMARK  status: ('A' for Active; 'I' for Inactive)
REMARK    1  A    between atoms: C_2  and  C_3 
REMARK    2  A    between atoms: C_6  and  C_7 
REMARK    3  A    between atoms: C_7  and  C_8 
REMARK       I    between atoms: C_8  and  N_9 
REMARK    4  A    between atoms: N_9  and  C_10 
REMARK    5  A    between atoms: C_17  and  C_18 
REMARK       I    between atoms: C_18  and  N_19 
ROOT
HETATM    1  C   UNL     1       5.300  27.380  51.986  1.00  0.00     0.035 A 
HETATM    2  C   UNL     1       5.344  28.681  51.464  1.00  0.00     0.046 A 
HETATM    3  C   UNL     1       5.160  28.884  50.080  1.00  0.00     0.030 A 
HETATM    4  C   UNL     1       4.910  27.784  49.269  1.00  0.00     0.063 A 
HETATM    5  N   UNL     1       4.785  28.288  48.004  1.00  0.00    -0.277 N 
HETATM    6  H   UNL     1       4.600  27.771  47.152  1.00  0.00     0.189 HD
HETATM    7  N   UNL     1       4.951  29.618  47.915  1.00  0.00    -0.168 NA
HETATM    8  C   UNL     1       5.185  30.001  49.191  1.00  0.00     0.156 A 
HETATM    9  C   UNL     1       4.834  26.478  49.757  1.00  0.00     0.034 A 
HETATM   10  C   UNL     1       5.046  26.300  51.131  1.00  0.00     0.032 A 
ENDROOT
BRANCH   1  11
HETATM   11  N   UNL     1       5.596  27.082  53.334  1.00  0.00    -0.327 N 
HETATM   12  C   UNL     1       6.837  27.148  53.944  1.00  0.00     0.226 C 
HETATM   13  O   UNL     1       7.801  27.795  53.546  1.00  0.00    -0.273 OA
HETATM   14  H   UNL     1       4.820  26.790  53.915  1.00  0.00     0.169 HD
BRANCH  12  15
HETATM   15  C   UNL     1       6.931  26.270  55.181  1.00  0.00     0.141 C 
BRANCH  15  16
HETATM   16  C   UNL     1       7.372  24.849  54.942  1.00  0.00    -0.049 A 
HETATM   17  C   UNL     1       7.286  23.904  55.973  1.00  0.00     0.008 A 
HETATM   18  C   UNL     1       7.567  22.557  55.732  1.00  0.00     0.007 A 
HETATM   19  C   UNL     1       7.924  22.121  54.451  1.00  0.00    -0.059 A 
HETATM   20  C   UNL     1       8.037  23.068  53.426  1.00  0.00     0.007 A 
HETATM   21  C   UNL     1       7.762  24.417  53.668  1.00  0.00     0.008 A 
BRANCH  19  22
HETATM   22  C   UNL     1       8.168  20.657  54.176  1.00  0.00     0.034 C 
HETATM   23  C   UNL     1       8.303  20.356  52.688  1.00  0.00     0.010 C 
ENDBRANCH  19  22
ENDBRANCH  15  16
ENDBRANCH  12  15
ENDBRANCH   1  11
BRANCH   8  24
HETATM   24  C   UNL     1       5.448  31.408  49.529  1.00  0.00     0.270 C 
HETATM   25  N   UNL     1       4.408  32.033  50.163  1.00  0.00    -0.365 N 
HETATM   26  H   UNL     1       3.559  31.509  50.336  1.00  0.00     0.159 HD
HETATM   27  H   UNL     1       4.491  33.005  50.415  1.00  0.00     0.159 HD
HETATM   28  O   UNL     1       6.484  32.009  49.270  1.00  0.00    -0.266 OA
ENDBRANCH   8  24
TORSDOF 5
ENDMDL
MODEL 10
REMARK VINA RESULT:      -8.0      3.128      4.083
REMARK  5 active torsions:
REMARK  status: ('A' for Active; 'I' for Inactive)
REMARK    1  A    between atoms: C_2  and  C_3 
REMARK    2  A    between atoms: C_6  and  C_7 
REMARK    3  A    between atoms: C_7  and  C_8 
REMARK       I    between atoms: C_8  and  N_9 
REMARK    4  A    between atoms: N_9  and  C_10 
REMARK    5  A    between atoms: C_17  and  C_18 
REMARK       I    between atoms: C_18  and  N_19 
ROOT
HETATM    1  C   UNL     1       5.441  27.972  56.761  1.00  0.00     0.035 A 
HETATM    2  C   UNL     1       5.062  29.153  57.417  1.00  0.00     0.046 A 
HETATM    3  C   UNL     1       4.279  30.109  56.735  1.00  0.00     0.030 A 
HETATM    4  C   UNL     1       3.876  29.839  55.433  1.00  0.00     0.063 A 
HETATM    5  N   UNL     1       3.151  30.932  55.046  1.00  0.00    -0.277 N 
HETATM    6  H   UNL     1       2.702  31.084  54.149  1.00  0.00     0.189 HD
HETATM    7  N   UNL     1       3.061  31.899  55.973  1.00  0.00    -0.168 NA
HETATM    8  C   UNL     1       3.755  31.405  57.024  1.00  0.00     0.156 A 
HETATM    9  C   UNL     1       4.213  28.664  54.758  1.00  0.00     0.034 A 
HETATM   10  C   UNL     1       5.014  27.743  55.448  1.00  0.00     0.032 A 
ENDROOT
BRANCH   1  11
HETATM   11  N   UNL     1       6.323  27.027  57.329  1.00  0.00    -0.327 N 
HETATM   12  C   UNL     1       7.699  26.988  57.186  1.00  0.00     0.226 C 
HETATM   13  O   UNL     1       8.416  27.930  56.858  1.00  0.00    -0.273 OA
HETATM   14  H   UNL     1       5.905  26.302  57.899  1.00  0.00     0.169 HD
BRANCH  12  15
HETATM   15  C   UNL     1       8.277  25.604  57.431  1.00  0.00     0.141 C 
BRANCH  15  16
HETATM   16  C   UNL     1       8.110  24.618  56.305  1.00  0.00    -0.049 A 
HETATM   17  C   UNL     1       7.564  25.035  55.083  1.00  0.00     0.008 A 
HETATM   18  C   UNL     1       7.522  24.168  53.987  1.00  0.00     0.007 A 
HETATM   19  C   UNL     1       8.039  22.871  54.083  1.00  0.00    -0.059 A 
HETATM   20  C   UNL     1       8.560  22.444  55.311  1.00  0.00     0.007 A 
HETATM   21  C   UNL     1       8.597  23.309  56.409  1.00  0.00     0.008 A 
BRANCH  19  22
HETATM   22  C   UNL     1       8.049  21.955  52.884  1.00  0.00     0.034 C 
HETATM   23  C   UNL     1       7.950  20.484  53.270  1.00  0.00     0.010 C 
ENDBRANCH  19  22
ENDBRANCH  15  16
ENDBRANCH  12  15
ENDBRANCH   1  11
BRANCH   8  24
HETATM   24  C   UNL     1       3.921  32.183  58.261  1.00  0.00     0.270 C 
HETATM   25  N   UNL     1       5.177  32.698  58.433  1.00  0.00    -0.365 N 
HETATM   26  H   UNL     1       5.882  32.502  57.732  1.00  0.00     0.159 HD
HETATM   27  H   UNL     1       5.388  33.228  59.263  1.00  0.00     0.159 HD
HETATM   28  O   UNL     1       3.042  32.365  59.096  1.00  0.00    -0.266 OA
ENDBRANCH   8  24
TORSDOF 5
ENDMDL
