MODEL 1
REMARK VINA RESULT:      -9.0      0.000      0.000
REMARK  6 active torsions:
REMARK  status: ('A' for Active; 'I' for Inactive)
REMARK    1  A    between atoms: C_3  and  N_4 
REMARK       I    between atoms: N_4  and  C_5 
REMARK       I    between atoms: C_5  and  N_6 
REMARK    2  A    between atoms: N_6  and  C_7 
REMARK    3  A    between atoms: C_7  and  C_8 
REMARK    4  A    between atoms: C_16  and  N_17 
REMARK       I    between atoms: N_17  and  C_18 
REMARK    5  A    between atoms: C_18  and  C_19 
REMARK    6  A    between atoms: C_19  and  C_20 
ROOT
HETATM    1  C   UNL     1      10.831  30.119  57.017  1.00  0.00     0.004 A 
HETATM    2  C   UNL     1       9.887  29.200  56.558  1.00  0.00     0.029 A 
HETATM    3  C   UNL     1       8.685  29.023  57.243  1.00  0.00     0.038 A 
HETATM    4  C   UNL     1       8.439  29.788  58.394  1.00  0.00     0.059 A 
HETATM    5  C   UNL     1       9.376  30.715  58.863  1.00  0.00     0.036 A 
HETATM    6  C   UNL     1      10.577  30.872  58.163  1.00  0.00     0.029 A 
ENDROOT
BRANCH   3   7
HETATM    7  N   UNL     1       7.675  28.124  56.840  1.00  0.00    -0.309 N 
HETATM    8  C   UNL     1       7.620  26.768  57.070  1.00  0.00     0.320 C 
HETATM    9  N   UNL     1       6.526  26.204  56.447  1.00  0.00    -0.339 N 
HETATM   10  O   UNL     1       8.405  26.107  57.735  1.00  0.00    -0.247 OA
HETATM   11  H   UNL     1       6.118  26.695  55.667  1.00  0.00     0.164 HD
HETATM   12  H   UNL     1       6.845  28.537  56.440  1.00  0.00     0.170 HD
BRANCH   9  13
HETATM   13  C   UNL     1       6.264  24.783  56.536  1.00  0.00     0.163 C 
BRANCH  13  14
HETATM   14  C   UNL     1       6.828  23.985  55.386  1.00  0.00    -0.038 A 
HETATM   15  C   UNL     1       7.554  22.804  55.569  1.00  0.00     0.028 A 
HETATM   16  C   UNL     1       7.998  22.110  54.453  1.00  0.00     0.116 A 
HETATM   17  N   UNL     1       7.760  22.497  53.182  1.00  0.00    -0.273 NA
HETATM   18  C   UNL     1       7.033  23.622  53.022  1.00  0.00     0.116 A 
HETATM   19  C   UNL     1       6.552  24.386  54.073  1.00  0.00     0.028 A 
ENDBRANCH  13  14
ENDBRANCH   9  13
ENDBRANCH   3   7
BRANCH   5  20
HETATM   20  N   UNL     1       9.191  31.517  60.009  1.00  0.00    -0.327 N 
HETATM   21  C   UNL     1       9.135  31.102  61.329  1.00  0.00     0.227 C 
HETATM   22  O   UNL     1       9.223  29.942  61.733  1.00  0.00    -0.273 OA
HETATM   23  H   UNL     1       9.043  32.503  59.836  1.00  0.00     0.169 HD
BRANCH  21  24
HETATM   24  C   UNL     1       8.902  32.247  62.314  1.00  0.00     0.159 C 
BRANCH  24  25
HETATM   25  C   UNL     1       7.477  32.268  62.768  1.00  0.00     0.017 A 
HETATM   26  N   UNL     1       6.553  31.356  62.306  1.00  0.00    -0.369 N 
HETATM   27  H   UNL     1       6.747  30.632  61.620  1.00  0.00     0.165 HD
HETATM   28  C   UNL     1       5.335  31.602  62.884  1.00  0.00     0.088 A 
HETATM   29  C   UNL     1       5.480  32.669  63.742  1.00  0.00     0.019 A 
HETATM   30  C   UNL     1       6.831  33.088  63.673  1.00  0.00     0.027 A 
ENDBRANCH  24  25
ENDBRANCH  21  24
ENDBRANCH   5  20
TORSDOF 6
ENDMDL
MODEL 2
REMARK VINA RESULT:      -8.9      1.314      9.649
REMARK  6 active torsions:
REMARK  status: ('A' for Active; 'I' for Inactive)
REMARK    1  A    between atoms: C_3  and  N_4 
REMARK       I    between atoms: N_4  and  C_5 
REMARK       I    between atoms: C_5  and  N_6 
REMARK    2  A    between atoms: N_6  and  C_7 
REMARK    3  A    between atoms: C_7  and  C_8 
REMARK    4  A    between atoms: C_16  and  N_17 
REMARK       I    between atoms: N_17  and  C_18 
REMARK    5  A    between atoms: C_18  and  C_19 
REMARK    6  A    between atoms: C_19  and  C_20 
ROOT
HETATM    1  C   UNL     1      10.600  29.696  56.812  1.00  0.00     0.004 A 
HETATM    2  C   UNL     1      10.311  30.612  57.822  1.00  0.00     0.029 A 
HETATM    3  C   UNL     1       9.105  30.534  58.520  1.00  0.00     0.038 A 
HETATM    4  C   UNL     1       8.196  29.515  58.194  1.00  0.00     0.059 A 
HETATM    5  C   UNL     1       8.476  28.588  57.185  1.00  0.00     0.036 A 
HETATM    6  C   UNL     1       9.689  28.689  56.495  1.00  0.00     0.029 A 
ENDROOT
BRANCH   3   7
HETATM    7  N   UNL     1       8.740  31.413  59.561  1.00  0.00    -0.309 N 
HETATM    8  C   UNL     1       8.893  31.217  60.916  1.00  0.00     0.320 C 
HETATM    9  N   UNL     1       8.337  32.256  61.633  1.00  0.00    -0.339 N 
HETATM   10  O   UNL     1       9.446  30.271  61.459  1.00  0.00    -0.247 OA
HETATM   11  H   UNL     1       7.627  32.815  61.186  1.00  0.00     0.164 HD
HETATM   12  H   UNL     1       8.441  32.335  59.281  1.00  0.00     0.170 HD
BRANCH   9  13
HETATM   13  C   UNL     1       8.365  32.266  63.080  1.00  0.00     0.163 C 
BRANCH  13  14
HETATM   14  C   UNL     1       7.078  32.737  63.712  1.00  0.00    -0.038 A 
HETATM   15  C   UNL     1       5.823  32.483  63.150  1.00  0.00     0.028 A 
HETATM   16  C   UNL     1       4.688  32.915  63.822  1.00  0.00     0.116 A 
HETATM   17  N   UNL     1       4.715  33.563  65.005  1.00  0.00    -0.273 NA
HETATM   18  C   UNL     1       5.931  33.773  65.549  1.00  0.00     0.116 A 
HETATM   19  C   UNL     1       7.120  33.385  64.952  1.00  0.00     0.028 A 
ENDBRANCH  13  14
ENDBRANCH   9  13
ENDBRANCH   3   7
BRANCH   5  20
HETATM   20  N   UNL     1       7.609  27.540  56.810  1.00  0.00    -0.327 N 
HETATM   21  C   UNL     1       7.454  26.310  57.428  1.00  0.00     0.227 C 
HETATM   22  O   UNL     1       8.068  25.910  58.418  1.00  0.00    -0.273 OA
HETATM   23  H   UNL     1       7.071  27.696  55.967  1.00  0.00     0.169 HD
BRANCH  21  24
HETATM   24  C   UNL     1       6.435  25.408  56.734  1.00  0.00     0.159 C 
BRANCH  24  25
HETATM   25  C   UNL     1       7.119  24.467  55.794  1.00  0.00     0.017 A 
HETATM   26  N   UNL     1       8.312  23.857  56.115  1.00  0.00    -0.369 N 
HETATM   27  H   UNL     1       8.826  24.010  56.979  1.00  0.00     0.165 HD
HETATM   28  C   UNL     1       8.710  23.050  55.083  1.00  0.00     0.088 A 
HETATM   29  C   UNL     1       7.754  23.124  54.094  1.00  0.00     0.019 A 
HETATM   30  C   UNL     1       6.749  24.014  54.543  1.00  0.00     0.027 A 
ENDBRANCH  24  25
ENDBRANCH  21  24
ENDBRANCH   5  20
TORSDOF 6
ENDMDL
MODEL 3
REMARK VINA RESULT:      -8.8      2.088      2.941
REMARK  6 active torsions:
REMARK  status: ('A' for Active; 'I' for Inactive)
REMARK    1  A    between atoms: C_3  and  N_4 
REMARK       I    between atoms: N_4  and  C_5 
REMARK       I    between atoms: C_5  and  N_6 
REMARK    2  A    between atoms: N_6  and  C_7 
REMARK    3  A    between atoms: C_7  and  C_8 
REMARK    4  A    between atoms: C_16  and  N_17 
REMARK       I    between atoms: N_17  and  C_18 
REMARK    5  A    between atoms: C_18  and  C_19 
REMARK    6  A    between atoms: C_19  and  C_20 
ROOT
HETATM    1  C   UNL     1       5.468  29.887  56.150  1.00  0.00     0.004 A 
HETATM    2  C   UNL     1       5.875  28.867  55.290  1.00  0.00     0.029 A 
HETATM    3  C   UNL     1       6.946  28.042  55.634  1.00  0.00     0.038 A 
HETATM    4  C   UNL     1       7.598  28.250  56.860  1.00  0.00     0.059 A 
HETATM    5  C   UNL     1       7.197  29.267  57.732  1.00  0.00     0.036 A 
HETATM    6  C   UNL     1       6.124  30.086  57.364  1.00  0.00     0.029 A 
ENDROOT
BRANCH   3   7
HETATM    7  N   UNL     1       7.413  26.983  54.828  1.00  0.00    -0.309 N 
HETATM    8  C   UNL     1       6.723  25.856  54.442  1.00  0.00     0.320 C 
HETATM    9  N   UNL     1       7.534  24.997  53.729  1.00  0.00    -0.339 N 
HETATM   10  O   UNL     1       5.548  25.606  54.670  1.00  0.00    -0.247 OA
HETATM   11  H   UNL     1       8.532  25.075  53.852  1.00  0.00     0.164 HD
HETATM   12  H   UNL     1       8.312  27.120  54.389  1.00  0.00     0.170 HD
BRANCH   9  13
HETATM   13  C   UNL     1       7.031  23.736  53.228  1.00  0.00     0.163 C 
BRANCH  13  14
HETATM   14  C   UNL     1       7.629  22.528  53.907  1.00  0.00    -0.038 A 
HETATM   15  C   UNL     1       7.712  22.406  55.297  1.00  0.00     0.028 A 
HETATM   16  C   UNL     1       8.237  21.240  55.838  1.00  0.00     0.116 A 
HETATM   17  N   UNL     1       8.665  20.195  55.099  1.00  0.00    -0.273 NA
HETATM   18  C   UNL     1       8.551  20.315  53.761  1.00  0.00     0.116 A 
HETATM   19  C   UNL     1       8.046  21.441  53.129  1.00  0.00     0.028 A 
ENDBRANCH  13  14
ENDBRANCH   9  13
ENDBRANCH   3   7
BRANCH   5  20
HETATM   20  N   UNL     1       7.806  29.528  58.978  1.00  0.00    -0.327 N 
HETATM   21  C   UNL     1       8.217  30.752  59.477  1.00  0.00     0.227 C 
HETATM   22  O   UNL     1       8.133  31.838  58.902  1.00  0.00    -0.273 OA
HETATM   23  H   UNL     1       7.998  28.715  59.551  1.00  0.00     0.169 HD
BRANCH  21  24
HETATM   24  C   UNL     1       8.859  30.658  60.860  1.00  0.00     0.159 C 
BRANCH  24  25
HETATM   25  C   UNL     1       8.037  31.389  61.873  1.00  0.00     0.017 A 
HETATM   26  N   UNL     1       6.664  31.284  61.908  1.00  0.00    -0.369 N 
HETATM   27  H   UNL     1       6.107  30.740  61.254  1.00  0.00     0.165 HD
HETATM   28  C   UNL     1       6.169  32.050  62.930  1.00  0.00     0.088 A 
HETATM   29  C   UNL     1       7.235  32.638  63.574  1.00  0.00     0.019 A 
HETATM   30  C   UNL     1       8.414  32.219  62.911  1.00  0.00     0.027 A 
ENDBRANCH  24  25
ENDBRANCH  21  24
ENDBRANCH   5  20
TORSDOF 6
ENDMDL
MODEL 4
REMARK VINA RESULT:      -8.4      2.224      9.546
REMARK  6 active torsions:
REMARK  status: ('A' for Active; 'I' for Inactive)
REMARK    1  A    between atoms: C_3  and  N_4 
REMARK       I    between atoms: N_4  and  C_5 
REMARK       I    between atoms: C_5  and  N_6 
REMARK    2  A    between atoms: N_6  and  C_7 
REMARK    3  A    between atoms: C_7  and  C_8 
REMARK    4  A    between atoms: C_16  and  N_17 
REMARK       I    between atoms: N_17  and  C_18 
REMARK    5  A    between atoms: C_18  and  C_19 
REMARK    6  A    between atoms: C_19  and  C_20 
ROOT
HETATM    1  C   UNL     1      10.569  29.720  56.404  1.00  0.00     0.004 A 
HETATM    2  C   UNL     1      10.324  30.025  57.743  1.00  0.00     0.029 A 
HETATM    3  C   UNL     1       9.023  30.001  58.244  1.00  0.00     0.038 A 
HETATM    4  C   UNL     1       7.968  29.658  57.383  1.00  0.00     0.059 A 
HETATM    5  C   UNL     1       8.201  29.347  56.039  1.00  0.00     0.036 A 
HETATM    6  C   UNL     1       9.514  29.382  55.557  1.00  0.00     0.029 A 
ENDROOT
BRANCH   3   7
HETATM    7  N   UNL     1       8.691  30.285  59.585  1.00  0.00    -0.309 N 
HETATM    8  C   UNL     1       8.851  31.479  60.253  1.00  0.00     0.320 C 
HETATM    9  N   UNL     1       8.499  31.356  61.581  1.00  0.00    -0.339 N 
HETATM   10  O   UNL     1       9.242  32.536  59.777  1.00  0.00    -0.247 OA
HETATM   11  H   UNL     1       8.509  30.435  61.991  1.00  0.00     0.164 HD
HETATM   12  H   UNL     1       8.174  29.572  60.078  1.00  0.00     0.170 HD
BRANCH   9  13
HETATM   13  C   UNL     1       8.595  32.479  62.488  1.00  0.00     0.163 C 
BRANCH  13  14
HETATM   14  C   UNL     1       7.365  32.682  63.340  1.00  0.00    -0.038 A 
HETATM   15  C   UNL     1       7.382  33.418  64.529  1.00  0.00     0.028 A 
HETATM   16  C   UNL     1       6.195  33.592  65.227  1.00  0.00     0.116 A 
HETATM   17  N   UNL     1       5.005  33.102  64.821  1.00  0.00    -0.273 NA
HETATM   18  C   UNL     1       4.999  32.421  63.657  1.00  0.00     0.116 A 
HETATM   19  C   UNL     1       6.133  32.190  62.893  1.00  0.00     0.028 A 
ENDBRANCH  13  14
ENDBRANCH   9  13
ENDBRANCH   3   7
BRANCH   5  20
HETATM   20  N   UNL     1       7.189  28.992  55.122  1.00  0.00    -0.327 N 
HETATM   21  C   UNL     1       5.896  28.589  55.406  1.00  0.00     0.227 C 
HETATM   22  O   UNL     1       5.405  28.453  56.528  1.00  0.00    -0.273 OA
HETATM   23  H   UNL     1       7.460  28.997  54.146  1.00  0.00     0.169 HD
BRANCH  21  24
HETATM   24  C   UNL     1       5.075  28.262  54.160  1.00  0.00     0.159 C 
BRANCH  24  25
HETATM   25  C   UNL     1       5.215  26.816  53.801  1.00  0.00     0.017 A 
HETATM   26  N   UNL     1       4.216  26.130  53.146  1.00  0.00    -0.369 N 
HETATM   27  H   UNL     1       3.318  26.526  52.882  1.00  0.00     0.165 HD
HETATM   28  C   UNL     1       4.607  24.833  52.942  1.00  0.00     0.088 A 
HETATM   29  C   UNL     1       5.877  24.687  53.451  1.00  0.00     0.019 A 
HETATM   30  C   UNL     1       6.264  25.937  53.990  1.00  0.00     0.027 A 
ENDBRANCH  24  25
ENDBRANCH  21  24
ENDBRANCH   5  20
TORSDOF 6
ENDMDL
MODEL 5
REMARK VINA RESULT:      -8.4      2.265      2.784
REMARK  6 active torsions:
REMARK  status: ('A' for Active; 'I' for Inactive)
REMARK    1  A    between atoms: C_3  and  N_4 
REMARK       I    between atoms: N_4  and  C_5 
REMARK       I    between atoms: C_5  and  N_6 
REMARK    2  A    between atoms: N_6  and  C_7 
REMARK    3  A    between atoms: C_7  and  C_8 
REMARK    4  A    between atoms: C_16  and  N_17 
REMARK       I    between atoms: N_17  and  C_18 
REMARK    5  A    between atoms: C_18  and  C_19 
REMARK    6  A    between atoms: C_19  and  C_20 
ROOT
HETATM    1  C   UNL     1       5.066  31.766  56.849  1.00  0.00     0.004 A 
HETATM    2  C   UNL     1       5.428  30.816  55.894  1.00  0.00     0.029 A 
HETATM    3  C   UNL     1       6.422  29.879  56.175  1.00  0.00     0.038 A 
HETATM    4  C   UNL     1       7.045  29.904  57.433  1.00  0.00     0.059 A 
HETATM    5  C   UNL     1       6.688  30.849  58.400  1.00  0.00     0.036 A 
HETATM    6  C   UNL     1       5.692  31.783  58.095  1.00  0.00     0.029 A 
ENDROOT
BRANCH   3   7
HETATM    7  N   UNL     1       6.839  28.880  55.271  1.00  0.00    -0.309 N 
HETATM    8  C   UNL     1       6.226  27.674  55.014  1.00  0.00     0.320 C 
HETATM    9  N   UNL     1       6.971  26.916  54.134  1.00  0.00    -0.339 N 
HETATM   10  O   UNL     1       5.161  27.284  55.471  1.00  0.00    -0.247 OA
HETATM   11  H   UNL     1       7.956  27.115  54.052  1.00  0.00     0.164 HD
HETATM   12  H   UNL     1       7.605  29.122  54.661  1.00  0.00     0.170 HD
BRANCH   9  13
HETATM   13  C   UNL     1       6.532  25.600  53.723  1.00  0.00     0.163 C 
BRANCH  13  14
HETATM   14  C   UNL     1       7.472  24.489  54.125  1.00  0.00    -0.038 A 
HETATM   15  C   UNL     1       7.958  24.345  55.428  1.00  0.00     0.028 A 
HETATM   16  C   UNL     1       8.784  23.269  55.720  1.00  0.00     0.116 A 
HETATM   17  N   UNL     1       9.144  22.330  54.819  1.00  0.00    -0.273 NA
HETATM   18  C   UNL     1       8.643  22.466  53.575  1.00  0.00     0.116 A 
HETATM   19  C   UNL     1       7.816  23.509  53.186  1.00  0.00     0.028 A 
ENDBRANCH  13  14
ENDBRANCH   9  13
ENDBRANCH   3   7
BRANCH   5  20
HETATM   20  N   UNL     1       7.271  30.928  59.683  1.00  0.00    -0.327 N 
HETATM   21  C   UNL     1       8.288  31.770  60.098  1.00  0.00     0.227 C 
HETATM   22  O   UNL     1       8.878  32.597  59.402  1.00  0.00    -0.273 OA
HETATM   23  H   UNL     1       6.927  30.260  60.363  1.00  0.00     0.169 HD
BRANCH  21  24
HETATM   24  C   UNL     1       8.685  31.567  61.559  1.00  0.00     0.159 C 
BRANCH  24  25
HETATM   25  C   UNL     1       7.921  32.497  62.447  1.00  0.00     0.017 A 
HETATM   26  N   UNL     1       6.993  33.384  61.945  1.00  0.00    -0.369 N 
HETATM   27  H   UNL     1       6.775  33.497  60.959  1.00  0.00     0.165 HD
HETATM   28  C   UNL     1       6.445  34.106  62.971  1.00  0.00     0.088 A 
HETATM   29  C   UNL     1       7.008  33.668  64.148  1.00  0.00     0.019 A 
HETATM   30  C   UNL     1       7.936  32.650  63.820  1.00  0.00     0.027 A 
ENDBRANCH  24  25
ENDBRANCH  21  24
ENDBRANCH   5  20
TORSDOF 6
ENDMDL
MODEL 6
REMARK VINA RESULT:      -8.4      5.780      9.568
REMARK  6 active torsions:
REMARK  status: ('A' for Active; 'I' for Inactive)
REMARK    1  A    between atoms: C_3  and  N_4 
REMARK       I    between atoms: N_4  and  C_5 
REMARK       I    between atoms: C_5  and  N_6 
REMARK    2  A    between atoms: N_6  and  C_7 
REMARK    3  A    between atoms: C_7  and  C_8 
REMARK    4  A    between atoms: C_16  and  N_17 
REMARK       I    between atoms: N_17  and  C_18 
REMARK    5  A    between atoms: C_18  and  C_19 
REMARK    6  A    between atoms: C_19  and  C_20 
ROOT
HETATM    1  C   UNL     1       4.646  29.826  55.018  1.00  0.00     0.004 A 
HETATM    2  C   UNL     1       5.560  28.788  55.193  1.00  0.00     0.029 A 
HETATM    3  C   UNL     1       5.522  27.669  54.362  1.00  0.00     0.038 A 
HETATM    4  C   UNL     1       4.557  27.610  53.344  1.00  0.00     0.059 A 
HETATM    5  C   UNL     1       3.638  28.647  53.156  1.00  0.00     0.036 A 
HETATM    6  C   UNL     1       3.690  29.757  54.005  1.00  0.00     0.029 A 
ENDROOT
BRANCH   3   7
HETATM    7  N   UNL     1       6.416  26.582  54.465  1.00  0.00    -0.309 N 
HETATM    8  C   UNL     1       6.301  25.476  55.278  1.00  0.00     0.320 C 
HETATM    9  N   UNL     1       7.412  24.666  55.174  1.00  0.00    -0.339 N 
HETATM   10  O   UNL     1       5.358  25.201  56.006  1.00  0.00    -0.247 OA
HETATM   11  H   UNL     1       8.271  25.078  54.843  1.00  0.00     0.164 HD
HETATM   12  H   UNL     1       7.162  26.552  53.786  1.00  0.00     0.170 HD
BRANCH   9  13
HETATM   13  C   UNL     1       7.525  23.447  55.946  1.00  0.00     0.163 C 
BRANCH  13  14
HETATM   14  C   UNL     1       7.854  22.229  55.118  1.00  0.00    -0.038 A 
HETATM   15  C   UNL     1       7.735  22.206  53.725  1.00  0.00     0.028 A 
HETATM   16  C   UNL     1       8.101  21.057  53.039  1.00  0.00     0.116 A 
HETATM   17  N   UNL     1       8.586  19.948  53.635  1.00  0.00    -0.273 NA
HETATM   18  C   UNL     1       8.725  19.996  54.975  1.00  0.00     0.116 A 
HETATM   19  C   UNL     1       8.380  21.094  55.747  1.00  0.00     0.028 A 
ENDBRANCH  13  14
ENDBRANCH   9  13
ENDBRANCH   3   7
BRANCH   5  20
HETATM   20  N   UNL     1       2.646  28.652  52.152  1.00  0.00    -0.327 N 
HETATM   21  C   UNL     1       2.787  29.031  50.828  1.00  0.00     0.227 C 
HETATM   22  O   UNL     1       3.816  29.449  50.295  1.00  0.00    -0.273 OA
HETATM   23  H   UNL     1       1.716  28.386  52.452  1.00  0.00     0.169 HD
BRANCH  21  24
HETATM   24  C   UNL     1       1.490  28.928  50.027  1.00  0.00     0.159 C 
BRANCH  24  25
HETATM   25  C   UNL     1       1.663  28.012  48.858  1.00  0.00     0.017 A 
HETATM   26  N   UNL     1       2.682  27.086  48.805  1.00  0.00    -0.369 N 
HETATM   27  H   UNL     1       3.395  26.968  49.519  1.00  0.00     0.165 HD
HETATM   28  C   UNL     1       2.604  26.383  47.632  1.00  0.00     0.088 A 
HETATM   29  C   UNL     1       1.513  26.845  46.931  1.00  0.00     0.019 A 
HETATM   30  C   UNL     1       0.916  27.870  47.705  1.00  0.00     0.027 A 
ENDBRANCH  24  25
ENDBRANCH  21  24
ENDBRANCH   5  20
TORSDOF 6
ENDMDL
MODEL 7
REMARK VINA RESULT:      -8.0      5.247      9.205
REMARK  6 active torsions:
REMARK  status: ('A' for Active; 'I' for Inactive)
REMARK    1  A    between atoms: C_3  and  N_4 
REMARK       I    between atoms: N_4  and  C_5 
REMARK       I    between atoms: C_5  and  N_6 
REMARK    2  A    between atoms: N_6  and  C_7 
REMARK    3  A    between atoms: C_7  and  C_8 
REMARK    4  A    between atoms: C_16  and  N_17 
REMARK       I    between atoms: N_17  and  C_18 
REMARK    5  A    between atoms: C_18  and  C_19 
REMARK    6  A    between atoms: C_19  and  C_20 
ROOT
HETATM    1  C   UNL     1       5.416  28.323  56.918  1.00  0.00     0.004 A 
HETATM    2  C   UNL     1       4.502  28.480  55.877  1.00  0.00     0.029 A 
HETATM    3  C   UNL     1       4.620  27.717  54.715  1.00  0.00     0.038 A 
HETATM    4  C   UNL     1       5.665  26.786  54.616  1.00  0.00     0.059 A 
HETATM    5  C   UNL     1       6.586  26.616  55.655  1.00  0.00     0.036 A 
HETATM    6  C   UNL     1       6.452  27.396  56.809  1.00  0.00     0.029 A 
ENDROOT
BRANCH   3   7
HETATM    7  N   UNL     1       3.732  27.807  53.622  1.00  0.00    -0.309 N 
HETATM    8  C   UNL     1       3.941  28.455  52.425  1.00  0.00     0.320 C 
HETATM    9  N   UNL     1       2.814  28.405  51.631  1.00  0.00    -0.339 N 
HETATM   10  O   UNL     1       4.970  29.008  52.063  1.00  0.00    -0.247 OA
HETATM   11  H   UNL     1       1.924  28.248  52.079  1.00  0.00     0.164 HD
HETATM   12  H   UNL     1       2.900  27.239  53.675  1.00  0.00     0.170 HD
BRANCH   9  13
HETATM   13  C   UNL     1       2.790  29.030  50.326  1.00  0.00     0.163 C 
BRANCH  13  14
HETATM   14  C   UNL     1       2.992  28.063  49.184  1.00  0.00    -0.038 A 
HETATM   15  C   UNL     1       1.932  27.558  48.424  1.00  0.00     0.028 A 
HETATM   16  C   UNL     1       2.213  26.708  47.364  1.00  0.00     0.116 A 
HETATM   17  N   UNL     1       3.461  26.343  47.002  1.00  0.00    -0.273 NA
HETATM   18  C   UNL     1       4.473  26.863  47.725  1.00  0.00     0.116 A 
HETATM   19  C   UNL     1       4.293  27.714  48.804  1.00  0.00     0.028 A 
ENDBRANCH  13  14
ENDBRANCH   9  13
ENDBRANCH   3   7
BRANCH   5  20
HETATM   20  N   UNL     1       7.657  25.697  55.622  1.00  0.00    -0.327 N 
HETATM   21  C   UNL     1       7.587  24.316  55.690  1.00  0.00     0.227 C 
HETATM   22  O   UNL     1       6.561  23.644  55.808  1.00  0.00    -0.273 OA
HETATM   23  H   UNL     1       8.583  26.104  55.585  1.00  0.00     0.169 HD
BRANCH  21  24
HETATM   24  C   UNL     1       8.954  23.638  55.646  1.00  0.00     0.159 C 
BRANCH  24  25
HETATM   25  C   UNL     1       8.866  22.319  54.944  1.00  0.00     0.017 A 
HETATM   26  N   UNL     1       8.742  21.135  55.637  1.00  0.00    -0.369 N 
HETATM   27  H   UNL     1       8.726  21.055  56.650  1.00  0.00     0.165 HD
HETATM   28  C   UNL     1       8.680  20.090  54.753  1.00  0.00     0.088 A 
HETATM   29  C   UNL     1       8.745  20.606  53.479  1.00  0.00     0.019 A 
HETATM   30  C   UNL     1       8.858  22.013  53.598  1.00  0.00     0.027 A 
ENDBRANCH  24  25
ENDBRANCH  21  24
ENDBRANCH   5  20
TORSDOF 6
ENDMDL
MODEL 8
REMARK VINA RESULT:      -8.0      2.371      9.800
REMARK  6 active torsions:
REMARK  status: ('A' for Active; 'I' for Inactive)
REMARK    1  A    between atoms: C_3  and  N_4 
REMARK       I    between atoms: N_4  and  C_5 
REMARK       I    between atoms: C_5  and  N_6 
REMARK    2  A    between atoms: N_6  and  C_7 
REMARK    3  A    between atoms: C_7  and  C_8 
REMARK    4  A    between atoms: C_16  and  N_17 
REMARK       I    between atoms: N_17  and  C_18 
REMARK    5  A    between atoms: C_18  and  C_19 
REMARK    6  A    between atoms: C_19  and  C_20 
ROOT
HETATM    1  C   UNL     1       4.449  27.539  53.200  1.00  0.00     0.004 A 
HETATM    2  C   UNL     1       4.743  28.283  54.343  1.00  0.00     0.029 A 
HETATM    3  C   UNL     1       5.560  27.749  55.339  1.00  0.00     0.038 A 
HETATM    4  C   UNL     1       6.086  26.459  55.168  1.00  0.00     0.059 A 
HETATM    5  C   UNL     1       5.802  25.705  54.025  1.00  0.00     0.036 A 
HETATM    6  C   UNL     1       4.975  26.258  53.041  1.00  0.00     0.029 A 
ENDROOT
BRANCH   3   7
HETATM    7  N   UNL     1       5.914  28.438  56.518  1.00  0.00    -0.309 N 
HETATM    8  C   UNL     1       7.080  29.128  56.768  1.00  0.00     0.320 C 
HETATM    9  N   UNL     1       7.111  29.596  58.065  1.00  0.00    -0.339 N 
HETATM   10  O   UNL     1       7.991  29.332  55.978  1.00  0.00    -0.247 OA
HETATM   11  H   UNL     1       6.529  29.138  58.749  1.00  0.00     0.164 HD
HETATM   12  H   UNL     1       5.189  28.535  57.213  1.00  0.00     0.170 HD
BRANCH   9  13
HETATM   13  C   UNL     1       8.246  30.343  58.564  1.00  0.00     0.163 C 
BRANCH  13  14
HETATM   14  C   UNL     1       8.032  30.931  59.937  1.00  0.00    -0.038 A 
HETATM   15  C   UNL     1       6.982  31.807  60.230  1.00  0.00     0.028 A 
HETATM   16  C   UNL     1       6.835  32.266  61.532  1.00  0.00     0.116 A 
HETATM   17  N   UNL     1       7.642  31.906  62.552  1.00  0.00    -0.273 NA
HETATM   18  C   UNL     1       8.632  31.038  62.260  1.00  0.00     0.116 A 
HETATM   19  C   UNL     1       8.862  30.530  60.991  1.00  0.00     0.028 A 
ENDBRANCH  13  14
ENDBRANCH   9  13
ENDBRANCH   3   7
BRANCH   5  20
HETATM   20  N   UNL     1       6.299  24.405  53.790  1.00  0.00    -0.327 N 
HETATM   21  C   UNL     1       7.442  24.052  53.093  1.00  0.00     0.227 C 
HETATM   22  O   UNL     1       8.224  24.825  52.537  1.00  0.00    -0.273 OA
HETATM   23  H   UNL     1       5.727  23.646  54.140  1.00  0.00     0.169 HD
BRANCH  21  24
HETATM   24  C   UNL     1       7.664  22.543  53.018  1.00  0.00     0.159 C 
BRANCH  24  25
HETATM   25  C   UNL     1       7.947  21.984  54.377  1.00  0.00     0.017 A 
HETATM   26  N   UNL     1       7.627  20.686  54.710  1.00  0.00    -0.369 N 
HETATM   27  H   UNL     1       7.163  20.027  54.091  1.00  0.00     0.165 HD
HETATM   28  C   UNL     1       7.996  20.440  56.006  1.00  0.00     0.088 A 
HETATM   29  C   UNL     1       8.578  21.582  56.507  1.00  0.00     0.019 A 
HETATM   30  C   UNL     1       8.551  22.556  55.480  1.00  0.00     0.027 A 
ENDBRANCH  24  25
ENDBRANCH  21  24
ENDBRANCH   5  20
TORSDOF 6
ENDMDL
MODEL 9
REMARK VINA RESULT:      -7.9      2.522     10.096
REMARK  6 active torsions:
REMARK  status: ('A' for Active; 'I' for Inactive)
REMARK    1  A    between atoms: C_3  and  N_4 
REMARK       I    between atoms: N_4  and  C_5 
REMARK       I    between atoms: C_5  and  N_6 
REMARK    2  A    between atoms: N_6  and  C_7 
REMARK    3  A    between atoms: C_7  and  C_8 
REMARK    4  A    between atoms: C_16  and  N_17 
REMARK       I    between atoms: N_17  and  C_18 
REMARK    5  A    between atoms: C_18  and  C_19 
REMARK    6  A    between atoms: C_19  and  C_20 
ROOT
HETATM    1  C   UNL     1       4.591  29.983  55.082  1.00  0.00     0.004 A 
HETATM    2  C   UNL     1       4.888  30.271  56.414  1.00  0.00     0.029 A 
HETATM    3  C   UNL     1       5.946  29.627  57.054  1.00  0.00     0.038 A 
HETATM    4  C   UNL     1       6.710  28.693  56.336  1.00  0.00     0.059 A 
HETATM    5  C   UNL     1       6.424  28.398  54.999  1.00  0.00     0.036 A 
HETATM    6  C   UNL     1       5.355  29.052  54.378  1.00  0.00     0.029 A 
ENDROOT
BRANCH   3   7
HETATM    7  N   UNL     1       6.319  29.868  58.394  1.00  0.00    -0.309 N 
HETATM    8  C   UNL     1       6.994  30.960  58.892  1.00  0.00     0.320 C 
HETATM    9  N   UNL     1       7.262  30.807  60.236  1.00  0.00    -0.339 N 
HETATM   10  O   UNL     1       7.327  31.959  58.270  1.00  0.00    -0.247 OA
HETATM   11  H   UNL     1       7.275  29.872  60.614  1.00  0.00     0.164 HD
HETATM   12  H   UNL     1       5.951  29.228  59.081  1.00  0.00     0.170 HD
BRANCH   9  13
HETATM   13  C   UNL     1       7.975  31.824  60.978  1.00  0.00     0.163 C 
BRANCH  13  14
HETATM   14  C   UNL     1       7.277  32.258  62.244  1.00  0.00    -0.038 A 
HETATM   15  C   UNL     1       7.967  32.552  63.425  1.00  0.00     0.028 A 
HETATM   16  C   UNL     1       7.249  32.987  64.530  1.00  0.00     0.116 A 
HETATM   17  N   UNL     1       5.911  33.161  64.537  1.00  0.00    -0.273 NA
HETATM   18  C   UNL     1       5.264  32.903  63.382  1.00  0.00     0.116 A 
HETATM   19  C   UNL     1       5.892  32.459  62.229  1.00  0.00     0.028 A 
ENDBRANCH  13  14
ENDBRANCH   9  13
ENDBRANCH   3   7
BRANCH   5  20
HETATM   20  N   UNL     1       7.152  27.474  54.219  1.00  0.00    -0.327 N 
HETATM   21  C   UNL     1       6.868  26.134  54.014  1.00  0.00     0.227 C 
HETATM   22  O   UNL     1       5.925  25.507  54.498  1.00  0.00    -0.273 OA
HETATM   23  H   UNL     1       8.001  27.829  53.797  1.00  0.00     0.169 HD
BRANCH  21  24
HETATM   24  C   UNL     1       7.889  25.429  53.124  1.00  0.00     0.159 C 
BRANCH  24  25
HETATM   25  C   UNL     1       7.960  23.972  53.455  1.00  0.00     0.017 A 
HETATM   26  N   UNL     1       8.077  23.527  54.754  1.00  0.00    -0.369 N 
HETATM   27  H   UNL     1       8.149  24.130  55.569  1.00  0.00     0.165 HD
HETATM   28  C   UNL     1       8.117  22.158  54.769  1.00  0.00     0.088 A 
HETATM   29  C   UNL     1       8.004  21.715  53.471  1.00  0.00     0.019 A 
HETATM   30  C   UNL     1       7.901  22.858  52.641  1.00  0.00     0.027 A 
ENDBRANCH  24  25
ENDBRANCH  21  24
ENDBRANCH   5  20
TORSDOF 6
ENDMDL
MODEL 10
REMARK VINA RESULT:      -7.9      1.892     10.061
REMARK  6 active torsions:
REMARK  status: ('A' for Active; 'I' for Inactive)
REMARK    1  A    between atoms: C_3  and  N_4 
REMARK       I    between atoms: N_4  and  C_5 
REMARK       I    between atoms: C_5  and  N_6 
REMARK    2  A    between atoms: N_6  and  C_7 
REMARK    3  A    between atoms: C_7  and  C_8 
REMARK    4  A    between atoms: C_16  and  N_17 
REMARK       I    between atoms: N_17  and  C_18 
REMARK    5  A    between atoms: C_18  and  C_19 
REMARK    6  A    between atoms: C_19  and  C_20 
ROOT
HETATM    1  C   UNL     1      10.167  30.128  57.335  1.00  0.00     0.004 A 
HETATM    2  C   UNL     1       9.387  30.862  58.229  1.00  0.00     0.029 A 
HETATM    3  C   UNL     1       8.202  30.325  58.732  1.00  0.00     0.038 A 
HETATM    4  C   UNL     1       7.814  29.037  58.332  1.00  0.00     0.059 A 
HETATM    5  C   UNL     1       8.590  28.290  57.440  1.00  0.00     0.036 A 
HETATM    6  C   UNL     1       9.772  28.850  56.943  1.00  0.00     0.029 A 
ENDROOT
BRANCH   3   7
HETATM    7  N   UNL     1       7.361  30.995  59.646  1.00  0.00    -0.309 N 
HETATM    8  C   UNL     1       7.625  31.292  60.965  1.00  0.00     0.320 C 
HETATM    9  N   UNL     1       6.531  31.874  61.571  1.00  0.00    -0.339 N 
HETATM   10  O   UNL     1       8.673  31.093  61.563  1.00  0.00    -0.247 OA
HETATM   11  H   UNL     1       5.623  31.716  61.164  1.00  0.00     0.164 HD
HETATM   12  H   UNL     1       6.522  31.405  59.263  1.00  0.00     0.170 HD
BRANCH   9  13
HETATM   13  C   UNL     1       6.567  32.264  62.964  1.00  0.00     0.163 C 
BRANCH  13  14
HETATM   14  C   UNL     1       5.617  33.385  63.309  1.00  0.00    -0.038 A 
HETATM   15  C   UNL     1       6.025  34.544  63.977  1.00  0.00     0.028 A 
HETATM   16  C   UNL     1       5.093  35.544  64.214  1.00  0.00     0.116 A 
HETATM   17  N   UNL     1       3.802  35.478  63.825  1.00  0.00    -0.273 NA
HETATM   18  C   UNL     1       3.431  34.368  63.156  1.00  0.00     0.116 A 
HETATM   19  C   UNL     1       4.287  33.314  62.877  1.00  0.00     0.028 A 
ENDBRANCH  13  14
ENDBRANCH   9  13
ENDBRANCH   3   7
BRANCH   5  20
HETATM   20  N   UNL     1       8.260  26.991  57.000  1.00  0.00    -0.327 N 
HETATM   21  C   UNL     1       7.240  26.624  56.138  1.00  0.00     0.227 C 
HETATM   22  O   UNL     1       6.424  27.382  55.613  1.00  0.00    -0.273 OA
HETATM   23  H   UNL     1       8.813  26.240  57.396  1.00  0.00     0.169 HD
BRANCH  21  24
HETATM   24  C   UNL     1       7.163  25.118  55.897  1.00  0.00     0.159 C 
BRANCH  24  25
HETATM   25  C   UNL     1       7.462  24.797  54.467  1.00  0.00     0.017 A 
HETATM   26  N   UNL     1       7.625  25.784  53.519  1.00  0.00    -0.369 N 
HETATM   27  H   UNL     1       7.533  26.780  53.699  1.00  0.00     0.165 HD
HETATM   28  C   UNL     1       7.890  25.214  52.303  1.00  0.00     0.088 A 
HETATM   29  C   UNL     1       7.920  23.847  52.471  1.00  0.00     0.019 A 
HETATM   30  C   UNL     1       7.653  23.583  53.836  1.00  0.00     0.027 A 
ENDBRANCH  24  25
ENDBRANCH  21  24
ENDBRANCH   5  20
TORSDOF 6
ENDMDL
