MODEL 1
REMARK VINA RESULT:      -9.7      0.000      0.000
REMARK  5 active torsions:
REMARK  status: ('A' for Active; 'I' for Inactive)
REMARK    1  A    between atoms: C_3  and  N_4 
REMARK       I    between atoms: N_4  and  C_5 
REMARK    2  A    between atoms: C_5  and  C_6 
REMARK    3  A    between atoms: C_6  and  N_7 
REMARK       I    between atoms: N_7  and  C_8 
REMARK    4  A    between atoms: C_8  and  C_9 
REMARK    5  A    between atoms: C_13  and  C_14 
ROOT
HETATM    1  N   UNL     1       8.066  30.089  59.652  1.00  0.00    -0.347 N 
HETATM    2  C   UNL     1       8.501  29.760  58.394  1.00  0.00     0.270 C 
HETATM    3  O   UNL     1       9.395  30.396  57.844  1.00  0.00    -0.266 OA
HETATM    4  H   UNL     1       7.293  29.588  60.063  1.00  0.00     0.163 HD
ENDROOT
BRANCH   2   5
HETATM    5  C   UNL     1       7.818  28.677  57.747  1.00  0.00     0.120 A 
HETATM    6  N   UNL     1       6.452  28.578  57.777  1.00  0.00    -0.272 N 
HETATM    7  H   UNL     1       5.804  29.219  58.225  1.00  0.00     0.189 HD
HETATM    8  N   UNL     1       5.964  27.511  57.131  1.00  0.00    -0.173 NA
HETATM    9  C   UNL     1       7.052  26.887  56.670  1.00  0.00     0.093 A 
HETATM   10  C   UNL     1       8.235  27.583  57.012  1.00  0.00     0.071 A 
BRANCH   9  11
HETATM   11  C   UNL     1       6.985  25.647  55.897  1.00  0.00     0.044 A 
HETATM   12  C   UNL     1       7.656  24.459  56.132  1.00  0.00     0.041 A 
HETATM   13  C   UNL     1       8.592  24.060  57.216  1.00  0.00     0.071 C 
HETATM   14  N   UNL     1       7.300  23.630  55.100  1.00  0.00    -0.278 N 
HETATM   15  C   UNL     1       7.761  22.289  54.826  1.00  0.00     0.179 C 
HETATM   16  N   UNL     1       6.409  24.177  54.252  1.00  0.00    -0.177 NA
HETATM   17  C   UNL     1       6.236  25.423  54.712  1.00  0.00     0.065 A 
HETATM   18  C   UNL     1       5.357  26.351  53.956  1.00  0.00     0.073 C 
ENDBRANCH   9  11
ENDBRANCH   2   5
BRANCH   1  19
HETATM   19  C   UNL     1       8.765  31.059  60.487  1.00  0.00     0.226 C 
BRANCH  19  20
HETATM   20  C   UNL     1       8.224  31.196  61.920  1.00  0.00     0.239 C 
HETATM   21  N   UNL     1       7.498  32.356  62.126  1.00  0.00    -0.325 N 
HETATM   22  H   UNL     1       7.438  32.975  61.322  1.00  0.00     0.169 HD
HETATM   23  O   UNL     1       8.535  30.369  62.773  1.00  0.00    -0.271 OA
BRANCH  21  24
HETATM   24  C   UNL     1       6.896  32.819  63.318  1.00  0.00     0.040 A 
HETATM   25  C   UNL     1       5.485  32.799  63.417  1.00  0.00    -0.034 A 
HETATM   26  C   UNL     1       4.605  32.268  62.315  1.00  0.00     0.050 C 
HETATM   27  C   UNL     1       4.866  33.286  64.583  1.00  0.00     0.028 A 
HETATM   28  C   UNL     1       5.629  33.777  65.638  1.00  0.00     0.011 A 
HETATM   29  C   UNL     1       7.015  33.785  65.551  1.00  0.00     0.021 A 
HETATM   30 BR   UNL     1       4.779  34.432  67.193  1.00  0.00    -0.051 Br
HETATM   31  C   UNL     1       7.643  33.305  64.397  1.00  0.00     0.031 A 
ENDBRANCH  21  24
ENDBRANCH  19  20
ENDBRANCH   1  19
TORSDOF 5
ENDMDL
MODEL 2
REMARK VINA RESULT:      -9.7      1.875      2.577
REMARK  5 active torsions:
REMARK  status: ('A' for Active; 'I' for Inactive)
REMARK    1  A    between atoms: C_3  and  N_4 
REMARK       I    between atoms: N_4  and  C_5 
REMARK    2  A    between atoms: C_5  and  C_6 
REMARK    3  A    between atoms: C_6  and  N_7 
REMARK       I    between atoms: N_7  and  C_8 
REMARK    4  A    between atoms: C_8  and  C_9 
REMARK    5  A    between atoms: C_13  and  C_14 
ROOT
HETATM    1  N   UNL     1       7.969  28.893  57.650  1.00  0.00    -0.347 N 
HETATM    2  C   UNL     1       6.970  28.019  57.309  1.00  0.00     0.270 C 
HETATM    3  O   UNL     1       5.790  28.294  57.507  1.00  0.00    -0.266 OA
HETATM    4  H   UNL     1       8.935  28.625  57.529  1.00  0.00     0.163 HD
ENDROOT
BRANCH   2   5
HETATM    5  C   UNL     1       7.384  26.758  56.765  1.00  0.00     0.120 A 
HETATM    6  N   UNL     1       8.291  25.965  57.417  1.00  0.00    -0.272 N 
HETATM    7  H   UNL     1       8.742  26.159  58.306  1.00  0.00     0.189 HD
HETATM    8  N   UNL     1       8.580  24.822  56.783  1.00  0.00    -0.173 NA
HETATM    9  C   UNL     1       7.840  24.875  55.670  1.00  0.00     0.093 A 
HETATM   10  C   UNL     1       7.061  26.055  55.619  1.00  0.00     0.071 A 
BRANCH   9  11
HETATM   11  C   UNL     1       7.849  23.815  54.663  1.00  0.00     0.044 A 
HETATM   12  C   UNL     1       7.882  22.445  54.868  1.00  0.00     0.041 A 
HETATM   13  C   UNL     1       7.882  21.641  56.118  1.00  0.00     0.071 C 
HETATM   14  N   UNL     1       7.933  21.892  53.615  1.00  0.00    -0.278 N 
HETATM   15  C   UNL     1       8.040  20.497  53.254  1.00  0.00     0.179 C 
HETATM   16  N   UNL     1       7.880  22.799  52.622  1.00  0.00    -0.177 NA
HETATM   17  C   UNL     1       7.863  23.980  53.253  1.00  0.00     0.065 A 
HETATM   18  C   UNL     1       7.882  25.226  52.446  1.00  0.00     0.073 C 
ENDBRANCH   9  11
ENDBRANCH   2   5
BRANCH   1  19
HETATM   19  C   UNL     1       7.695  30.264  58.065  1.00  0.00     0.226 C 
BRANCH  19  20
HETATM   20  C   UNL     1       7.943  30.558  59.554  1.00  0.00     0.239 C 
HETATM   21  N   UNL     1       7.068  31.489  60.085  1.00  0.00    -0.325 N 
HETATM   22  H   UNL     1       6.398  31.875  59.425  1.00  0.00     0.169 HD
HETATM   23  O   UNL     1       8.908  30.056  60.124  1.00  0.00    -0.271 OA
BRANCH  21  24
HETATM   24  C   UNL     1       7.031  32.017  61.395  1.00  0.00     0.040 A 
HETATM   25  C   UNL     1       5.798  32.493  61.900  1.00  0.00    -0.034 A 
HETATM   26  C   UNL     1       4.519  32.420  61.109  1.00  0.00     0.050 C 
HETATM   27  C   UNL     1       5.749  33.052  63.191  1.00  0.00     0.028 A 
HETATM   28  C   UNL     1       6.898  33.133  63.972  1.00  0.00     0.011 A 
HETATM   29  C   UNL     1       8.107  32.655  63.486  1.00  0.00     0.021 A 
HETATM   30 BR   UNL     1       6.811  33.893  65.700  1.00  0.00    -0.051 Br
HETATM   31  C   UNL     1       8.170  32.097  62.205  1.00  0.00     0.031 A 
ENDBRANCH  21  24
ENDBRANCH  19  20
ENDBRANCH   1  19
TORSDOF 5
ENDMDL
MODEL 3
REMARK VINA RESULT:      -9.7      3.902      9.849
REMARK  5 active torsions:
REMARK  status: ('A' for Active; 'I' for Inactive)
REMARK    1  A    between atoms: C_3  and  N_4 
REMARK       I    between atoms: N_4  and  C_5 
REMARK    2  A    between atoms: C_5  and  C_6 
REMARK    3  A    between atoms: C_6  and  N_7 
REMARK       I    between atoms: N_7  and  C_8 
REMARK    4  A    between atoms: C_8  and  C_9 
REMARK    5  A    between atoms: C_13  and  C_14 
ROOT
HETATM    1  N   UNL     1       9.621  30.192  58.698  1.00  0.00    -0.347 N 
HETATM    2  C   UNL     1       9.448  31.437  59.244  1.00  0.00     0.270 C 
HETATM    3  O   UNL     1      10.066  32.409  58.819  1.00  0.00    -0.266 OA
HETATM    4  H   UNL     1       9.144  29.397  59.098  1.00  0.00     0.163 HD
ENDROOT
BRANCH   2   5
HETATM    5  C   UNL     1       8.556  31.525  60.363  1.00  0.00     0.120 A 
HETATM    6  N   UNL     1       8.562  30.579  61.354  1.00  0.00    -0.272 N 
HETATM    7  H   UNL     1       9.164  29.763  61.414  1.00  0.00     0.189 HD
HETATM    8  N   UNL     1       7.670  30.796  62.328  1.00  0.00    -0.173 NA
HETATM    9  C   UNL     1       7.051  31.920  61.954  1.00  0.00     0.093 A 
HETATM   10  C   UNL     1       7.578  32.427  60.743  1.00  0.00     0.071 A 
BRANCH   9  11
HETATM   11  C   UNL     1       5.978  32.531  62.738  1.00  0.00     0.044 A 
HETATM   12  C   UNL     1       6.065  33.118  63.989  1.00  0.00     0.041 A 
HETATM   13  C   UNL     1       7.227  33.342  64.888  1.00  0.00     0.071 C 
HETATM   14  N   UNL     1       4.783  33.485  64.308  1.00  0.00    -0.278 N 
HETATM   15  C   UNL     1       4.299  34.087  65.529  1.00  0.00     0.179 C 
HETATM   16  N   UNL     1       3.891  33.228  63.334  1.00  0.00    -0.177 NA
HETATM   17  C   UNL     1       4.606  32.614  62.383  1.00  0.00     0.065 A 
HETATM   18  C   UNL     1       3.909  32.113  61.171  1.00  0.00     0.073 C 
ENDBRANCH   9  11
ENDBRANCH   2   5
BRANCH   1  19
HETATM   19  C   UNL     1      10.372  29.980  57.466  1.00  0.00     0.226 C 
BRANCH  19  20
HETATM   20  C   UNL     1       9.561  29.392  56.299  1.00  0.00     0.239 C 
HETATM   21  N   UNL     1       8.619  28.460  56.697  1.00  0.00    -0.325 N 
HETATM   22  H   UNL     1       8.602  28.264  57.694  1.00  0.00     0.169 HD
HETATM   23  O   UNL     1       9.847  29.693  55.143  1.00  0.00    -0.271 OA
BRANCH  21  24
HETATM   24  C   UNL     1       7.737  27.701  55.895  1.00  0.00     0.040 A 
HETATM   25  C   UNL     1       7.578  26.324  56.177  1.00  0.00    -0.034 A 
HETATM   26  C   UNL     1       8.286  25.647  57.321  1.00  0.00     0.050 C 
HETATM   27  C   UNL     1       6.728  25.546  55.369  1.00  0.00     0.028 A 
HETATM   28  C   UNL     1       6.039  26.121  54.306  1.00  0.00     0.011 A 
HETATM   29  C   UNL     1       6.180  27.475  54.035  1.00  0.00     0.021 A 
HETATM   30 BR   UNL     1       4.908  25.057  53.230  1.00  0.00    -0.051 Br
HETATM   31  C   UNL     1       7.023  28.260  54.829  1.00  0.00     0.031 A 
ENDBRANCH  21  24
ENDBRANCH  19  20
ENDBRANCH   1  19
TORSDOF 5
ENDMDL
MODEL 4
REMARK VINA RESULT:      -9.6      3.024      4.408
REMARK  5 active torsions:
REMARK  status: ('A' for Active; 'I' for Inactive)
REMARK    1  A    between atoms: C_3  and  N_4 
REMARK       I    between atoms: N_4  and  C_5 
REMARK    2  A    between atoms: C_5  and  C_6 
REMARK    3  A    between atoms: C_6  and  N_7 
REMARK       I    between atoms: N_7  and  C_8 
REMARK    4  A    between atoms: C_8  and  C_9 
REMARK    5  A    between atoms: C_13  and  C_14 
ROOT
HETATM    1  N   UNL     1       9.648  29.563  56.203  1.00  0.00    -0.347 N 
HETATM    2  C   UNL     1       8.670  28.628  56.426  1.00  0.00     0.270 C 
HETATM    3  O   UNL     1       8.675  27.932  57.437  1.00  0.00    -0.266 OA
HETATM    4  H   UNL     1       9.655  30.087  55.340  1.00  0.00     0.163 HD
ENDROOT
BRANCH   2   5
HETATM    5  C   UNL     1       7.686  28.476  55.393  1.00  0.00     0.120 A 
HETATM    6  N   UNL     1       6.495  29.151  55.440  1.00  0.00    -0.272 N 
HETATM    7  H   UNL     1       6.191  29.801  56.159  1.00  0.00     0.189 HD
HETATM    8  N   UNL     1       5.680  28.902  54.408  1.00  0.00    -0.173 NA
HETATM    9  C   UNL     1       6.360  28.025  53.664  1.00  0.00     0.093 A 
HETATM   10  C   UNL     1       7.627  27.738  54.225  1.00  0.00     0.071 A 
BRANCH   9  11
HETATM   11  C   UNL     1       5.834  27.466  52.419  1.00  0.00     0.044 A 
HETATM   12  C   UNL     1       5.472  28.145  51.267  1.00  0.00     0.041 A 
HETATM   13  C   UNL     1       5.531  29.589  50.920  1.00  0.00     0.071 C 
HETATM   14  N   UNL     1       4.990  27.184  50.416  1.00  0.00    -0.278 N 
HETATM   15  C   UNL     1       4.424  27.355  49.098  1.00  0.00     0.179 C 
HETATM   16  N   UNL     1       5.066  25.936  50.914  1.00  0.00    -0.177 NA
HETATM   17  C   UNL     1       5.550  26.102  52.152  1.00  0.00     0.065 A 
HETATM   18  C   UNL     1       5.693  24.914  53.031  1.00  0.00     0.073 C 
ENDBRANCH   9  11
ENDBRANCH   2   5
BRANCH   1  19
HETATM   19  C   UNL     1      10.616  29.934  57.227  1.00  0.00     0.226 C 
BRANCH  19  20
HETATM   20  C   UNL     1      10.132  30.993  58.232  1.00  0.00     0.239 C 
HETATM   21  N   UNL     1       9.300  30.482  59.213  1.00  0.00    -0.325 N 
HETATM   22  H   UNL     1       9.095  29.490  59.129  1.00  0.00     0.169 HD
HETATM   23  O   UNL     1      10.414  32.176  58.058  1.00  0.00    -0.271 OA
BRANCH  21  24
HETATM   24  C   UNL     1       8.649  31.169  60.262  1.00  0.00     0.040 A 
HETATM   25  C   UNL     1       7.357  31.694  60.030  1.00  0.00    -0.034 A 
HETATM   26  C   UNL     1       6.636  31.515  58.720  1.00  0.00     0.050 C 
HETATM   27  C   UNL     1       6.707  32.409  61.053  1.00  0.00     0.028 A 
HETATM   28  C   UNL     1       7.320  32.594  62.289  1.00  0.00     0.011 A 
HETATM   29  C   UNL     1       8.583  32.068  62.526  1.00  0.00     0.021 A 
HETATM   30 BR   UNL     1       6.433  33.563  63.647  1.00  0.00    -0.051 Br
HETATM   31  C   UNL     1       9.241  31.356  61.517  1.00  0.00     0.031 A 
ENDBRANCH  21  24
ENDBRANCH  19  20
ENDBRANCH   1  19
TORSDOF 5
ENDMDL
MODEL 5
REMARK VINA RESULT:      -9.5      4.351     10.530
REMARK  5 active torsions:
REMARK  status: ('A' for Active; 'I' for Inactive)
REMARK    1  A    between atoms: C_3  and  N_4 
REMARK       I    between atoms: N_4  and  C_5 
REMARK    2  A    between atoms: C_5  and  C_6 
REMARK    3  A    between atoms: C_6  and  N_7 
REMARK       I    between atoms: N_7  and  C_8 
REMARK    4  A    between atoms: C_8  and  C_9 
REMARK    5  A    between atoms: C_13  and  C_14 
ROOT
HETATM    1  N   UNL     1       6.496  28.835  55.762  1.00  0.00    -0.347 N 
HETATM    2  C   UNL     1       7.790  29.216  56.005  1.00  0.00     0.270 C 
HETATM    3  O   UNL     1       8.688  28.960  55.208  1.00  0.00    -0.266 OA
HETATM    4  H   UNL     1       5.783  29.008  56.456  1.00  0.00     0.163 HD
ENDROOT
BRANCH   2   5
HETATM    5  C   UNL     1       8.038  29.873  57.256  1.00  0.00     0.120 A 
HETATM    6  N   UNL     1       9.286  30.335  57.581  1.00  0.00    -0.272 N 
HETATM    7  H   UNL     1      10.125  30.278  57.012  1.00  0.00     0.189 HD
HETATM    8  N   UNL     1       9.359  30.922  58.783  1.00  0.00    -0.173 NA
HETATM    9  C   UNL     1       8.115  30.831  59.263  1.00  0.00     0.093 A 
HETATM   10  C   UNL     1       7.246  30.200  58.341  1.00  0.00     0.071 A 
BRANCH   9  11
HETATM   11  C   UNL     1       7.733  31.348  60.577  1.00  0.00     0.044 A 
HETATM   12  C   UNL     1       6.711  32.232  60.880  1.00  0.00     0.041 A 
HETATM   13  C   UNL     1       5.692  32.885  60.018  1.00  0.00     0.071 C 
HETATM   14  N   UNL     1       6.802  32.442  62.232  1.00  0.00    -0.278 N 
HETATM   15  C   UNL     1       6.012  33.325  63.058  1.00  0.00     0.179 C 
HETATM   16  N   UNL     1       7.770  31.719  62.826  1.00  0.00    -0.177 NA
HETATM   17  C   UNL     1       8.366  31.071  61.817  1.00  0.00     0.065 A 
HETATM   18  C   UNL     1       9.550  30.224  62.108  1.00  0.00     0.073 C 
ENDBRANCH   9  11
ENDBRANCH   2   5
BRANCH   1  19
HETATM   19  C   UNL     1       6.071  28.302  54.474  1.00  0.00     0.226 C 
BRANCH  19  20
HETATM   20  C   UNL     1       6.014  26.768  54.388  1.00  0.00     0.239 C 
HETATM   21  N   UNL     1       7.245  26.161  54.565  1.00  0.00    -0.325 N 
HETATM   22  H   UNL     1       8.024  26.798  54.700  1.00  0.00     0.169 HD
HETATM   23  O   UNL     1       4.962  26.210  54.086  1.00  0.00    -0.271 OA
BRANCH  21  24
HETATM   24  C   UNL     1       7.565  24.785  54.512  1.00  0.00     0.040 A 
HETATM   25  C   UNL     1       7.844  24.201  53.254  1.00  0.00    -0.034 A 
HETATM   26  C   UNL     1       7.851  25.000  51.977  1.00  0.00     0.050 C 
HETATM   27  C   UNL     1       8.133  22.826  53.178  1.00  0.00     0.028 A 
HETATM   28  C   UNL     1       8.153  22.042  54.327  1.00  0.00     0.011 A 
HETATM   29  C   UNL     1       7.893  22.613  55.566  1.00  0.00     0.021 A 
HETATM   30 BR   UNL     1       8.537  20.196  54.202  1.00  0.00    -0.051 Br
HETATM   31  C   UNL     1       7.604  23.978  55.655  1.00  0.00     0.031 A 
ENDBRANCH  21  24
ENDBRANCH  19  20
ENDBRANCH   1  19
TORSDOF 5
ENDMDL
MODEL 6
REMARK VINA RESULT:      -9.4      4.448     10.305
REMARK  5 active torsions:
REMARK  status: ('A' for Active; 'I' for Inactive)
REMARK    1  A    between atoms: C_3  and  N_4 
REMARK       I    between atoms: N_4  and  C_5 
REMARK    2  A    between atoms: C_5  and  C_6 
REMARK    3  A    between atoms: C_6  and  N_7 
REMARK       I    between atoms: N_7  and  C_8 
REMARK    4  A    between atoms: C_8  and  C_9 
REMARK    5  A    between atoms: C_13  and  C_14 
ROOT
HETATM    1  N   UNL     1       6.628  29.276  55.045  1.00  0.00    -0.347 N 
HETATM    2  C   UNL     1       5.606  29.812  55.784  1.00  0.00     0.270 C 
HETATM    3  O   UNL     1       4.433  29.647  55.461  1.00  0.00    -0.266 OA
HETATM    4  H   UNL     1       7.586  29.469  55.298  1.00  0.00     0.163 HD
ENDROOT
BRANCH   2   5
HETATM    5  C   UNL     1       5.986  30.612  56.912  1.00  0.00     0.120 A 
HETATM    6  N   UNL     1       5.540  31.900  57.053  1.00  0.00    -0.272 N 
HETATM    7  H   UNL     1       4.924  32.405  56.423  1.00  0.00     0.189 HD
HETATM    8  N   UNL     1       5.984  32.518  58.155  1.00  0.00    -0.173 NA
HETATM    9  C   UNL     1       6.755  31.603  58.750  1.00  0.00     0.093 A 
HETATM   10  C   UNL     1       6.776  30.389  58.025  1.00  0.00     0.071 A 
BRANCH   9  11
HETATM   11  C   UNL     1       7.459  31.858  60.007  1.00  0.00     0.044 A 
HETATM   12  C   UNL     1       6.912  32.120  61.252  1.00  0.00     0.041 A 
HETATM   13  C   UNL     1       5.499  32.190  61.706  1.00  0.00     0.071 C 
HETATM   14  N   UNL     1       7.982  32.341  62.079  1.00  0.00    -0.278 N 
HETATM   15  C   UNL     1       7.976  32.714  63.475  1.00  0.00     0.179 C 
HETATM   16  N   UNL     1       9.174  32.186  61.472  1.00  0.00    -0.177 NA
HETATM   17  C   UNL     1       8.864  31.923  60.196  1.00  0.00     0.065 A 
HETATM   18  C   UNL     1       9.962  31.768  59.209  1.00  0.00     0.073 C 
ENDBRANCH   9  11
ENDBRANCH   2   5
BRANCH   1  19
HETATM   19  C   UNL     1       6.392  28.320  53.970  1.00  0.00     0.226 C 
BRANCH  19  20
HETATM   20  C   UNL     1       6.268  26.853  54.416  1.00  0.00     0.239 C 
HETATM   21  N   UNL     1       7.480  26.187  54.463  1.00  0.00    -0.325 N 
HETATM   22  H   UNL     1       8.284  26.736  54.175  1.00  0.00     0.169 HD
HETATM   23  O   UNL     1       5.157  26.361  54.597  1.00  0.00    -0.271 OA
BRANCH  21  24
HETATM   24  C   UNL     1       7.730  24.835  54.790  1.00  0.00     0.040 A 
HETATM   25  C   UNL     1       7.842  23.893  53.741  1.00  0.00    -0.034 A 
HETATM   26  C   UNL     1       7.742  24.285  52.290  1.00  0.00     0.050 C 
HETATM   27  C   UNL     1       8.059  22.537  54.048  1.00  0.00     0.028 A 
HETATM   28  C   UNL     1       8.172  22.120  55.371  1.00  0.00     0.011 A 
HETATM   29  C   UNL     1       8.078  23.043  56.404  1.00  0.00     0.021 A 
HETATM   30 BR   UNL     1       8.457  20.293  55.763  1.00  0.00    -0.051 Br
HETATM   31  C   UNL     1       7.861  24.393  56.112  1.00  0.00     0.031 A 
ENDBRANCH  21  24
ENDBRANCH  19  20
ENDBRANCH   1  19
TORSDOF 5
ENDMDL
MODEL 7
REMARK VINA RESULT:      -9.3      6.023     12.326
REMARK  5 active torsions:
REMARK  status: ('A' for Active; 'I' for Inactive)
REMARK    1  A    between atoms: C_3  and  N_4 
REMARK       I    between atoms: N_4  and  C_5 
REMARK    2  A    between atoms: C_5  and  C_6 
REMARK    3  A    between atoms: C_6  and  N_7 
REMARK       I    between atoms: N_7  and  C_8 
REMARK    4  A    between atoms: C_8  and  C_9 
REMARK    5  A    between atoms: C_13  and  C_14 
ROOT
HETATM    1  N   UNL     1       4.380  33.648  64.955  1.00  0.00    -0.347 N 
HETATM    2  C   UNL     1       5.524  34.203  65.466  1.00  0.00     0.270 C 
HETATM    3  O   UNL     1       6.365  34.713  64.732  1.00  0.00    -0.266 OA
HETATM    4  H   UNL     1       3.727  33.186  65.572  1.00  0.00     0.163 HD
ENDROOT
BRANCH   2   5
HETATM    5  C   UNL     1       5.702  34.106  66.886  1.00  0.00     0.120 A 
HETATM    6  N   UNL     1       4.645  33.849  67.720  1.00  0.00    -0.272 N 
HETATM    7  H   UNL     1       3.677  33.700  67.449  1.00  0.00     0.189 HD
HETATM    8  N   UNL     1       4.970  33.791  69.017  1.00  0.00    -0.173 NA
HETATM    9  C   UNL     1       6.285  34.029  69.032  1.00  0.00     0.093 A 
HETATM   10  C   UNL     1       6.795  34.214  67.726  1.00  0.00     0.071 A 
BRANCH   9  11
HETATM   11  C   UNL     1       7.069  34.066  70.266  1.00  0.00     0.044 A 
HETATM   12  C   UNL     1       7.265  33.045  71.182  1.00  0.00     0.041 A 
HETATM   13  C   UNL     1       6.797  31.635  71.192  1.00  0.00     0.071 C 
HETATM   14  N   UNL     1       8.021  33.596  72.183  1.00  0.00    -0.278 N 
HETATM   15  C   UNL     1       8.463  32.983  73.415  1.00  0.00     0.179 C 
HETATM   16  N   UNL     1       8.371  34.875  71.953  1.00  0.00    -0.177 NA
HETATM   17  C   UNL     1       7.765  35.182  70.799  1.00  0.00     0.065 A 
HETATM   18  C   UNL     1       7.876  36.567  70.276  1.00  0.00     0.073 C 
ENDBRANCH   9  11
ENDBRANCH   2   5
BRANCH   1  19
HETATM   19  C   UNL     1       3.992  33.809  63.559  1.00  0.00     0.226 C 
BRANCH  19  20
HETATM   20  C   UNL     1       4.554  32.748  62.598  1.00  0.00     0.239 C 
HETATM   21  N   UNL     1       5.760  33.109  62.024  1.00  0.00    -0.325 N 
HETATM   22  H   UNL     1       6.104  34.028  62.285  1.00  0.00     0.169 HD
HETATM   23  O   UNL     1       3.891  31.748  62.336  1.00  0.00    -0.271 OA
BRANCH  21  24
HETATM   24  C   UNL     1       6.532  32.399  61.076  1.00  0.00     0.040 A 
HETATM   25  C   UNL     1       7.767  31.844  61.485  1.00  0.00    -0.034 A 
HETATM   26  C   UNL     1       8.269  31.949  62.901  1.00  0.00     0.050 C 
HETATM   27  C   UNL     1       8.564  31.162  60.547  1.00  0.00     0.028 A 
HETATM   28  C   UNL     1       8.144  31.023  59.228  1.00  0.00     0.011 A 
HETATM   29  C   UNL     1       6.926  31.554  58.825  1.00  0.00     0.021 A 
HETATM   30 BR   UNL     1       9.232  30.110  57.983  1.00  0.00    -0.051 Br
HETATM   31  C   UNL     1       6.125  32.235  59.747  1.00  0.00     0.031 A 
ENDBRANCH  21  24
ENDBRANCH  19  20
ENDBRANCH   1  19
TORSDOF 5
ENDMDL
MODEL 8
REMARK VINA RESULT:      -9.3      3.827     10.423
REMARK  5 active torsions:
REMARK  status: ('A' for Active; 'I' for Inactive)
REMARK    1  A    between atoms: C_3  and  N_4 
REMARK       I    between atoms: N_4  and  C_5 
REMARK    2  A    between atoms: C_5  and  C_6 
REMARK    3  A    between atoms: C_6  and  N_7 
REMARK       I    between atoms: N_7  and  C_8 
REMARK    4  A    between atoms: C_8  and  C_9 
REMARK    5  A    between atoms: C_13  and  C_14 
ROOT
HETATM    1  N   UNL     1       7.146  30.180  58.500  1.00  0.00    -0.347 N 
HETATM    2  C   UNL     1       7.763  31.217  59.150  1.00  0.00     0.270 C 
HETATM    3  O   UNL     1       8.719  31.803  58.649  1.00  0.00    -0.266 OA
HETATM    4  H   UNL     1       6.397  29.678  58.954  1.00  0.00     0.163 HD
ENDROOT
BRANCH   2   5
HETATM    5  C   UNL     1       7.266  31.537  60.457  1.00  0.00     0.120 A 
HETATM    6  N   UNL     1       7.689  30.852  61.566  1.00  0.00    -0.272 N 
HETATM    7  H   UNL     1       8.364  30.094  61.594  1.00  0.00     0.189 HD
HETATM    8  N   UNL     1       7.132  31.264  62.712  1.00  0.00    -0.173 NA
HETATM    9  C   UNL     1       6.308  32.246  62.336  1.00  0.00     0.093 A 
HETATM   10  C   UNL     1       6.367  32.470  60.940  1.00  0.00     0.071 A 
BRANCH   9  11
HETATM   11  C   UNL     1       5.477  32.989  63.284  1.00  0.00     0.044 A 
HETATM   12  C   UNL     1       5.843  33.501  64.518  1.00  0.00     0.041 A 
HETATM   13  C   UNL     1       7.145  33.496  65.234  1.00  0.00     0.071 C 
HETATM   14  N   UNL     1       4.701  34.055  65.034  1.00  0.00    -0.278 N 
HETATM   15  C   UNL     1       4.508  34.675  66.324  1.00  0.00     0.179 C 
HETATM   16  N   UNL     1       3.645  33.987  64.202  1.00  0.00    -0.177 NA
HETATM   17  C   UNL     1       4.101  33.306  63.142  1.00  0.00     0.065 A 
HETATM   18  C   UNL     1       3.161  32.976  62.042  1.00  0.00     0.073 C 
ENDBRANCH   9  11
ENDBRANCH   2   5
BRANCH   1  19
HETATM   19  C   UNL     1       7.440  29.848  57.111  1.00  0.00     0.226 C 
BRANCH  19  20
HETATM   20  C   UNL     1       8.212  28.535  56.902  1.00  0.00     0.239 C 
HETATM   21  N   UNL     1       7.394  27.454  56.625  1.00  0.00    -0.325 N 
HETATM   22  H   UNL     1       6.399  27.656  56.621  1.00  0.00     0.169 HD
HETATM   23  O   UNL     1       9.427  28.504  57.082  1.00  0.00    -0.271 OA
BRANCH  21  24
HETATM   24  C   UNL     1       7.758  26.104  56.417  1.00  0.00     0.040 A 
HETATM   25  C   UNL     1       7.589  25.546  55.128  1.00  0.00    -0.034 A 
HETATM   26  C   UNL     1       7.073  26.348  53.963  1.00  0.00     0.050 C 
HETATM   27  C   UNL     1       7.916  24.195  54.910  1.00  0.00     0.028 A 
HETATM   28  C   UNL     1       8.410  23.409  55.948  1.00  0.00     0.011 A 
HETATM   29  C   UNL     1       8.590  23.956  57.211  1.00  0.00     0.021 A 
HETATM   30 BR   UNL     1       8.836  21.595  55.636  1.00  0.00    -0.051 Br
HETATM   31  C   UNL     1       8.269  25.297  57.441  1.00  0.00     0.031 A 
ENDBRANCH  21  24
ENDBRANCH  19  20
ENDBRANCH   1  19
TORSDOF 5
ENDMDL
MODEL 9
REMARK VINA RESULT:      -9.3      2.201      3.240
REMARK  5 active torsions:
REMARK  status: ('A' for Active; 'I' for Inactive)
REMARK    1  A    between atoms: C_3  and  N_4 
REMARK       I    between atoms: N_4  and  C_5 
REMARK    2  A    between atoms: C_5  and  C_6 
REMARK    3  A    between atoms: C_6  and  N_7 
REMARK       I    between atoms: N_7  and  C_8 
REMARK    4  A    between atoms: C_8  and  C_9 
REMARK    5  A    between atoms: C_13  and  C_14 
ROOT
HETATM    1  N   UNL     1       6.377  29.905  57.343  1.00  0.00    -0.347 N 
HETATM    2  C   UNL     1       5.348  29.186  56.793  1.00  0.00     0.270 C 
HETATM    3  O   UNL     1       4.247  29.695  56.603  1.00  0.00    -0.266 OA
HETATM    4  H   UNL     1       7.257  29.452  57.540  1.00  0.00     0.163 HD
ENDROOT
BRANCH   2   5
HETATM    5  C   UNL     1       5.615  27.806  56.509  1.00  0.00     0.120 A 
HETATM    6  N   UNL     1       4.753  26.817  56.907  1.00  0.00    -0.272 N 
HETATM    7  H   UNL     1       3.879  26.937  57.410  1.00  0.00     0.189 HD
HETATM    8  N   UNL     1       5.142  25.581  56.571  1.00  0.00    -0.173 NA
HETATM    9  C   UNL     1       6.304  25.768  55.939  1.00  0.00     0.093 A 
HETATM   10  C   UNL     1       6.637  27.140  55.857  1.00  0.00     0.071 A 
BRANCH   9  11
HETATM   11  C   UNL     1       7.097  24.665  55.397  1.00  0.00     0.044 A 
HETATM   12  C   UNL     1       6.933  24.013  54.185  1.00  0.00     0.041 A 
HETATM   13  C   UNL     1       5.968  24.234  53.077  1.00  0.00     0.071 C 
HETATM   14  N   UNL     1       7.884  23.027  54.172  1.00  0.00    -0.278 N 
HETATM   15  C   UNL     1       8.115  22.016  53.166  1.00  0.00     0.179 C 
HETATM   16  N   UNL     1       8.680  23.031  55.258  1.00  0.00    -0.177 NA
HETATM   17  C   UNL     1       8.185  24.008  56.028  1.00  0.00     0.065 A 
HETATM   18  C   UNL     1       8.788  24.243  57.364  1.00  0.00     0.073 C 
ENDBRANCH   9  11
ENDBRANCH   2   5
BRANCH   1  19
HETATM   19  C   UNL     1       6.300  31.348  57.538  1.00  0.00     0.226 C 
BRANCH  19  20
HETATM   20  C   UNL     1       5.899  31.796  58.953  1.00  0.00     0.239 C 
HETATM   21  N   UNL     1       6.975  32.165  59.740  1.00  0.00    -0.325 N 
HETATM   22  H   UNL     1       7.885  32.069  59.298  1.00  0.00     0.169 HD
HETATM   23  O   UNL     1       4.728  31.710  59.313  1.00  0.00    -0.271 OA
BRANCH  21  24
HETATM   24  C   UNL     1       6.977  32.588  61.088  1.00  0.00     0.040 A 
HETATM   25  C   UNL     1       7.945  32.048  61.967  1.00  0.00    -0.034 A 
HETATM   26  C   UNL     1       8.995  31.070  61.509  1.00  0.00     0.050 C 
HETATM   27  C   UNL     1       7.942  32.432  63.321  1.00  0.00     0.028 A 
HETATM   28  C   UNL     1       7.004  33.343  63.797  1.00  0.00     0.011 A 
HETATM   29  C   UNL     1       6.061  33.887  62.935  1.00  0.00     0.021 A 
HETATM   30 BR   UNL     1       7.013  33.841  65.619  1.00  0.00    -0.051 Br
HETATM   31  C   UNL     1       6.052  33.512  61.587  1.00  0.00     0.031 A 
ENDBRANCH  21  24
ENDBRANCH  19  20
ENDBRANCH   1  19
TORSDOF 5
ENDMDL
MODEL 10
REMARK VINA RESULT:      -9.1      4.596     10.456
REMARK  5 active torsions:
REMARK  status: ('A' for Active; 'I' for Inactive)
REMARK    1  A    between atoms: C_3  and  N_4 
REMARK       I    between atoms: N_4  and  C_5 
REMARK    2  A    between atoms: C_5  and  C_6 
REMARK    3  A    between atoms: C_6  and  N_7 
REMARK       I    between atoms: N_7  and  C_8 
REMARK    4  A    between atoms: C_8  and  C_9 
REMARK    5  A    between atoms: C_13  and  C_14 
ROOT
HETATM    1  N   UNL     1       6.005  29.215  54.446  1.00  0.00    -0.347 N 
HETATM    2  C   UNL     1       5.204  29.286  55.556  1.00  0.00     0.270 C 
HETATM    3  O   UNL     1       4.191  28.599  55.653  1.00  0.00    -0.266 OA
HETATM    4  H   UNL     1       6.803  29.828  54.362  1.00  0.00     0.163 HD
ENDROOT
BRANCH   2   5
HETATM    5  C   UNL     1       5.585  30.239  56.558  1.00  0.00     0.120 A 
HETATM    6  N   UNL     1       5.283  31.568  56.427  1.00  0.00    -0.272 N 
HETATM    7  H   UNL     1       4.782  32.007  55.660  1.00  0.00     0.189 HD
HETATM    8  N   UNL     1       5.708  32.332  57.441  1.00  0.00    -0.173 NA
HETATM    9  C   UNL     1       6.318  31.470  58.260  1.00  0.00     0.093 A 
HETATM   10  C   UNL     1       6.254  30.146  57.765  1.00  0.00     0.071 A 
BRANCH   9  11
HETATM   11  C   UNL     1       6.947  31.880  59.516  1.00  0.00     0.044 A 
HETATM   12  C   UNL     1       6.327  32.308  60.679  1.00  0.00     0.041 A 
HETATM   13  C   UNL     1       4.890  32.449  61.028  1.00  0.00     0.071 C 
HETATM   14  N   UNL     1       7.347  32.626  61.537  1.00  0.00    -0.278 N 
HETATM   15  C   UNL     1       7.259  33.178  62.869  1.00  0.00     0.179 C 
HETATM   16  N   UNL     1       8.571  32.382  61.033  1.00  0.00    -0.177 NA
HETATM   17  C   UNL     1       8.338  31.958  59.785  1.00  0.00     0.065 A 
HETATM   18  C   UNL     1       9.493  31.666  58.899  1.00  0.00     0.073 C 
ENDBRANCH   9  11
ENDBRANCH   2   5
BRANCH   1  19
HETATM   19  C   UNL     1       5.831  28.190  53.425  1.00  0.00     0.226 C 
BRANCH  19  20
HETATM   20  C   UNL     1       6.787  26.990  53.532  1.00  0.00     0.239 C 
HETATM   21  N   UNL     1       6.145  25.799  53.822  1.00  0.00    -0.325 N 
HETATM   22  H   UNL     1       5.140  25.872  53.952  1.00  0.00     0.169 HD
HETATM   23  O   UNL     1       8.000  27.166  53.459  1.00  0.00    -0.271 OA
BRANCH  21  24
HETATM   24  C   UNL     1       6.712  24.520  54.028  1.00  0.00     0.040 A 
HETATM   25  C   UNL     1       6.841  24.041  55.352  1.00  0.00    -0.034 A 
HETATM   26  C   UNL     1       6.364  24.826  56.546  1.00  0.00     0.050 C 
HETATM   27  C   UNL     1       7.432  22.784  55.579  1.00  0.00     0.028 A 
HETATM   28  C   UNL     1       7.880  22.009  54.513  1.00  0.00     0.011 A 
HETATM   29  C   UNL     1       7.742  22.469  53.210  1.00  0.00     0.021 A 
HETATM   30 BR   UNL     1       8.676  20.327  54.838  1.00  0.00    -0.051 Br
HETATM   31  C   UNL     1       7.158  23.718  52.971  1.00  0.00     0.031 A 
ENDBRANCH  21  24
ENDBRANCH  19  20
ENDBRANCH   1  19
TORSDOF 5
ENDMDL
