MODEL 1
REMARK VINA RESULT:      -9.7      0.000      0.000
REMARK  7 active torsions:
REMARK  status: ('A' for Active; 'I' for Inactive)
REMARK       I    between atoms: C_2  and  N_3 
REMARK    1  A    between atoms: N_3  and  C_4 
REMARK    2  A    between atoms: C_6  and  N_7 
REMARK       I    between atoms: N_7  and  C_8 
REMARK    3  A    between atoms: C_8  and  C_9 
REMARK       I    between atoms: C_9  and  N_10 
REMARK    4  A    between atoms: N_10  and  C_11 
REMARK    5  A    between atoms: C_11  and  C_12 
REMARK    6  A    between atoms: C_12  and  O_13 
REMARK    7  A    between atoms: C_12  and  C_14 
ROOT
HETATM    1  C   UNL     1       8.463  30.159  58.475  1.00  0.00     0.309 C 
HETATM    2  N   UNL     1       7.350  29.353  58.365  1.00  0.00    -0.350 N 
HETATM    3  O   UNL     1       9.513  30.031  57.861  1.00  0.00    -0.262 OA
HETATM    4  H   UNL     1       6.648  29.489  59.092  1.00  0.00     0.163 HD
ENDROOT
BRANCH   1   5
HETATM    5  C   UNL     1       8.318  31.296  59.510  1.00  0.00     0.313 C 
HETATM    6  N   UNL     1       7.615  30.885  60.622  1.00  0.00    -0.319 N 
HETATM    7  H   UNL     1       7.301  29.917  60.584  1.00  0.00     0.169 HD
HETATM    8  O   UNL     1       8.796  32.391  59.250  1.00  0.00    -0.262 OA
BRANCH   6   9
HETATM    9  C   UNL     1       7.273  31.637  61.759  1.00  0.00     0.037 A 
HETATM   10  C   UNL     1       5.962  31.985  62.094  1.00  0.00     0.059 A 
HETATM   11  C   UNL     1       5.686  32.738  63.248  1.00  0.00     0.036 A 
HETATM   12  C   UNL     1       6.742  33.135  64.066  1.00  0.00     0.029 A 
HETATM   13  C   UNL     1       8.056  32.794  63.737  1.00  0.00     0.004 A 
HETATM   14  C   UNL     1       8.320  32.050  62.587  1.00  0.00     0.029 A 
BRANCH  11  15
HETATM   15  N   UNL     1       4.333  33.047  63.504  1.00  0.00    -0.327 N 
HETATM   16  C   UNL     1       3.577  34.056  62.935  1.00  0.00     0.218 C 
HETATM   17  C   UNL     1       2.161  34.060  63.454  1.00  0.00     0.117 C 
HETATM   18  O   UNL     1       3.938  34.868  62.092  1.00  0.00    -0.274 OA
HETATM   19  H   UNL     1       3.865  32.453  64.177  1.00  0.00     0.169 HD
ENDBRANCH  11  15
ENDBRANCH   6   9
ENDBRANCH   1   5
BRANCH   2  20
HETATM   20  C   UNL     1       7.408  28.094  57.634  1.00  0.00     0.159 C 
BRANCH  20  21
HETATM   21  C   UNL     1       6.007  27.499  57.390  1.00  0.00     0.171 C 
BRANCH  21  22
HETATM   22  O   UNL     1       5.019  28.521  57.588  1.00  0.00    -0.389 OA
HETATM   23  H   UNL     1       5.492  29.370  57.552  1.00  0.00     0.210 HD
ENDBRANCH  21  22
BRANCH  21  24
HETATM   24  C   UNL     1       5.901  26.901  56.020  1.00  0.00     0.000 A 
HETATM   25  C   UNL     1       6.404  25.625  55.602  1.00  0.00     0.001 A 
HETATM   26  C   UNL     1       6.111  25.477  54.241  1.00  0.00     0.044 A 
HETATM   27  C   UNL     1       7.090  24.583  56.262  1.00  0.00     0.014 A 
HETATM   28  C   UNL     1       6.474  24.324  53.525  1.00  0.00     0.030 A 
HETATM   29  N   UNL     1       5.453  26.622  53.848  1.00  0.00    -0.360 N 
HETATM   30  C   UNL     1       7.154  23.309  54.204  1.00  0.00     0.002 A 
HETATM   31  C   UNL     1       7.459  23.434  55.554  1.00  0.00     0.001 A 
HETATM   32  C   UNL     1       4.955  26.911  52.521  1.00  0.00     0.155 C 
HETATM   33  C   UNL     1       5.323  27.479  54.906  1.00  0.00     0.101 A 
ENDBRANCH  21  24
ENDBRANCH  20  21
ENDBRANCH   2  20
TORSDOF 7
ENDMDL
MODEL 2
REMARK VINA RESULT:      -9.7      1.848      2.538
REMARK  7 active torsions:
REMARK  status: ('A' for Active; 'I' for Inactive)
REMARK       I    between atoms: C_2  and  N_3 
REMARK    1  A    between atoms: N_3  and  C_4 
REMARK    2  A    between atoms: C_6  and  N_7 
REMARK       I    between atoms: N_7  and  C_8 
REMARK    3  A    between atoms: C_8  and  C_9 
REMARK       I    between atoms: C_9  and  N_10 
REMARK    4  A    between atoms: N_10  and  C_11 
REMARK    5  A    between atoms: C_11  and  C_12 
REMARK    6  A    between atoms: C_12  and  O_13 
REMARK    7  A    between atoms: C_12  and  C_14 
ROOT
HETATM    1  C   UNL     1       9.602  29.980  57.718  1.00  0.00     0.309 C 
HETATM    2  N   UNL     1       8.580  29.056  57.655  1.00  0.00    -0.350 N 
HETATM    3  O   UNL     1      10.642  29.954  57.075  1.00  0.00    -0.262 OA
HETATM    4  H   UNL     1       7.889  29.130  58.400  1.00  0.00     0.163 HD
ENDROOT
BRANCH   1   5
HETATM    5  C   UNL     1       9.363  31.115  58.736  1.00  0.00     0.313 C 
HETATM    6  N   UNL     1       8.420  30.764  59.677  1.00  0.00    -0.319 N 
HETATM    7  H   UNL     1       8.030  29.832  59.552  1.00  0.00     0.169 HD
HETATM    8  O   UNL     1       9.983  32.161  58.606  1.00  0.00    -0.262 OA
BRANCH   6   9
HETATM    9  C   UNL     1       7.933  31.534  60.747  1.00  0.00     0.037 A 
HETATM   10  C   UNL     1       6.740  32.262  60.700  1.00  0.00     0.059 A 
HETATM   11  C   UNL     1       6.306  33.011  61.807  1.00  0.00     0.036 A 
HETATM   12  C   UNL     1       7.082  33.021  62.965  1.00  0.00     0.029 A 
HETATM   13  C   UNL     1       8.276  32.299  63.019  1.00  0.00     0.004 A 
HETATM   14  C   UNL     1       8.700  31.561  61.914  1.00  0.00     0.029 A 
BRANCH  11  15
HETATM   15  N   UNL     1       5.092  33.719  61.666  1.00  0.00    -0.327 N 
HETATM   16  C   UNL     1       3.826  33.301  62.035  1.00  0.00     0.218 C 
HETATM   17  C   UNL     1       2.780  34.345  61.736  1.00  0.00     0.117 C 
HETATM   18  O   UNL     1       3.521  32.239  62.564  1.00  0.00    -0.274 OA
HETATM   19  H   UNL     1       5.165  34.641  61.254  1.00  0.00     0.169 HD
ENDBRANCH  11  15
ENDBRANCH   6   9
ENDBRANCH   1   5
BRANCH   2  20
HETATM   20  C   UNL     1       8.755  27.796  56.944  1.00  0.00     0.159 C 
BRANCH  20  21
HETATM   21  C   UNL     1       7.598  26.813  57.211  1.00  0.00     0.171 C 
BRANCH  21  22
HETATM   22  O   UNL     1       6.361  27.419  56.808  1.00  0.00    -0.389 OA
HETATM   23  H   UNL     1       6.059  26.930  56.023  1.00  0.00     0.210 HD
ENDBRANCH  21  22
BRANCH  21  24
HETATM   24  C   UNL     1       7.818  25.510  56.507  1.00  0.00     0.000 A 
HETATM   25  C   UNL     1       7.788  25.285  55.091  1.00  0.00     0.001 A 
HETATM   26  C   UNL     1       8.017  23.922  54.871  1.00  0.00     0.044 A 
HETATM   27  C   UNL     1       7.582  26.125  53.975  1.00  0.00     0.014 A 
HETATM   28  C   UNL     1       8.052  23.375  53.578  1.00  0.00     0.030 A 
HETATM   29  N   UNL     1       8.180  23.340  56.109  1.00  0.00    -0.360 N 
HETATM   30  C   UNL     1       7.841  24.229  52.491  1.00  0.00     0.002 A 
HETATM   31  C   UNL     1       7.609  25.586  52.685  1.00  0.00     0.001 A 
HETATM   32  C   UNL     1       8.441  21.942  56.371  1.00  0.00     0.155 C 
HETATM   33  C   UNL     1       8.062  24.282  57.094  1.00  0.00     0.101 A 
ENDBRANCH  21  24
ENDBRANCH  20  21
ENDBRANCH   2  20
TORSDOF 7
ENDMDL
MODEL 3
REMARK VINA RESULT:      -9.5      2.189      3.094
REMARK  7 active torsions:
REMARK  status: ('A' for Active; 'I' for Inactive)
REMARK       I    between atoms: C_2  and  N_3 
REMARK    1  A    between atoms: N_3  and  C_4 
REMARK    2  A    between atoms: C_6  and  N_7 
REMARK       I    between atoms: N_7  and  C_8 
REMARK    3  A    between atoms: C_8  and  C_9 
REMARK       I    between atoms: C_9  and  N_10 
REMARK    4  A    between atoms: N_10  and  C_11 
REMARK    5  A    between atoms: C_11  and  C_12 
REMARK    6  A    between atoms: C_12  and  O_13 
REMARK    7  A    between atoms: C_12  and  C_14 
ROOT
HETATM    1  C   UNL     1       8.030  28.602  57.634  1.00  0.00     0.309 C 
HETATM    2  N   UNL     1       7.523  27.339  57.410  1.00  0.00    -0.350 N 
HETATM    3  O   UNL     1       9.198  28.945  57.518  1.00  0.00    -0.262 OA
HETATM    4  H   UNL     1       6.573  27.192  57.746  1.00  0.00     0.163 HD
ENDROOT
BRANCH   1   5
HETATM    5  C   UNL     1       6.976  29.629  58.104  1.00  0.00     0.313 C 
HETATM    6  N   UNL     1       7.489  30.486  59.053  1.00  0.00    -0.319 N 
HETATM    7  H   UNL     1       8.461  30.306  59.297  1.00  0.00     0.169 HD
HETATM    8  O   UNL     1       5.851  29.573  57.629  1.00  0.00    -0.262 OA
BRANCH   6   9
HETATM    9  C   UNL     1       6.833  31.535  59.719  1.00  0.00     0.037 A 
HETATM   10  C   UNL     1       7.146  31.946  61.018  1.00  0.00     0.059 A 
HETATM   11  C   UNL     1       6.454  33.005  61.628  1.00  0.00     0.036 A 
HETATM   12  C   UNL     1       5.444  33.652  60.918  1.00  0.00     0.029 A 
HETATM   13  C   UNL     1       5.122  33.246  59.621  1.00  0.00     0.004 A 
HETATM   14  C   UNL     1       5.813  32.191  59.025  1.00  0.00     0.029 A 
BRANCH  11  15
HETATM   15  N   UNL     1       6.835  33.347  62.943  1.00  0.00    -0.327 N 
HETATM   16  C   UNL     1       6.143  33.093  64.114  1.00  0.00     0.218 C 
HETATM   17  C   UNL     1       6.882  33.602  65.327  1.00  0.00     0.117 C 
HETATM   18  O   UNL     1       5.070  32.512  64.230  1.00  0.00    -0.274 OA
HETATM   19  H   UNL     1       7.722  33.827  63.035  1.00  0.00     0.169 HD
ENDBRANCH  11  15
ENDBRANCH   6   9
ENDBRANCH   1   5
BRANCH   2  20
HETATM   20  C   UNL     1       8.412  26.201  57.214  1.00  0.00     0.159 C 
BRANCH  20  21
HETATM   21  C   UNL     1       7.636  24.882  57.037  1.00  0.00     0.171 C 
BRANCH  21  22
HETATM   22  O   UNL     1       6.288  25.060  57.498  1.00  0.00    -0.389 OA
HETATM   23  H   UNL     1       6.351  25.322  58.433  1.00  0.00     0.210 HD
ENDBRANCH  21  22
BRANCH  21  24
HETATM   24  C   UNL     1       7.664  24.421  55.612  1.00  0.00     0.000 A 
HETATM   25  C   UNL     1       7.749  23.065  55.152  1.00  0.00     0.001 A 
HETATM   26  C   UNL     1       7.774  23.091  53.753  1.00  0.00     0.044 A 
HETATM   27  C   UNL     1       7.812  21.815  55.806  1.00  0.00     0.014 A 
HETATM   28  C   UNL     1       7.854  21.914  52.990  1.00  0.00     0.030 A 
HETATM   29  N   UNL     1       7.705  24.415  53.377  1.00  0.00    -0.360 N 
HETATM   30  C   UNL     1       7.917  20.691  53.664  1.00  0.00     0.002 A 
HETATM   31  C   UNL     1       7.897  20.640  55.053  1.00  0.00     0.001 A 
HETATM   32  C   UNL     1       7.700  24.922  52.022  1.00  0.00     0.155 C 
HETATM   33  C   UNL     1       7.640  25.217  54.483  1.00  0.00     0.101 A 
ENDBRANCH  21  24
ENDBRANCH  20  21
ENDBRANCH   2  20
TORSDOF 7
ENDMDL
MODEL 4
REMARK VINA RESULT:      -9.5      2.388     10.388
REMARK  7 active torsions:
REMARK  status: ('A' for Active; 'I' for Inactive)
REMARK       I    between atoms: C_2  and  N_3 
REMARK    1  A    between atoms: N_3  and  C_4 
REMARK    2  A    between atoms: C_6  and  N_7 
REMARK       I    between atoms: N_7  and  C_8 
REMARK    3  A    between atoms: C_8  and  C_9 
REMARK       I    between atoms: C_9  and  N_10 
REMARK    4  A    between atoms: N_10  and  C_11 
REMARK    5  A    between atoms: C_11  and  C_12 
REMARK    6  A    between atoms: C_12  and  O_13 
REMARK    7  A    between atoms: C_12  and  C_14 
ROOT
HETATM    1  C   UNL     1       8.109  29.231  57.420  1.00  0.00     0.309 C 
HETATM    2  N   UNL     1       6.994  29.676  58.099  1.00  0.00    -0.350 N 
HETATM    3  O   UNL     1       9.095  29.895  57.132  1.00  0.00    -0.262 OA
HETATM    4  H   UNL     1       6.196  29.044  58.073  1.00  0.00     0.163 HD
ENDROOT
BRANCH   1   5
HETATM    5  C   UNL     1       8.032  27.752  56.983  1.00  0.00     0.313 C 
HETATM    6  N   UNL     1       7.736  27.632  55.643  1.00  0.00    -0.319 N 
HETATM    7  H   UNL     1       7.610  28.521  55.162  1.00  0.00     0.169 HD
HETATM    8  O   UNL     1       8.211  26.882  57.823  1.00  0.00    -0.262 OA
BRANCH   6   9
HETATM    9  C   UNL     1       7.572  26.456  54.893  1.00  0.00     0.037 A 
HETATM   10  C   UNL     1       7.507  25.178  55.456  1.00  0.00     0.059 A 
HETATM   11  C   UNL     1       7.338  24.040  54.649  1.00  0.00     0.036 A 
HETATM   12  C   UNL     1       7.233  24.198  53.268  1.00  0.00     0.029 A 
HETATM   13  C   UNL     1       7.299  25.471  52.697  1.00  0.00     0.004 A 
HETATM   14  C   UNL     1       7.471  26.594  53.506  1.00  0.00     0.029 A 
BRANCH  11  15
HETATM   15  N   UNL     1       7.289  22.791  55.305  1.00  0.00    -0.327 N 
HETATM   16  C   UNL     1       8.304  21.859  55.420  1.00  0.00     0.218 C 
HETATM   17  C   UNL     1       7.872  20.649  56.210  1.00  0.00     0.117 C 
HETATM   18  O   UNL     1       9.445  21.948  54.982  1.00  0.00    -0.274 OA
HETATM   19  H   UNL     1       6.408  22.559  55.746  1.00  0.00     0.169 HD
ENDBRANCH  11  15
ENDBRANCH   6   9
ENDBRANCH   1   5
BRANCH   2  20
HETATM   20  C   UNL     1       6.793  31.097  58.354  1.00  0.00     0.159 C 
BRANCH  20  21
HETATM   21  C   UNL     1       7.566  31.579  59.597  1.00  0.00     0.171 C 
BRANCH  21  22
HETATM   22  O   UNL     1       8.746  32.279  59.177  1.00  0.00    -0.389 OA
HETATM   23  H   UNL     1       9.283  32.415  59.976  1.00  0.00     0.210 HD
ENDBRANCH  21  22
BRANCH  21  24
HETATM   24  C   UNL     1       6.707  32.440  60.471  1.00  0.00     0.000 A 
HETATM   25  C   UNL     1       6.947  32.774  61.845  1.00  0.00     0.001 A 
HETATM   26  C   UNL     1       5.885  33.576  62.280  1.00  0.00     0.044 A 
HETATM   27  C   UNL     1       7.976  32.460  62.760  1.00  0.00     0.014 A 
HETATM   28  C   UNL     1       5.822  34.076  63.592  1.00  0.00     0.030 A 
HETATM   29  N   UNL     1       5.032  33.724  61.209  1.00  0.00    -0.360 N 
HETATM   30  C   UNL     1       6.853  33.746  64.477  1.00  0.00     0.002 A 
HETATM   31  C   UNL     1       7.917  32.949  64.068  1.00  0.00     0.001 A 
HETATM   32  C   UNL     1       3.798  34.477  61.195  1.00  0.00     0.155 C 
HETATM   33  C   UNL     1       5.515  33.047  60.123  1.00  0.00     0.101 A 
ENDBRANCH  21  24
ENDBRANCH  20  21
ENDBRANCH   2  20
TORSDOF 7
ENDMDL
MODEL 5
REMARK VINA RESULT:      -9.4      1.983      2.965
REMARK  7 active torsions:
REMARK  status: ('A' for Active; 'I' for Inactive)
REMARK       I    between atoms: C_2  and  N_3 
REMARK    1  A    between atoms: N_3  and  C_4 
REMARK    2  A    between atoms: C_6  and  N_7 
REMARK       I    between atoms: N_7  and  C_8 
REMARK    3  A    between atoms: C_8  and  C_9 
REMARK       I    between atoms: C_9  and  N_10 
REMARK    4  A    between atoms: N_10  and  C_11 
REMARK    5  A    between atoms: C_11  and  C_12 
REMARK    6  A    between atoms: C_12  and  O_13 
REMARK    7  A    between atoms: C_12  and  C_14 
ROOT
HETATM    1  C   UNL     1       8.491  30.012  58.394  1.00  0.00     0.309 C 
HETATM    2  N   UNL     1       7.409  29.169  58.265  1.00  0.00    -0.350 N 
HETATM    3  O   UNL     1       9.640  29.774  58.048  1.00  0.00    -0.262 OA
HETATM    4  H   UNL     1       6.580  29.452  58.785  1.00  0.00     0.163 HD
ENDROOT
BRANCH   1   5
HETATM    5  C   UNL     1       8.163  31.359  59.074  1.00  0.00     0.313 C 
HETATM    6  N   UNL     1       6.963  31.309  59.749  1.00  0.00    -0.319 N 
HETATM    7  H   UNL     1       6.486  30.411  59.688  1.00  0.00     0.169 HD
HETATM    8  O   UNL     1       8.945  32.290  58.941  1.00  0.00    -0.262 OA
BRANCH   6   9
HETATM    9  C   UNL     1       6.331  32.335  60.471  1.00  0.00     0.037 A 
HETATM   10  C   UNL     1       6.648  32.664  61.793  1.00  0.00     0.059 A 
HETATM   11  C   UNL     1       5.979  33.704  62.459  1.00  0.00     0.036 A 
HETATM   12  C   UNL     1       4.988  34.414  61.784  1.00  0.00     0.029 A 
HETATM   13  C   UNL     1       4.662  34.091  60.465  1.00  0.00     0.004 A 
HETATM   14  C   UNL     1       5.329  33.054  59.813  1.00  0.00     0.029 A 
BRANCH  11  15
HETATM   15  N   UNL     1       6.362  33.962  63.793  1.00  0.00    -0.327 N 
HETATM   16  C   UNL     1       5.687  33.610  64.947  1.00  0.00     0.218 C 
HETATM   17  C   UNL     1       6.423  34.049  66.188  1.00  0.00     0.117 C 
HETATM   18  O   UNL     1       4.629  32.996  65.029  1.00  0.00    -0.274 OA
HETATM   19  H   UNL     1       7.239  34.455  63.912  1.00  0.00     0.169 HD
ENDBRANCH  11  15
ENDBRANCH   6   9
ENDBRANCH   1   5
BRANCH   2  20
HETATM   20  C   UNL     1       7.589  27.773  57.886  1.00  0.00     0.159 C 
BRANCH  20  21
HETATM   21  C   UNL     1       7.368  27.549  56.377  1.00  0.00     0.171 C 
BRANCH  21  22
HETATM   22  O   UNL     1       8.196  28.459  55.638  1.00  0.00    -0.389 OA
HETATM   23  H   UNL     1       8.461  27.992  54.826  1.00  0.00     0.210 HD
ENDBRANCH  21  22
BRANCH  21  24
HETATM   24  C   UNL     1       7.647  26.128  55.992  1.00  0.00     0.000 A 
HETATM   25  C   UNL     1       7.654  25.587  54.664  1.00  0.00     0.001 A 
HETATM   26  C   UNL     1       7.934  24.219  54.763  1.00  0.00     0.044 A 
HETATM   27  C   UNL     1       7.441  26.142  53.383  1.00  0.00     0.014 A 
HETATM   28  C   UNL     1       8.013  23.393  53.629  1.00  0.00     0.030 A 
HETATM   29  N   UNL     1       8.092  23.940  56.103  1.00  0.00    -0.360 N 
HETATM   30  C   UNL     1       7.796  23.969  52.374  1.00  0.00     0.002 A 
HETATM   31  C   UNL     1       7.514  25.325  52.250  1.00  0.00     0.001 A 
HETATM   32  C   UNL     1       8.395  22.649  56.680  1.00  0.00     0.155 C 
HETATM   33  C   UNL     1       7.921  25.077  56.846  1.00  0.00     0.101 A 
ENDBRANCH  21  24
ENDBRANCH  20  21
ENDBRANCH   2  20
TORSDOF 7
ENDMDL
MODEL 6
REMARK VINA RESULT:      -9.4      1.564      1.928
REMARK  7 active torsions:
REMARK  status: ('A' for Active; 'I' for Inactive)
REMARK       I    between atoms: C_2  and  N_3 
REMARK    1  A    between atoms: N_3  and  C_4 
REMARK    2  A    between atoms: C_6  and  N_7 
REMARK       I    between atoms: N_7  and  C_8 
REMARK    3  A    between atoms: C_8  and  C_9 
REMARK       I    between atoms: C_9  and  N_10 
REMARK    4  A    between atoms: N_10  and  C_11 
REMARK    5  A    between atoms: C_11  and  C_12 
REMARK    6  A    between atoms: C_12  and  O_13 
REMARK    7  A    between atoms: C_12  and  C_14 
ROOT
HETATM    1  C   UNL     1       7.821  29.315  57.346  1.00  0.00     0.309 C 
HETATM    2  N   UNL     1       6.707  28.565  57.659  1.00  0.00    -0.350 N 
HETATM    3  O   UNL     1       8.362  29.387  56.252  1.00  0.00    -0.262 OA
HETATM    4  H   UNL     1       6.518  28.472  58.655  1.00  0.00     0.163 HD
ENDROOT
BRANCH   1   5
HETATM    5  C   UNL     1       8.411  30.094  58.542  1.00  0.00     0.313 C 
HETATM    6  N   UNL     1       7.435  30.466  59.439  1.00  0.00    -0.319 N 
HETATM    7  H   UNL     1       6.493  30.181  59.174  1.00  0.00     0.169 HD
HETATM    8  O   UNL     1       9.615  30.308  58.566  1.00  0.00    -0.262 OA
BRANCH   6   9
HETATM    9  C   UNL     1       7.584  31.193  60.632  1.00  0.00     0.037 A 
HETATM   10  C   UNL     1       6.654  32.129  61.093  1.00  0.00     0.059 A 
HETATM   11  C   UNL     1       6.861  32.822  62.298  1.00  0.00     0.036 A 
HETATM   12  C   UNL     1       8.013  32.562  63.039  1.00  0.00     0.029 A 
HETATM   13  C   UNL     1       8.948  31.630  62.585  1.00  0.00     0.004 A 
HETATM   14  C   UNL     1       8.736  30.951  61.386  1.00  0.00     0.029 A 
BRANCH  11  15
HETATM   15  N   UNL     1       5.871  33.752  62.681  1.00  0.00    -0.327 N 
HETATM   16  C   UNL     1       4.916  33.607  63.671  1.00  0.00     0.218 C 
HETATM   17  C   UNL     1       4.041  34.829  63.794  1.00  0.00     0.117 C 
HETATM   18  O   UNL     1       4.756  32.643  64.411  1.00  0.00    -0.274 OA
HETATM   19  H   UNL     1       5.870  34.629  62.174  1.00  0.00     0.169 HD
ENDBRANCH  11  15
ENDBRANCH   6   9
ENDBRANCH   1   5
BRANCH   2  20
HETATM   20  C   UNL     1       6.183  27.580  56.722  1.00  0.00     0.159 C 
BRANCH  20  21
HETATM   21  C   UNL     1       7.035  26.296  56.693  1.00  0.00     0.171 C 
BRANCH  21  22
HETATM   22  O   UNL     1       6.765  25.523  57.872  1.00  0.00    -0.389 OA
HETATM   23  H   UNL     1       5.798  25.527  57.986  1.00  0.00     0.210 HD
ENDBRANCH  21  22
BRANCH  21  24
HETATM   24  C   UNL     1       6.777  25.498  55.451  1.00  0.00     0.000 A 
HETATM   25  C   UNL     1       7.517  24.358  54.996  1.00  0.00     0.001 A 
HETATM   26  C   UNL     1       6.954  23.941  53.784  1.00  0.00     0.044 A 
HETATM   27  C   UNL     1       8.623  23.646  55.508  1.00  0.00     0.014 A 
HETATM   28  C   UNL     1       7.455  22.836  53.075  1.00  0.00     0.030 A 
HETATM   29  N   UNL     1       5.909  24.796  53.515  1.00  0.00    -0.360 N 
HETATM   30  C   UNL     1       8.553  22.151  53.604  1.00  0.00     0.002 A 
HETATM   31  C   UNL     1       9.131  22.549  54.804  1.00  0.00     0.001 A 
HETATM   32  C   UNL     1       5.035  24.745  52.363  1.00  0.00     0.155 C 
HETATM   33  C   UNL     1       5.795  25.732  54.506  1.00  0.00     0.101 A 
ENDBRANCH  21  24
ENDBRANCH  20  21
ENDBRANCH   2  20
TORSDOF 7
ENDMDL
MODEL 7
REMARK VINA RESULT:      -9.0      2.518      4.582
REMARK  7 active torsions:
REMARK  status: ('A' for Active; 'I' for Inactive)
REMARK       I    between atoms: C_2  and  N_3 
REMARK    1  A    between atoms: N_3  and  C_4 
REMARK    2  A    between atoms: C_6  and  N_7 
REMARK       I    between atoms: N_7  and  C_8 
REMARK    3  A    between atoms: C_8  and  C_9 
REMARK       I    between atoms: C_9  and  N_10 
REMARK    4  A    between atoms: N_10  and  C_11 
REMARK    5  A    between atoms: C_11  and  C_12 
REMARK    6  A    between atoms: C_12  and  O_13 
REMARK    7  A    between atoms: C_12  and  C_14 
ROOT
HETATM    1  C   UNL     1       7.119  27.082  56.742  1.00  0.00     0.309 C 
HETATM    2  N   UNL     1       6.629  26.797  55.485  1.00  0.00    -0.350 N 
HETATM    3  O   UNL     1       7.162  26.315  57.694  1.00  0.00    -0.262 OA
HETATM    4  H   UNL     1       6.490  27.608  54.885  1.00  0.00     0.163 HD
ENDROOT
BRANCH   1   5
HETATM    5  C   UNL     1       7.618  28.533  56.910  1.00  0.00     0.313 C 
HETATM    6  N   UNL     1       7.896  28.827  58.227  1.00  0.00    -0.319 N 
HETATM    7  H   UNL     1       7.725  28.058  58.872  1.00  0.00     0.169 HD
HETATM    8  O   UNL     1       7.695  29.245  55.919  1.00  0.00    -0.262 OA
BRANCH   6   9
HETATM    9  C   UNL     1       8.354  30.040  58.767  1.00  0.00     0.037 A 
HETATM   10  C   UNL     1       7.638  30.795  59.700  1.00  0.00     0.059 A 
HETATM   11  C   UNL     1       8.154  32.001  60.204  1.00  0.00     0.036 A 
HETATM   12  C   UNL     1       9.401  32.441  59.764  1.00  0.00     0.029 A 
HETATM   13  C   UNL     1      10.123  31.694  58.830  1.00  0.00     0.004 A 
HETATM   14  C   UNL     1       9.600  30.501  58.332  1.00  0.00     0.029 A 
BRANCH  11  15
HETATM   15  N   UNL     1       7.357  32.698  61.138  1.00  0.00    -0.327 N 
HETATM   16  C   UNL     1       7.390  32.595  62.517  1.00  0.00     0.218 C 
HETATM   17  C   UNL     1       6.393  33.515  63.175  1.00  0.00     0.117 C 
HETATM   18  O   UNL     1       8.127  31.883  63.190  1.00  0.00    -0.274 OA
HETATM   19  H   UNL     1       6.692  33.354  60.748  1.00  0.00     0.169 HD
ENDBRANCH  11  15
ENDBRANCH   6   9
ENDBRANCH   1   5
BRANCH   2  20
HETATM   20  C   UNL     1       5.889  25.567  55.233  1.00  0.00     0.159 C 
BRANCH  20  21
HETATM   21  C   UNL     1       6.608  24.655  54.219  1.00  0.00     0.171 C 
BRANCH  21  22
HETATM   22  O   UNL     1       7.577  25.426  53.494  1.00  0.00    -0.389 OA
HETATM   23  H   UNL     1       7.912  24.849  52.786  1.00  0.00     0.210 HD
ENDBRANCH  21  22
BRANCH  21  24
HETATM   24  C   UNL     1       7.246  23.482  54.899  1.00  0.00     0.000 A 
HETATM   25  C   UNL     1       7.743  22.294  54.269  1.00  0.00     0.001 A 
HETATM   26  C   UNL     1       8.230  21.451  55.275  1.00  0.00     0.044 A 
HETATM   27  C   UNL     1       7.817  21.859  52.928  1.00  0.00     0.014 A 
HETATM   28  C   UNL     1       8.791  20.196  54.984  1.00  0.00     0.030 A 
HETATM   29  N   UNL     1       8.037  22.105  56.472  1.00  0.00    -0.360 N 
HETATM   30  C   UNL     1       8.849  19.790  53.648  1.00  0.00     0.002 A 
HETATM   31  C   UNL     1       8.369  20.608  52.632  1.00  0.00     0.001 A 
HETATM   32  C   UNL     1       8.392  21.612  57.784  1.00  0.00     0.155 C 
HETATM   33  C   UNL     1       7.448  23.321  56.257  1.00  0.00     0.101 A 
ENDBRANCH  21  24
ENDBRANCH  20  21
ENDBRANCH   2  20
TORSDOF 7
ENDMDL
MODEL 8
REMARK VINA RESULT:      -8.8      2.306      2.884
REMARK  7 active torsions:
REMARK  status: ('A' for Active; 'I' for Inactive)
REMARK       I    between atoms: C_2  and  N_3 
REMARK    1  A    between atoms: N_3  and  C_4 
REMARK    2  A    between atoms: C_6  and  N_7 
REMARK       I    between atoms: N_7  and  C_8 
REMARK    3  A    between atoms: C_8  and  C_9 
REMARK       I    between atoms: C_9  and  N_10 
REMARK    4  A    between atoms: N_10  and  C_11 
REMARK    5  A    between atoms: C_11  and  C_12 
REMARK    6  A    between atoms: C_12  and  O_13 
REMARK    7  A    between atoms: C_12  and  C_14 
ROOT
HETATM    1  C   UNL     1       7.509  29.168  57.921  1.00  0.00     0.309 C 
HETATM    2  N   UNL     1       6.532  28.331  57.424  1.00  0.00    -0.350 N 
HETATM    3  O   UNL     1       8.677  28.874  58.129  1.00  0.00    -0.262 OA
HETATM    4  H   UNL     1       5.581  28.686  57.505  1.00  0.00     0.163 HD
ENDROOT
BRANCH   1   5
HETATM    5  C   UNL     1       7.009  30.591  58.254  1.00  0.00     0.313 C 
HETATM    6  N   UNL     1       5.635  30.672  58.207  1.00  0.00    -0.319 N 
HETATM    7  H   UNL     1       5.173  29.799  57.957  1.00  0.00     0.169 HD
HETATM    8  O   UNL     1       7.834  31.461  58.494  1.00  0.00    -0.262 OA
BRANCH   6   9
HETATM    9  C   UNL     1       4.823  31.795  58.435  1.00  0.00     0.037 A 
HETATM   10  C   UNL     1       4.137  32.028  59.631  1.00  0.00     0.059 A 
HETATM   11  C   UNL     1       3.343  33.175  59.798  1.00  0.00     0.036 A 
HETATM   12  C   UNL     1       3.245  34.089  58.751  1.00  0.00     0.029 A 
HETATM   13  C   UNL     1       3.925  33.864  57.552  1.00  0.00     0.004 A 
HETATM   14  C   UNL     1       4.708  32.721  57.394  1.00  0.00     0.029 A 
BRANCH  11  15
HETATM   15  N   UNL     1       2.683  33.323  61.037  1.00  0.00    -0.327 N 
HETATM   16  C   UNL     1       3.056  34.127  62.099  1.00  0.00     0.218 C 
HETATM   17  C   UNL     1       2.086  34.026  63.250  1.00  0.00     0.117 C 
HETATM   18  O   UNL     1       4.027  34.872  62.160  1.00  0.00    -0.274 OA
HETATM   19  H   UNL     1       1.836  32.782  61.153  1.00  0.00     0.169 HD
ENDBRANCH  11  15
ENDBRANCH   6   9
ENDBRANCH   1   5
BRANCH   2  20
HETATM   20  C   UNL     1       6.768  26.898  57.302  1.00  0.00     0.159 C 
BRANCH  20  21
HETATM   21  C   UNL     1       5.549  26.157  56.719  1.00  0.00     0.171 C 
BRANCH  21  22
HETATM   22  O   UNL     1       4.409  27.030  56.743  1.00  0.00    -0.389 OA
HETATM   23  H   UNL     1       4.700  27.848  57.182  1.00  0.00     0.210 HD
ENDBRANCH  21  22
BRANCH  21  24
HETATM   24  C   UNL     1       5.824  25.664  55.332  1.00  0.00     0.000 A 
HETATM   25  C   UNL     1       6.599  24.513  54.970  1.00  0.00     0.001 A 
HETATM   26  C   UNL     1       6.621  24.436  53.572  1.00  0.00     0.044 A 
HETATM   27  C   UNL     1       7.290  23.530  55.712  1.00  0.00     0.014 A 
HETATM   28  C   UNL     1       7.302  23.410  52.896  1.00  0.00     0.030 A 
HETATM   29  N   UNL     1       5.884  25.501  53.103  1.00  0.00    -0.360 N 
HETATM   30  C   UNL     1       7.979  22.452  53.656  1.00  0.00     0.002 A 
HETATM   31  C   UNL     1       7.975  22.509  55.045  1.00  0.00     0.001 A 
HETATM   32  C   UNL     1       5.632  25.823  51.716  1.00  0.00     0.155 C 
HETATM   33  C   UNL     1       5.404  26.242  54.148  1.00  0.00     0.101 A 
ENDBRANCH  21  24
ENDBRANCH  20  21
ENDBRANCH   2  20
TORSDOF 7
ENDMDL
MODEL 9
REMARK VINA RESULT:      -8.8      2.794     10.211
REMARK  7 active torsions:
REMARK  status: ('A' for Active; 'I' for Inactive)
REMARK       I    between atoms: C_2  and  N_3 
REMARK    1  A    between atoms: N_3  and  C_4 
REMARK    2  A    between atoms: C_6  and  N_7 
REMARK       I    between atoms: N_7  and  C_8 
REMARK    3  A    between atoms: C_8  and  C_9 
REMARK       I    between atoms: C_9  and  N_10 
REMARK    4  A    between atoms: N_10  and  C_11 
REMARK    5  A    between atoms: C_11  and  C_12 
REMARK    6  A    between atoms: C_12  and  O_13 
REMARK    7  A    between atoms: C_12  and  C_14 
ROOT
HETATM    1  C   UNL     1       4.776  28.845  55.202  1.00  0.00     0.309 C 
HETATM    2  N   UNL     1       5.401  28.809  56.431  1.00  0.00    -0.350 N 
HETATM    3  O   UNL     1       4.056  29.740  54.782  1.00  0.00    -0.262 OA
HETATM    4  H   UNL     1       5.795  27.905  56.685  1.00  0.00     0.163 HD
ENDROOT
BRANCH   1   5
HETATM    5  C   UNL     1       5.027  27.595  54.331  1.00  0.00     0.313 C 
HETATM    6  N   UNL     1       6.205  26.967  54.670  1.00  0.00    -0.319 N 
HETATM    7  H   UNL     1       6.720  27.421  55.422  1.00  0.00     0.169 HD
HETATM    8  O   UNL     1       4.213  27.312  53.464  1.00  0.00    -0.262 OA
BRANCH   6   9
HETATM    9  C   UNL     1       6.770  25.816  54.096  1.00  0.00     0.037 A 
HETATM   10  C   UNL     1       6.818  24.572  54.733  1.00  0.00     0.059 A 
HETATM   11  C   UNL     1       7.396  23.458  54.103  1.00  0.00     0.036 A 
HETATM   12  C   UNL     1       7.925  23.603  52.821  1.00  0.00     0.029 A 
HETATM   13  C   UNL     1       7.884  24.842  52.178  1.00  0.00     0.004 A 
HETATM   14  C   UNL     1       7.312  25.944  52.813  1.00  0.00     0.029 A 
BRANCH  11  15
HETATM   15  N   UNL     1       7.404  22.245  54.825  1.00  0.00    -0.327 N 
HETATM   16  C   UNL     1       8.504  21.550  55.294  1.00  0.00     0.218 C 
HETATM   17  C   UNL     1       8.106  20.299  56.036  1.00  0.00     0.117 C 
HETATM   18  O   UNL     1       9.683  21.864  55.179  1.00  0.00    -0.274 OA
HETATM   19  H   UNL     1       6.495  21.847  55.027  1.00  0.00     0.169 HD
ENDBRANCH  11  15
ENDBRANCH   6   9
ENDBRANCH   1   5
BRANCH   2  20
HETATM   20  C   UNL     1       5.067  29.777  57.468  1.00  0.00     0.159 C 
BRANCH  20  21
HETATM   21  C   UNL     1       5.933  31.048  57.376  1.00  0.00     0.171 C 
BRANCH  21  22
HETATM   22  O   UNL     1       5.352  31.948  56.421  1.00  0.00    -0.389 OA
HETATM   23  H   UNL     1       6.082  32.262  55.860  1.00  0.00     0.210 HD
ENDBRANCH  21  22
BRANCH  21  24
HETATM   24  C   UNL     1       6.084  31.702  58.715  1.00  0.00     0.000 A 
HETATM   25  C   UNL     1       7.210  31.600  59.597  1.00  0.00     0.001 A 
HETATM   26  C   UNL     1       6.920  32.345  60.746  1.00  0.00     0.044 A 
HETATM   27  C   UNL     1       8.451  30.933  59.519  1.00  0.00     0.014 A 
HETATM   28  C   UNL     1       7.829  32.448  61.812  1.00  0.00     0.030 A 
HETATM   29  N   UNL     1       5.664  32.881  60.568  1.00  0.00    -0.360 N 
HETATM   30  C   UNL     1       9.050  31.775  61.709  1.00  0.00     0.002 A 
HETATM   31  C   UNL     1       9.359  31.027  60.579  1.00  0.00     0.001 A 
HETATM   32  C   UNL     1       4.953  33.727  61.501  1.00  0.00     0.155 C 
HETATM   33  C   UNL     1       5.155  32.502  59.356  1.00  0.00     0.101 A 
ENDBRANCH  21  24
ENDBRANCH  20  21
ENDBRANCH   2  20
TORSDOF 7
ENDMDL
MODEL 10
REMARK VINA RESULT:      -8.8      1.622      2.514
REMARK  7 active torsions:
REMARK  status: ('A' for Active; 'I' for Inactive)
REMARK       I    between atoms: C_2  and  N_3 
REMARK    1  A    between atoms: N_3  and  C_4 
REMARK    2  A    between atoms: C_6  and  N_7 
REMARK       I    between atoms: N_7  and  C_8 
REMARK    3  A    between atoms: C_8  and  C_9 
REMARK       I    between atoms: C_9  and  N_10 
REMARK    4  A    between atoms: N_10  and  C_11 
REMARK    5  A    between atoms: C_11  and  C_12 
REMARK    6  A    between atoms: C_12  and  O_13 
REMARK    7  A    between atoms: C_12  and  C_14 
ROOT
HETATM    1  C   UNL     1       6.599  30.597  57.953  1.00  0.00     0.309 C 
HETATM    2  N   UNL     1       6.851  29.249  58.099  1.00  0.00    -0.350 N 
HETATM    3  O   UNL     1       5.957  31.120  57.054  1.00  0.00    -0.262 OA
HETATM    4  H   UNL     1       7.564  29.018  58.789  1.00  0.00     0.163 HD
ENDROOT
BRANCH   1   5
HETATM    5  C   UNL     1       7.242  31.480  59.045  1.00  0.00     0.313 C 
HETATM    6  N   UNL     1       6.507  31.463  60.210  1.00  0.00    -0.319 N 
HETATM    7  H   UNL     1       5.667  30.888  60.167  1.00  0.00     0.169 HD
HETATM    8  O   UNL     1       8.269  32.087  58.780  1.00  0.00    -0.262 OA
BRANCH   6   9
HETATM    9  C   UNL     1       6.765  32.148  61.409  1.00  0.00     0.037 A 
HETATM   10  C   UNL     1       6.084  33.303  61.807  1.00  0.00     0.059 A 
HETATM   11  C   UNL     1       6.390  33.940  63.021  1.00  0.00     0.036 A 
HETATM   12  C   UNL     1       7.385  33.405  63.836  1.00  0.00     0.029 A 
HETATM   13  C   UNL     1       8.072  32.253  63.446  1.00  0.00     0.004 A 
HETATM   14  C   UNL     1       7.765  31.630  62.236  1.00  0.00     0.029 A 
BRANCH  11  15
HETATM   15  N   UNL     1       5.654  35.103  63.338  1.00  0.00    -0.327 N 
HETATM   16  C   UNL     1       4.343  35.179  63.772  1.00  0.00     0.218 C 
HETATM   17  C   UNL     1       3.913  36.603  64.021  1.00  0.00     0.117 C 
HETATM   18  O   UNL     1       3.574  34.246  63.974  1.00  0.00    -0.274 OA
HETATM   19  H   UNL     1       6.152  35.979  63.241  1.00  0.00     0.169 HD
ENDBRANCH  11  15
ENDBRANCH   6   9
ENDBRANCH   1   5
BRANCH   2  20
HETATM   20  C   UNL     1       6.542  28.311  57.028  1.00  0.00     0.159 C 
BRANCH  20  21
HETATM   21  C   UNL     1       7.813  27.709  56.398  1.00  0.00     0.171 C 
BRANCH  21  22
HETATM   22  O   UNL     1       8.805  27.526  57.419  1.00  0.00    -0.389 OA
HETATM   23  H   UNL     1       9.520  27.004  57.016  1.00  0.00     0.210 HD
ENDBRANCH  21  22
BRANCH  21  24
HETATM   24  C   UNL     1       7.515  26.420  55.696  1.00  0.00     0.000 A 
HETATM   25  C   UNL     1       6.926  26.268  54.397  1.00  0.00     0.001 A 
HETATM   26  C   UNL     1       6.803  24.897  54.143  1.00  0.00     0.044 A 
HETATM   27  C   UNL     1       6.482  27.180  53.416  1.00  0.00     0.014 A 
HETATM   28  C   UNL     1       6.258  24.411  52.942  1.00  0.00     0.030 A 
HETATM   29  N   UNL     1       7.300  24.241  55.247  1.00  0.00    -0.360 N 
HETATM   30  C   UNL     1       5.824  25.337  51.989  1.00  0.00     0.002 A 
HETATM   31  C   UNL     1       5.933  26.704  52.220  1.00  0.00     0.001 A 
HETATM   32  C   UNL     1       7.377  22.808  55.429  1.00  0.00     0.155 C 
HETATM   33  C   UNL     1       7.728  25.143  56.182  1.00  0.00     0.101 A 
ENDBRANCH  21  24
ENDBRANCH  20  21
ENDBRANCH   2  20
TORSDOF 7
ENDMDL
