MODEL 1
REMARK VINA RESULT:      -7.5      0.000      0.000
REMARK  10 active torsions:
REMARK  status: ('A' for Active; 'I' for Inactive)
REMARK    1  A    between atoms: C_6  and  C_7 
REMARK    2  A    between atoms: C_7  and  C_8 
REMARK       I    between atoms: C_8  and  N_9 
REMARK    3  A    between atoms: N_9  and  C_10 
REMARK    4  A    between atoms: C_10  and  C_11 
REMARK    5  A    between atoms: C_11  and  N_12 
REMARK    6  A    between atoms: C_19  and  C_20 
REMARK    7  A    between atoms: C_29  and  C_30 
REMARK    8  A    between atoms: C_30  and  O_31 
REMARK    9  A    between atoms: O_31  and  C_32 
REMARK   10  A    between atoms: C_32  and  C_33 
ROOT
HETATM    1  C   UNL     1       6.194  28.631  52.408  1.00  0.00     0.071 C 
HETATM    2  C   UNL     1       6.728  28.305  53.780  1.00  0.00     0.048 C 
HETATM    3  N   UNL     1       8.086  28.550  53.935  1.00  0.00    -0.229 NA
HETATM    4  C   UNL     1       8.523  28.670  55.142  1.00  0.00     0.170 C 
HETATM    5  N   UNL     1       7.609  28.519  56.382  1.00  0.00    -0.319 N 
HETATM    6  C   UNL     1       7.926  29.407  57.262  1.00  0.00     0.011 C 
HETATM    7  C   UNL     1       6.534  27.534  56.145  1.00  0.00     0.166 C 
HETATM    8  S   UNL     1      10.057  29.332  55.574  1.00  0.00    -0.086 SA
HETATM    9  C   UNL     1       9.337  29.963  57.131  1.00  0.00     0.135 C 
HETATM   10  C   UNL     1       5.963  27.851  54.798  1.00  0.00     0.069 C 
ENDROOT
BRANCH   6  11
HETATM   11  C   UNL     1       6.930  29.880  58.283  1.00  0.00     0.156 C 
BRANCH  11  12
HETATM   12  C   UNL     1       7.527  30.969  59.157  1.00  0.00     0.223 C 
HETATM   13  N   UNL     1       8.014  30.572  60.390  1.00  0.00    -0.359 N 
HETATM   14  H   UNL     1       8.372  29.623  60.460  1.00  0.00     0.162 HD
HETATM   15  O   UNL     1       7.426  32.146  58.832  1.00  0.00    -0.273 OA
BRANCH  13  16
HETATM   16  C   UNL     1       8.620  31.572  61.279  1.00  0.00     0.150 C 
BRANCH  16  17
HETATM   17  C   UNL     1       8.120  31.494  62.738  1.00  0.00     0.254 C 
BRANCH  17  18
HETATM   18  N   UNL     1       6.939  32.406  62.987  1.00  0.00    -0.070 N 
HETATM   19  H   UNL     1       7.014  32.791  63.941  1.00  0.00     0.279 HD
HETATM   20  C   UNL     1       5.573  31.736  62.881  1.00  0.00     0.235 C 
HETATM   21  C   UNL     1       4.942  32.348  61.647  1.00  0.00     0.029 C 
HETATM   22  C   UNL     1       5.445  33.774  61.680  1.00  0.00     0.029 C 
HETATM   23  C   UNL     1       6.907  33.612  62.046  1.00  0.00     0.235 C 
ENDBRANCH  17  18
ENDBRANCH  16  17
ENDBRANCH  13  16
ENDBRANCH  11  12
ENDBRANCH   6  11
BRANCH   7  24
HETATM   24  C   UNL     1       7.115  26.110  56.266  1.00  0.00    -0.030 A 
HETATM   25  C   UNL     1       6.708  25.092  55.379  1.00  0.00     0.011 A 
HETATM   26  C   UNL     1       7.151  23.772  55.542  1.00  0.00     0.024 A 
HETATM   27  C   UNL     1       8.026  23.449  56.573  1.00  0.00     0.034 A 
HETATM   28 CL   UNL     1       8.538  21.824  56.792  1.00  0.00    -0.084 Cl
HETATM   29  C   UNL     1       8.482  24.439  57.432  1.00  0.00     0.024 A 
HETATM   30  C   UNL     1       8.037  25.758  57.276  1.00  0.00     0.011 A 
ENDBRANCH   7  24
BRANCH  10  31
HETATM   31  C   UNL     1       4.509  27.685  54.691  1.00  0.00     0.294 C 
HETATM   32  O   UNL     1       3.959  27.017  53.840  1.00  0.00    -0.259 OA
BRANCH  31  33
HETATM   33  O   UNL     1       3.954  28.328  55.743  1.00  0.00    -0.314 OA
BRANCH  33  34
HETATM   34  C   UNL     1       3.907  29.753  55.571  1.00  0.00     0.206 C 
BRANCH  34  35
HETATM   35  C   UNL     1       3.139  30.377  56.702  1.00  0.00    -0.011 C 
HETATM   36  C   UNL     1       3.617  31.172  57.671  1.00  0.00     0.009 C 
ENDBRANCH  34  35
ENDBRANCH  33  34
ENDBRANCH  31  33
ENDBRANCH  10  31
TORSDOF 10
ENDMDL
MODEL 2
REMARK VINA RESULT:      -7.2      5.665     10.400
REMARK  10 active torsions:
REMARK  status: ('A' for Active; 'I' for Inactive)
REMARK    1  A    between atoms: C_6  and  C_7 
REMARK    2  A    between atoms: C_7  and  C_8 
REMARK       I    between atoms: C_8  and  N_9 
REMARK    3  A    between atoms: N_9  and  C_10 
REMARK    4  A    between atoms: C_10  and  C_11 
REMARK    5  A    between atoms: C_11  and  N_12 
REMARK    6  A    between atoms: C_19  and  C_20 
REMARK    7  A    between atoms: C_29  and  C_30 
REMARK    8  A    between atoms: C_30  and  O_31 
REMARK    9  A    between atoms: O_31  and  C_32 
REMARK   10  A    between atoms: C_32  and  C_33 
ROOT
HETATM    1  C   UNL     1       2.033  34.185  61.982  1.00  0.00     0.071 C 
HETATM    2  C   UNL     1       3.306  34.688  62.616  1.00  0.00     0.048 C 
HETATM    3  N   UNL     1       3.236  34.830  63.996  1.00  0.00    -0.229 NA
HETATM    4  C   UNL     1       4.355  34.873  64.635  1.00  0.00     0.170 C 
HETATM    5  N   UNL     1       5.728  34.807  63.923  1.00  0.00    -0.319 N 
HETATM    6  C   UNL     1       6.534  34.068  64.607  1.00  0.00     0.011 C 
HETATM    7  C   UNL     1       5.681  35.452  62.594  1.00  0.00     0.166 C 
HETATM    8  S   UNL     1       4.526  34.671  66.340  1.00  0.00    -0.086 SA
HETATM    9  C   UNL     1       6.169  33.916  66.077  1.00  0.00     0.135 C 
HETATM   10  C   UNL     1       4.439  34.947  61.927  1.00  0.00     0.069 C 
ENDROOT
BRANCH   6  11
HETATM   11  C   UNL     1       7.695  33.373  63.955  1.00  0.00     0.156 C 
BRANCH  11  12
HETATM   12  C   UNL     1       7.214  32.376  62.915  1.00  0.00     0.223 C 
HETATM   13  N   UNL     1       7.982  32.262  61.770  1.00  0.00    -0.359 N 
HETATM   14  H   UNL     1       8.978  32.445  61.863  1.00  0.00     0.162 HD
HETATM   15  O   UNL     1       6.122  31.836  63.037  1.00  0.00    -0.273 OA
BRANCH  13  16
HETATM   16  C   UNL     1       7.583  31.304  60.729  1.00  0.00     0.150 C 
BRANCH  16  17
HETATM   17  C   UNL     1       8.765  30.531  60.106  1.00  0.00     0.254 C 
BRANCH  17  18
HETATM   18  N   UNL     1       8.825  30.691  58.604  1.00  0.00    -0.070 N 
HETATM   19  H   UNL     1       8.291  31.534  58.340  1.00  0.00     0.279 HD
HETATM   20  C   UNL     1       8.246  29.528  57.807  1.00  0.00     0.235 C 
HETATM   21  C   UNL     1       9.443  28.899  57.124  1.00  0.00     0.029 C 
HETATM   22  C   UNL     1      10.320  30.090  56.810  1.00  0.00     0.029 C 
HETATM   23  C   UNL     1      10.246  30.911  58.082  1.00  0.00     0.235 C 
ENDBRANCH  17  18
ENDBRANCH  16  17
ENDBRANCH  13  16
ENDBRANCH  11  12
ENDBRANCH   6  11
BRANCH   7  24
HETATM   24  C   UNL     1       5.725  36.983  62.772  1.00  0.00    -0.030 A 
HETATM   25  C   UNL     1       5.766  37.834  61.649  1.00  0.00     0.011 A 
HETATM   26  C   UNL     1       5.909  39.221  61.797  1.00  0.00     0.024 A 
HETATM   27  C   UNL     1       5.987  39.785  63.066  1.00  0.00     0.034 A 
HETATM   28 CL   UNL     1       6.199  41.480  63.243  1.00  0.00    -0.084 Cl
HETATM   29  C   UNL     1       5.901  38.977  64.190  1.00  0.00     0.024 A 
HETATM   30  C   UNL     1       5.765  37.591  64.046  1.00  0.00     0.011 A 
ENDBRANCH   7  24
BRANCH  10  31
HETATM   31  C   UNL     1       4.570  34.705  60.485  1.00  0.00     0.294 C 
HETATM   32  O   UNL     1       4.228  35.491  59.628  1.00  0.00    -0.259 OA
BRANCH  31  33
HETATM   33  O   UNL     1       5.204  33.520  60.335  1.00  0.00    -0.314 OA
BRANCH  33  34
HETATM   34  C   UNL     1       4.314  32.443  60.003  1.00  0.00     0.206 C 
BRANCH  34  35
HETATM   35  C   UNL     1       4.581  31.976  58.600  1.00  0.00    -0.011 C 
HETATM   36  C   UNL     1       5.559  32.382  57.777  1.00  0.00     0.009 C 
ENDBRANCH  34  35
ENDBRANCH  33  34
ENDBRANCH  31  33
ENDBRANCH  10  31
TORSDOF 10
ENDMDL
MODEL 3
REMARK VINA RESULT:      -6.8      5.572      9.122
REMARK  10 active torsions:
REMARK  status: ('A' for Active; 'I' for Inactive)
REMARK    1  A    between atoms: C_6  and  C_7 
REMARK    2  A    between atoms: C_7  and  C_8 
REMARK       I    between atoms: C_8  and  N_9 
REMARK    3  A    between atoms: N_9  and  C_10 
REMARK    4  A    between atoms: C_10  and  C_11 
REMARK    5  A    between atoms: C_11  and  N_12 
REMARK    6  A    between atoms: C_19  and  C_20 
REMARK    7  A    between atoms: C_29  and  C_30 
REMARK    8  A    between atoms: C_30  and  O_31 
REMARK    9  A    between atoms: O_31  and  C_32 
REMARK   10  A    between atoms: C_32  and  C_33 
ROOT
HETATM    1  C   UNL     1       1.373  27.175  48.138  1.00  0.00     0.071 C 
HETATM    2  C   UNL     1       2.234  28.316  48.618  1.00  0.00     0.048 C 
HETATM    3  N   UNL     1       1.521  29.446  48.996  1.00  0.00    -0.229 NA
HETATM    4  C   UNL     1       2.126  30.289  49.762  1.00  0.00     0.170 C 
HETATM    5  N   UNL     1       3.590  30.095  50.226  1.00  0.00    -0.319 N 
HETATM    6  C   UNL     1       3.700  30.444  51.463  1.00  0.00     0.011 C 
HETATM    7  C   UNL     1       4.399  29.412  49.196  1.00  0.00     0.166 C 
HETATM    8  S   UNL     1       1.351  31.548  50.650  1.00  0.00    -0.086 SA
HETATM    9  C   UNL     1       2.619  31.395  51.958  1.00  0.00     0.135 C 
HETATM   10  C   UNL     1       3.580  28.253  48.719  1.00  0.00     0.069 C 
ENDROOT
BRANCH   6  11
HETATM   11  C   UNL     1       4.786  29.883  52.336  1.00  0.00     0.156 C 
BRANCH  11  12
HETATM   12  C   UNL     1       4.197  29.142  53.524  1.00  0.00     0.223 C 
HETATM   13  N   UNL     1       4.558  29.601  54.778  1.00  0.00    -0.359 N 
HETATM   14  H   UNL     1       4.769  30.592  54.862  1.00  0.00     0.162 HD
HETATM   15  O   UNL     1       3.570  28.104  53.353  1.00  0.00    -0.273 OA
BRANCH  13  16
HETATM   16  C   UNL     1       4.012  28.940  55.970  1.00  0.00     0.150 C 
BRANCH  16  17
HETATM   17  C   UNL     1       5.006  27.984  56.665  1.00  0.00     0.254 C 
BRANCH  17  18
HETATM   18  N   UNL     1       5.095  26.645  55.967  1.00  0.00    -0.070 N 
HETATM   19  H   UNL     1       4.286  26.549  55.334  1.00  0.00     0.279 HD
HETATM   20  C   UNL     1       5.085  25.433  56.892  1.00  0.00     0.235 C 
HETATM   21  C   UNL     1       6.476  24.846  56.768  1.00  0.00     0.029 C 
HETATM   22  C   UNL     1       6.820  25.093  55.315  1.00  0.00     0.029 C 
HETATM   23  C   UNL     1       6.339  26.512  55.088  1.00  0.00     0.235 C 
ENDBRANCH  17  18
ENDBRANCH  16  17
ENDBRANCH  13  16
ENDBRANCH  11  12
ENDBRANCH   6  11
BRANCH   7  24
HETATM   24  C   UNL     1       4.770  30.421  48.091  1.00  0.00    -0.030 A 
HETATM   25  C   UNL     1       5.370  31.655  48.417  1.00  0.00     0.011 A 
HETATM   26  C   UNL     1       5.618  32.622  47.434  1.00  0.00     0.024 A 
HETATM   27  C   UNL     1       5.298  32.366  46.104  1.00  0.00     0.034 A 
HETATM   28 CL   UNL     1       5.570  33.567  44.907  1.00  0.00    -0.084 Cl
HETATM   29  C   UNL     1       4.753  31.142  45.745  1.00  0.00     0.024 A 
HETATM   30  C   UNL     1       4.497  30.177  46.727  1.00  0.00     0.011 A 
ENDBRANCH   7  24
BRANCH  10  31
HETATM   31  C   UNL     1       4.347  27.036  48.427  1.00  0.00     0.294 C 
HETATM   32  O   UNL     1       4.881  26.806  47.362  1.00  0.00    -0.259 OA
BRANCH  31  33
HETATM   33  O   UNL     1       4.401  26.314  49.569  1.00  0.00    -0.314 OA
BRANCH  33  34
HETATM   34  C   UNL     1       5.427  26.760  50.469  1.00  0.00     0.206 C 
BRANCH  34  35
HETATM   35  C   UNL     1       5.660  25.721  51.530  1.00  0.00    -0.011 C 
HETATM   36  C   UNL     1       4.752  24.912  52.093  1.00  0.00     0.009 C 
ENDBRANCH  34  35
ENDBRANCH  33  34
ENDBRANCH  31  33
ENDBRANCH  10  31
TORSDOF 10
ENDMDL
MODEL 4
REMARK VINA RESULT:      -6.8      3.391      8.180
REMARK  10 active torsions:
REMARK  status: ('A' for Active; 'I' for Inactive)
REMARK    1  A    between atoms: C_6  and  C_7 
REMARK    2  A    between atoms: C_7  and  C_8 
REMARK       I    between atoms: C_8  and  N_9 
REMARK    3  A    between atoms: N_9  and  C_10 
REMARK    4  A    between atoms: C_10  and  C_11 
REMARK    5  A    between atoms: C_11  and  N_12 
REMARK    6  A    between atoms: C_19  and  C_20 
REMARK    7  A    between atoms: C_29  and  C_30 
REMARK    8  A    between atoms: C_30  and  O_31 
REMARK    9  A    between atoms: O_31  and  C_32 
REMARK   10  A    between atoms: C_32  and  C_33 
ROOT
HETATM    1  C   UNL     1       2.901  29.942  56.947  1.00  0.00     0.071 C 
HETATM    2  C   UNL     1       4.367  29.593  56.895  1.00  0.00     0.048 C 
HETATM    3  N   UNL     1       4.681  28.367  57.467  1.00  0.00    -0.229 NA
HETATM    4  C   UNL     1       5.805  27.834  57.124  1.00  0.00     0.170 C 
HETATM    5  N   UNL     1       6.795  28.522  56.152  1.00  0.00    -0.319 N 
HETATM    6  C   UNL     1       7.299  27.641  55.356  1.00  0.00     0.011 C 
HETATM    7  C   UNL     1       6.754  29.992  56.289  1.00  0.00     0.166 C 
HETATM    8  S   UNL     1       6.239  26.187  57.395  1.00  0.00    -0.086 SA
HETATM    9  C   UNL     1       7.244  26.209  55.868  1.00  0.00     0.135 C 
HETATM   10  C   UNL     1       5.306  30.372  56.314  1.00  0.00     0.069 C 
ENDROOT
BRANCH   6  11
HETATM   11  C   UNL     1       7.830  28.028  54.005  1.00  0.00     0.156 C 
BRANCH  11  12
HETATM   12  C   UNL     1       6.772  27.833  52.931  1.00  0.00     0.223 C 
HETATM   13  N   UNL     1       6.005  28.939  52.614  1.00  0.00    -0.359 N 
HETATM   14  H   UNL     1       6.443  29.850  52.724  1.00  0.00     0.162 HD
HETATM   15  O   UNL     1       6.528  26.712  52.503  1.00  0.00    -0.273 OA
BRANCH  13  16
HETATM   16  C   UNL     1       4.975  28.825  51.573  1.00  0.00     0.150 C 
BRANCH  16  17
HETATM   17  C   UNL     1       5.476  29.183  50.157  1.00  0.00     0.254 C 
BRANCH  17  18
HETATM   18  N   UNL     1       5.583  27.967  49.264  1.00  0.00    -0.070 N 
HETATM   19  H   UNL     1       6.536  27.579  49.346  1.00  0.00     0.279 HD
HETATM   20  C   UNL     1       5.333  28.229  47.783  1.00  0.00     0.235 C 
HETATM   21  C   UNL     1       4.030  27.515  47.483  1.00  0.00     0.029 C 
HETATM   22  C   UNL     1       4.105  26.288  48.364  1.00  0.00     0.029 C 
HETATM   23  C   UNL     1       4.632  26.840  49.674  1.00  0.00     0.235 C 
ENDBRANCH  17  18
ENDBRANCH  16  17
ENDBRANCH  13  16
ENDBRANCH  11  12
ENDBRANCH   6  11
BRANCH   7  24
HETATM   24  C   UNL     1       7.538  30.406  57.551  1.00  0.00    -0.030 A 
HETATM   25  C   UNL     1       6.915  31.155  58.569  1.00  0.00     0.011 A 
HETATM   26  C   UNL     1       7.642  31.624  59.672  1.00  0.00     0.024 A 
HETATM   27  C   UNL     1       8.997  31.332  59.792  1.00  0.00     0.034 A 
HETATM   28 CL   UNL     1       9.894  31.938  61.125  1.00  0.00    -0.084 Cl
HETATM   29  C   UNL     1       9.627  30.555  58.830  1.00  0.00     0.024 A 
HETATM   30  C   UNL     1       8.904  30.091  57.724  1.00  0.00     0.011 A 
ENDBRANCH   7  24
BRANCH  10  31
HETATM   31  C   UNL     1       4.985  31.621  55.612  1.00  0.00     0.294 C 
HETATM   32  O   UNL     1       5.037  32.721  56.120  1.00  0.00    -0.259 OA
BRANCH  31  33
HETATM   33  O   UNL     1       4.723  31.300  54.325  1.00  0.00    -0.314 OA
BRANCH  33  34
HETATM   34  C   UNL     1       3.941  32.294  53.645  1.00  0.00     0.206 C 
BRANCH  34  35
HETATM   35  C   UNL     1       2.495  32.155  54.031  1.00  0.00    -0.011 C 
HETATM   36  C   UNL     1       1.658  33.128  54.421  1.00  0.00     0.009 C 
ENDBRANCH  34  35
ENDBRANCH  33  34
ENDBRANCH  31  33
ENDBRANCH  10  31
TORSDOF 10
ENDMDL
MODEL 5
REMARK VINA RESULT:      -6.6      6.161      9.433
REMARK  10 active torsions:
REMARK  status: ('A' for Active; 'I' for Inactive)
REMARK    1  A    between atoms: C_6  and  C_7 
REMARK    2  A    between atoms: C_7  and  C_8 
REMARK       I    between atoms: C_8  and  N_9 
REMARK    3  A    between atoms: N_9  and  C_10 
REMARK    4  A    between atoms: C_10  and  C_11 
REMARK    5  A    between atoms: C_11  and  N_12 
REMARK    6  A    between atoms: C_19  and  C_20 
REMARK    7  A    between atoms: C_29  and  C_30 
REMARK    8  A    between atoms: C_30  and  O_31 
REMARK    9  A    between atoms: O_31  and  C_32 
REMARK   10  A    between atoms: C_32  and  C_33 
ROOT
HETATM    1  C   UNL     1       2.154  29.427  48.558  1.00  0.00     0.071 C 
HETATM    2  C   UNL     1       2.893  30.288  49.551  1.00  0.00     0.048 C 
HETATM    3  N   UNL     1       2.150  31.353  50.045  1.00  0.00    -0.229 NA
HETATM    4  C   UNL     1       2.552  31.882  51.149  1.00  0.00     0.170 C 
HETATM    5  N   UNL     1       3.821  31.401  51.895  1.00  0.00    -0.319 N 
HETATM    6  C   UNL     1       3.598  31.392  53.165  1.00  0.00     0.011 C 
HETATM    7  C   UNL     1       4.856  30.928  50.952  1.00  0.00     0.166 C 
HETATM    8  S   UNL     1       1.613  32.940  52.136  1.00  0.00    -0.086 SA
HETATM    9  C   UNL     1       2.461  32.295  53.621  1.00  0.00     0.135 C 
HETATM   10  C   UNL     1       4.155  30.044  49.968  1.00  0.00     0.069 C 
ENDROOT
BRANCH   6  11
HETATM   11  C   UNL     1       4.376  30.494  54.084  1.00  0.00     0.156 C 
BRANCH  11  12
HETATM   12  C   UNL     1       4.148  29.033  53.735  1.00  0.00     0.223 C 
HETATM   13  N   UNL     1       5.233  28.188  53.881  1.00  0.00    -0.359 N 
HETATM   14  H   UNL     1       5.912  28.430  54.599  1.00  0.00     0.162 HD
HETATM   15  O   UNL     1       3.101  28.682  53.205  1.00  0.00    -0.273 OA
BRANCH  13  16
HETATM   16  C   UNL     1       5.078  26.759  53.576  1.00  0.00     0.150 C 
BRANCH  16  17
HETATM   17  C   UNL     1       5.642  25.823  54.667  1.00  0.00     0.254 C 
BRANCH  17  18
HETATM   18  N   UNL     1       7.028  25.321  54.328  1.00  0.00    -0.070 N 
HETATM   19  H   UNL     1       7.667  25.568  55.099  1.00  0.00     0.279 HD
HETATM   20  C   UNL     1       7.628  25.893  53.049  1.00  0.00     0.235 C 
HETATM   21  C   UNL     1       7.687  24.718  52.095  1.00  0.00     0.029 C 
HETATM   22  C   UNL     1       8.004  23.554  53.009  1.00  0.00     0.029 C 
HETATM   23  C   UNL     1       7.095  23.798  54.197  1.00  0.00     0.235 C 
ENDBRANCH  17  18
ENDBRANCH  16  17
ENDBRANCH  13  16
ENDBRANCH  11  12
ENDBRANCH   6  11
BRANCH   7  24
HETATM   24  C   UNL     1       5.559  32.145  50.318  1.00  0.00    -0.030 A 
HETATM   25  C   UNL     1       5.671  33.359  51.027  1.00  0.00     0.011 A 
HETATM   26  C   UNL     1       6.216  34.501  50.425  1.00  0.00     0.024 A 
HETATM   27  C   UNL     1       6.684  34.447  49.116  1.00  0.00     0.034 A 
HETATM   28 CL   UNL     1       7.319  35.857  48.369  1.00  0.00    -0.084 Cl
HETATM   29  C   UNL     1       6.632  33.254  48.410  1.00  0.00     0.024 A 
HETATM   30  C   UNL     1       6.082  32.113  49.006  1.00  0.00     0.011 A 
ENDBRANCH   7  24
BRANCH  10  31
HETATM   31  C   UNL     1       4.923  28.867  49.542  1.00  0.00     0.294 C 
HETATM   32  O   UNL     1       5.775  28.886  48.679  1.00  0.00    -0.259 OA
BRANCH  31  33
HETATM   33  O   UNL     1       4.556  27.839  50.340  1.00  0.00    -0.314 OA
BRANCH  33  34
HETATM   34  C   UNL     1       4.806  26.553  49.752  1.00  0.00     0.206 C 
BRANCH  34  35
HETATM   35  C   UNL     1       3.645  26.155  48.885  1.00  0.00    -0.011 C 
HETATM   36  C   UNL     1       3.685  25.732  47.613  1.00  0.00     0.009 C 
ENDBRANCH  34  35
ENDBRANCH  33  34
ENDBRANCH  31  33
ENDBRANCH  10  31
TORSDOF 10
ENDMDL
MODEL 6
REMARK VINA RESULT:      -6.6      5.844      9.169
REMARK  10 active torsions:
REMARK  status: ('A' for Active; 'I' for Inactive)
REMARK    1  A    between atoms: C_6  and  C_7 
REMARK    2  A    between atoms: C_7  and  C_8 
REMARK       I    between atoms: C_8  and  N_9 
REMARK    3  A    between atoms: N_9  and  C_10 
REMARK    4  A    between atoms: C_10  and  C_11 
REMARK    5  A    between atoms: C_11  and  N_12 
REMARK    6  A    between atoms: C_19  and  C_20 
REMARK    7  A    between atoms: C_29  and  C_30 
REMARK    8  A    between atoms: C_30  and  O_31 
REMARK    9  A    between atoms: O_31  and  C_32 
REMARK   10  A    between atoms: C_32  and  C_33 
ROOT
HETATM    1  C   UNL     1       1.816  27.339  47.940  1.00  0.00     0.071 C 
HETATM    2  C   UNL     1       2.481  28.631  48.344  1.00  0.00     0.048 C 
HETATM    3  N   UNL     1       1.595  29.668  48.605  1.00  0.00    -0.229 NA
HETATM    4  C   UNL     1       2.040  30.650  49.312  1.00  0.00     0.170 C 
HETATM    5  N   UNL     1       3.497  30.717  49.829  1.00  0.00    -0.319 N 
HETATM    6  C   UNL     1       3.507  31.177  51.034  1.00  0.00     0.011 C 
HETATM    7  C   UNL     1       4.437  30.082  48.881  1.00  0.00     0.166 C 
HETATM    8  S   UNL     1       1.053  31.846  50.070  1.00  0.00    -0.086 SA
HETATM    9  C   UNL     1       2.279  31.990  51.418  1.00  0.00     0.135 C 
HETATM   10  C   UNL     1       3.816  28.779  48.484  1.00  0.00     0.069 C 
ENDROOT
BRANCH   6  11
HETATM   11  C   UNL     1       4.630  30.857  51.979  1.00  0.00     0.156 C 
BRANCH  11  12
HETATM   12  C   UNL     1       4.357  29.562  52.725  1.00  0.00     0.223 C 
HETATM   13  N   UNL     1       5.280  29.201  53.691  1.00  0.00    -0.359 N 
HETATM   14  H   UNL     1       5.771  29.955  54.163  1.00  0.00     0.162 HD
HETATM   15  O   UNL     1       3.452  28.820  52.363  1.00  0.00    -0.273 OA
BRANCH  13  16
HETATM   16  C   UNL     1       5.068  27.968  54.462  1.00  0.00     0.150 C 
BRANCH  16  17
HETATM   17  C   UNL     1       6.276  27.563  55.334  1.00  0.00     0.254 C 
BRANCH  17  18
HETATM   18  N   UNL     1       6.904  28.752  56.027  1.00  0.00    -0.070 N 
HETATM   19  H   UNL     1       6.406  29.606  55.734  1.00  0.00     0.279 HD
HETATM   20  C   UNL     1       8.382  28.969  55.723  1.00  0.00     0.235 C 
HETATM   21  C   UNL     1       9.090  28.671  57.029  1.00  0.00     0.029 C 
HETATM   22  C   UNL     1       8.116  29.183  58.067  1.00  0.00     0.029 C 
HETATM   23  C   UNL     1       6.778  28.690  57.551  1.00  0.00     0.235 C 
ENDBRANCH  17  18
ENDBRANCH  16  17
ENDBRANCH  13  16
ENDBRANCH  11  12
ENDBRANCH   6  11
BRANCH   7  24
HETATM   24  C   UNL     1       4.697  31.044  47.704  1.00  0.00    -0.030 A 
HETATM   25  C   UNL     1       4.374  30.667  46.385  1.00  0.00     0.011 A 
HETATM   26  C   UNL     1       4.698  31.489  45.297  1.00  0.00     0.024 A 
HETATM   27  C   UNL     1       5.325  32.713  45.507  1.00  0.00     0.034 A 
HETATM   28 CL   UNL     1       5.754  33.701  44.169  1.00  0.00    -0.084 Cl
HETATM   29  C   UNL     1       5.611  33.133  46.798  1.00  0.00     0.024 A 
HETATM   30  C   UNL     1       5.295  32.311  47.886  1.00  0.00     0.011 A 
ENDBRANCH   7  24
BRANCH  10  31
HETATM   31  C   UNL     1       4.765  27.671  48.316  1.00  0.00     0.294 C 
HETATM   32  O   UNL     1       5.079  27.199  47.244  1.00  0.00    -0.259 OA
BRANCH  31  33
HETATM   33  O   UNL     1       5.252  27.373  49.541  1.00  0.00    -0.314 OA
BRANCH  33  34
HETATM   34  C   UNL     1       4.732  26.143  50.069  1.00  0.00     0.206 C 
BRANCH  34  35
HETATM   35  C   UNL     1       5.336  25.873  51.419  1.00  0.00    -0.011 C 
HETATM   36  C   UNL     1       4.990  24.914  52.290  1.00  0.00     0.009 C 
ENDBRANCH  34  35
ENDBRANCH  33  34
ENDBRANCH  31  33
ENDBRANCH  10  31
TORSDOF 10
ENDMDL
MODEL 7
REMARK VINA RESULT:      -6.6      7.024     10.319
REMARK  10 active torsions:
REMARK  status: ('A' for Active; 'I' for Inactive)
REMARK    1  A    between atoms: C_6  and  C_7 
REMARK    2  A    between atoms: C_7  and  C_8 
REMARK       I    between atoms: C_8  and  N_9 
REMARK    3  A    between atoms: N_9  and  C_10 
REMARK    4  A    between atoms: C_10  and  C_11 
REMARK    5  A    between atoms: C_11  and  N_12 
REMARK    6  A    between atoms: C_19  and  C_20 
REMARK    7  A    between atoms: C_29  and  C_30 
REMARK    8  A    between atoms: C_30  and  O_31 
REMARK    9  A    between atoms: O_31  and  C_32 
REMARK   10  A    between atoms: C_32  and  C_33 
ROOT
HETATM    1  C   UNL     1       1.717  28.749  47.106  1.00  0.00     0.071 C 
HETATM    2  C   UNL     1       2.482  29.816  47.848  1.00  0.00     0.048 C 
HETATM    3  N   UNL     1       1.754  30.974  48.088  1.00  0.00    -0.229 NA
HETATM    4  C   UNL     1       2.184  31.749  49.025  1.00  0.00     0.170 C 
HETATM    5  N   UNL     1       3.467  31.449  49.837  1.00  0.00    -0.319 N 
HETATM    6  C   UNL     1       3.273  31.745  51.076  1.00  0.00     0.011 C 
HETATM    7  C   UNL     1       4.478  30.754  49.013  1.00  0.00     0.166 C 
HETATM    8  S   UNL     1       1.271  33.021  49.749  1.00  0.00    -0.086 SA
HETATM    9  C   UNL     1       2.150  32.742  51.327  1.00  0.00     0.135 C 
HETATM   10  C   UNL     1       3.752  29.667  48.285  1.00  0.00     0.069 C 
ENDROOT
BRANCH   6  11
HETATM   11  C   UNL     1       4.068  31.087  52.168  1.00  0.00     0.156 C 
BRANCH  11  12
HETATM   12  C   UNL     1       3.678  29.626  52.315  1.00  0.00     0.223 C 
HETATM   13  N   UNL     1       4.676  28.760  52.726  1.00  0.00    -0.359 N 
HETATM   14  H   UNL     1       5.402  29.146  53.323  1.00  0.00     0.162 HD
HETATM   15  O   UNL     1       2.581  29.239  51.931  1.00  0.00    -0.273 OA
BRANCH  13  16
HETATM   16  C   UNL     1       4.363  27.336  52.904  1.00  0.00     0.150 C 
BRANCH  16  17
HETATM   17  C   UNL     1       5.370  26.583  53.800  1.00  0.00     0.254 C 
BRANCH  17  18
HETATM   18  N   UNL     1       5.856  25.301  53.163  1.00  0.00    -0.070 N 
HETATM   19  H   UNL     1       5.054  24.830  52.715  1.00  0.00     0.279 HD
HETATM   20  C   UNL     1       6.483  24.298  54.125  1.00  0.00     0.235 C 
HETATM   21  C   UNL     1       7.948  24.266  53.742  1.00  0.00     0.029 C 
HETATM   22  C   UNL     1       7.911  24.442  52.240  1.00  0.00     0.029 C 
HETATM   23  C   UNL     1       6.880  25.537  52.051  1.00  0.00     0.235 C 
ENDBRANCH  17  18
ENDBRANCH  16  17
ENDBRANCH  13  16
ENDBRANCH  11  12
ENDBRANCH   6  11
BRANCH   7  24
HETATM   24  C   UNL     1       5.172  31.778  48.092  1.00  0.00    -0.030 A 
HETATM   25  C   UNL     1       4.895  31.802  46.709  1.00  0.00     0.011 A 
HETATM   26  C   UNL     1       5.593  32.658  45.846  1.00  0.00     0.024 A 
HETATM   27  C   UNL     1       6.559  33.523  46.349  1.00  0.00     0.034 A 
HETATM   28 CL   UNL     1       7.438  34.545  45.284  1.00  0.00    -0.084 Cl
HETATM   29  C   UNL     1       6.819  33.557  47.711  1.00  0.00     0.024 A 
HETATM   30  C   UNL     1       6.128  32.698  48.575  1.00  0.00     0.011 A 
ENDBRANCH   7  24
BRANCH  10  31
HETATM   31  C   UNL     1       4.505  28.415  48.136  1.00  0.00     0.294 C 
HETATM   32  O   UNL     1       5.228  28.162  47.195  1.00  0.00    -0.259 OA
BRANCH  31  33
HETATM   33  O   UNL     1       4.300  27.689  49.258  1.00  0.00    -0.314 OA
BRANCH  33  34
HETATM   34  C   UNL     1       4.494  26.280  49.060  1.00  0.00     0.206 C 
BRANCH  34  35
HETATM   35  C   UNL     1       3.242  25.668  48.498  1.00  0.00    -0.011 C 
HETATM   36  C   UNL     1       3.058  25.172  47.266  1.00  0.00     0.009 C 
ENDBRANCH  34  35
ENDBRANCH  33  34
ENDBRANCH  31  33
ENDBRANCH  10  31
TORSDOF 10
ENDMDL
MODEL 8
REMARK VINA RESULT:      -6.4      6.960     10.196
REMARK  10 active torsions:
REMARK  status: ('A' for Active; 'I' for Inactive)
REMARK    1  A    between atoms: C_6  and  C_7 
REMARK    2  A    between atoms: C_7  and  C_8 
REMARK       I    between atoms: C_8  and  N_9 
REMARK    3  A    between atoms: N_9  and  C_10 
REMARK    4  A    between atoms: C_10  and  C_11 
REMARK    5  A    between atoms: C_11  and  N_12 
REMARK    6  A    between atoms: C_19  and  C_20 
REMARK    7  A    between atoms: C_29  and  C_30 
REMARK    8  A    between atoms: C_30  and  O_31 
REMARK    9  A    between atoms: O_31  and  C_32 
REMARK   10  A    between atoms: C_32  and  C_33 
ROOT
HETATM    1  C   UNL     1       0.087  30.760  49.049  1.00  0.00     0.071 C 
HETATM    2  C   UNL     1       1.544  30.468  49.309  1.00  0.00     0.048 C 
HETATM    3  N   UNL     1       1.942  30.688  50.621  1.00  0.00    -0.229 NA
HETATM    4  C   UNL     1       3.028  30.108  51.006  1.00  0.00     0.170 C 
HETATM    5  N   UNL     1       3.888  29.232  50.062  1.00  0.00    -0.319 N 
HETATM    6  C   UNL     1       4.313  28.196  50.704  1.00  0.00     0.011 C 
HETATM    7  C   UNL     1       3.838  29.725  48.671  1.00  0.00     0.166 C 
HETATM    8  S   UNL     1       3.519  29.924  52.649  1.00  0.00    -0.086 SA
HETATM    9  C   UNL     1       4.342  28.349  52.218  1.00  0.00     0.135 C 
HETATM   10  C   UNL     1       2.396  29.996  48.373  1.00  0.00     0.069 C 
ENDROOT
BRANCH   6  11
HETATM   11  C   UNL     1       4.679  26.931  49.982  1.00  0.00     0.156 C 
BRANCH  11  12
HETATM   12  C   UNL     1       5.233  25.897  50.948  1.00  0.00     0.223 C 
HETATM   13  N   UNL     1       6.567  26.025  51.289  1.00  0.00    -0.359 N 
HETATM   14  H   UNL     1       6.955  26.965  51.287  1.00  0.00     0.162 HD
HETATM   15  O   UNL     1       4.557  24.926  51.266  1.00  0.00    -0.273 OA
BRANCH  13  16
HETATM   16  C   UNL     1       7.163  25.069  52.232  1.00  0.00     0.150 C 
BRANCH  16  17
HETATM   17  C   UNL     1       6.889  25.401  53.714  1.00  0.00     0.254 C 
BRANCH  17  18
HETATM   18  N   UNL     1       6.725  24.156  54.558  1.00  0.00    -0.070 N 
HETATM   19  H   UNL     1       5.718  23.958  54.663  1.00  0.00     0.279 HD
HETATM   20  C   UNL     1       7.312  24.246  55.962  1.00  0.00     0.235 C 
HETATM   21  C   UNL     1       8.482  23.283  55.950  1.00  0.00     0.029 C 
HETATM   22  C   UNL     1       7.994  22.167  55.054  1.00  0.00     0.029 C 
HETATM   23  C   UNL     1       7.335  22.911  53.909  1.00  0.00     0.235 C 
ENDBRANCH  17  18
ENDBRANCH  16  17
ENDBRANCH  13  16
ENDBRANCH  11  12
ENDBRANCH   6  11
BRANCH   7  24
HETATM   24  C   UNL     1       4.754  30.958  48.536  1.00  0.00    -0.030 A 
HETATM   25  C   UNL     1       4.636  31.822  47.429  1.00  0.00     0.011 A 
HETATM   26  C   UNL     1       5.528  32.887  47.243  1.00  0.00     0.024 A 
HETATM   27  C   UNL     1       6.537  33.125  48.170  1.00  0.00     0.034 A 
HETATM   28 CL   UNL     1       7.651  34.408  47.921  1.00  0.00    -0.084 Cl
HETATM   29  C   UNL     1       6.648  32.320  49.296  1.00  0.00     0.024 A 
HETATM   30  C   UNL     1       5.762  31.252  49.481  1.00  0.00     0.011 A 
ENDBRANCH   7  24
BRANCH  10  31
HETATM   31  C   UNL     1       1.975  29.656  47.008  1.00  0.00     0.294 C 
HETATM   32  O   UNL     1       1.626  30.471  46.179  1.00  0.00    -0.259 OA
BRANCH  31  33
HETATM   33  O   UNL     1       2.141  28.322  46.859  1.00  0.00    -0.314 OA
BRANCH  33  34
HETATM   34  C   UNL     1       1.093  27.554  47.469  1.00  0.00     0.206 C 
BRANCH  34  35
HETATM   35  C   UNL     1      -0.161  27.659  46.648  1.00  0.00    -0.011 C 
HETATM   36  C   UNL     1      -0.318  27.342  45.355  1.00  0.00     0.009 C 
ENDBRANCH  34  35
ENDBRANCH  33  34
ENDBRANCH  31  33
ENDBRANCH  10  31
TORSDOF 10
ENDMDL
MODEL 9
REMARK VINA RESULT:      -6.3      6.535     10.006
REMARK  10 active torsions:
REMARK  status: ('A' for Active; 'I' for Inactive)
REMARK    1  A    between atoms: C_6  and  C_7 
REMARK    2  A    between atoms: C_7  and  C_8 
REMARK       I    between atoms: C_8  and  N_9 
REMARK    3  A    between atoms: N_9  and  C_10 
REMARK    4  A    between atoms: C_10  and  C_11 
REMARK    5  A    between atoms: C_11  and  N_12 
REMARK    6  A    between atoms: C_19  and  C_20 
REMARK    7  A    between atoms: C_29  and  C_30 
REMARK    8  A    between atoms: C_30  and  O_31 
REMARK    9  A    between atoms: O_31  and  C_32 
REMARK   10  A    between atoms: C_32  and  C_33 
ROOT
HETATM    1  C   UNL     1       0.416  30.299  49.856  1.00  0.00     0.071 C 
HETATM    2  C   UNL     1       1.907  30.233  50.071  1.00  0.00     0.048 C 
HETATM    3  N   UNL     1       2.341  30.845  51.240  1.00  0.00    -0.229 NA
HETATM    4  C   UNL     1       3.503  30.503  51.681  1.00  0.00     0.170 C 
HETATM    5  N   UNL     1       4.411  29.487  50.945  1.00  0.00    -0.319 N 
HETATM    6  C   UNL     1       4.983  28.717  51.807  1.00  0.00     0.011 C 
HETATM    7  C   UNL     1       4.238  29.569  49.480  1.00  0.00     0.166 C 
HETATM    8  S   UNL     1       4.091  30.829  53.269  1.00  0.00    -0.086 SA
HETATM    9  C   UNL     1       5.067  29.285  53.217  1.00  0.00     0.135 C 
HETATM   10  C   UNL     1       2.762  29.606  49.234  1.00  0.00     0.069 C 
ENDROOT
BRANCH   6  11
HETATM   11  C   UNL     1       5.456  27.342  51.427  1.00  0.00     0.156 C 
BRANCH  11  12
HETATM   12  C   UNL     1       5.376  26.396  52.613  1.00  0.00     0.223 C 
HETATM   13  N   UNL     1       6.580  25.966  53.140  1.00  0.00    -0.359 N 
HETATM   14  H   UNL     1       7.371  26.600  53.060  1.00  0.00     0.162 HD
HETATM   15  O   UNL     1       4.297  25.931  52.959  1.00  0.00    -0.273 OA
BRANCH  13  16
HETATM   16  C   UNL     1       6.576  25.061  54.298  1.00  0.00     0.150 C 
BRANCH  16  17
HETATM   17  C   UNL     1       7.789  24.108  54.351  1.00  0.00     0.254 C 
BRANCH  17  18
HETATM   18  N   UNL     1       7.379  22.656  54.246  1.00  0.00    -0.070 N 
HETATM   19  H   UNL     1       6.349  22.603  54.240  1.00  0.00     0.279 HD
HETATM   20  C   UNL     1       7.867  21.764  55.382  1.00  0.00     0.235 C 
HETATM   21  C   UNL     1       8.878  20.839  54.736  1.00  0.00     0.029 C 
HETATM   22  C   UNL     1       8.298  20.611  53.358  1.00  0.00     0.029 C 
HETATM   23  C   UNL     1       7.844  21.997  52.945  1.00  0.00     0.235 C 
ENDBRANCH  17  18
ENDBRANCH  16  17
ENDBRANCH  13  16
ENDBRANCH  11  12
ENDBRANCH   6  11
BRANCH   7  24
HETATM   24  C   UNL     1       4.999  30.799  48.947  1.00  0.00    -0.030 A 
HETATM   25  C   UNL     1       6.075  31.348  49.674  1.00  0.00     0.011 A 
HETATM   26  C   UNL     1       6.708  32.526  49.252  1.00  0.00     0.024 A 
HETATM   27  C   UNL     1       6.298  33.161  48.084  1.00  0.00     0.034 A 
HETATM   28 CL   UNL     1       7.052  34.622  47.588  1.00  0.00    -0.084 Cl
HETATM   29  C   UNL     1       5.275  32.616  47.321  1.00  0.00     0.024 A 
HETATM   30  C   UNL     1       4.636  31.444  47.744  1.00  0.00     0.011 A 
ENDBRANCH   7  24
BRANCH  10  31
HETATM   31  C   UNL     1       2.317  28.862  48.048  1.00  0.00     0.294 C 
HETATM   32  O   UNL     1       2.415  29.270  46.910  1.00  0.00    -0.259 OA
BRANCH  31  33
HETATM   33  O   UNL     1       1.883  27.654  48.474  1.00  0.00    -0.314 OA
BRANCH  33  34
HETATM   34  C   UNL     1       2.178  26.593  47.552  1.00  0.00     0.206 C 
BRANCH  34  35
HETATM   35  C   UNL     1       3.097  25.597  48.200  1.00  0.00    -0.011 C 
HETATM   36  C   UNL     1       3.075  24.262  48.071  1.00  0.00     0.009 C 
ENDBRANCH  34  35
ENDBRANCH  33  34
ENDBRANCH  31  33
ENDBRANCH  10  31
TORSDOF 10
ENDMDL
MODEL 10
REMARK VINA RESULT:      -6.3      3.853      8.426
REMARK  10 active torsions:
REMARK  status: ('A' for Active; 'I' for Inactive)
REMARK    1  A    between atoms: C_6  and  C_7 
REMARK    2  A    between atoms: C_7  and  C_8 
REMARK       I    between atoms: C_8  and  N_9 
REMARK    3  A    between atoms: N_9  and  C_10 
REMARK    4  A    between atoms: C_10  and  C_11 
REMARK    5  A    between atoms: C_11  and  N_12 
REMARK    6  A    between atoms: C_19  and  C_20 
REMARK    7  A    between atoms: C_29  and  C_30 
REMARK    8  A    between atoms: C_30  and  O_31 
REMARK    9  A    between atoms: O_31  and  C_32 
REMARK   10  A    between atoms: C_32  and  C_33 
ROOT
HETATM    1  C   UNL     1       3.429  28.572  56.563  1.00  0.00     0.071 C 
HETATM    2  C   UNL     1       4.836  28.180  56.188  1.00  0.00     0.048 C 
HETATM    3  N   UNL     1       5.325  27.081  56.885  1.00  0.00    -0.229 NA
HETATM    4  C   UNL     1       6.328  26.460  56.365  1.00  0.00     0.170 C 
HETATM    5  N   UNL     1       7.002  26.915  55.048  1.00  0.00    -0.319 N 
HETATM    6  C   UNL     1       7.297  25.880  54.336  1.00  0.00     0.011 C 
HETATM    7  C   UNL     1       6.961  28.384  54.897  1.00  0.00     0.166 C 
HETATM    8  S   UNL     1       6.863  24.887  56.830  1.00  0.00    -0.086 SA
HETATM    9  C   UNL     1       7.419  24.580  55.116  1.00  0.00     0.135 C 
HETATM   10  C   UNL     1       5.564  28.802  55.235  1.00  0.00     0.069 C 
ENDROOT
BRANCH   6  11
HETATM   11  C   UNL     1       7.435  25.978  52.843  1.00  0.00     0.156 C 
BRANCH  11  12
HETATM   12  C   UNL     1       6.072  26.065  52.178  1.00  0.00     0.223 C 
HETATM   13  N   UNL     1       5.805  27.222  51.468  1.00  0.00    -0.359 N 
HETATM   14  H   UNL     1       6.598  27.696  51.044  1.00  0.00     0.162 HD
HETATM   15  O   UNL     1       5.219  25.216  52.406  1.00  0.00    -0.273 OA
BRANCH  13  16
HETATM   16  C   UNL     1       4.512  27.365  50.786  1.00  0.00     0.150 C 
BRANCH  16  17
HETATM   17  C   UNL     1       4.449  26.662  49.413  1.00  0.00     0.254 C 
BRANCH  17  18
HETATM   18  N   UNL     1       3.651  27.454  48.401  1.00  0.00    -0.070 N 
HETATM   19  H   UNL     1       4.265  28.169  47.982  1.00  0.00     0.279 HD
HETATM   20  C   UNL     1       2.436  28.183  48.965  1.00  0.00     0.235 C 
HETATM   21  C   UNL     1       1.246  27.468  48.359  1.00  0.00     0.029 C 
HETATM   22  C   UNL     1       1.738  27.099  46.977  1.00  0.00     0.029 C 
HETATM   23  C   UNL     1       3.145  26.598  47.239  1.00  0.00     0.235 C 
ENDBRANCH  17  18
ENDBRANCH  16  17
ENDBRANCH  13  16
ENDBRANCH  11  12
ENDBRANCH   6  11
BRANCH   7  24
HETATM   24  C   UNL     1       8.044  29.016  55.795  1.00  0.00    -0.030 A 
HETATM   25  C   UNL     1       7.715  29.520  57.070  1.00  0.00     0.011 A 
HETATM   26  C   UNL     1       8.667  30.188  57.852  1.00  0.00     0.024 A 
HETATM   27  C   UNL     1       9.970  30.341  57.390  1.00  0.00     0.034 A 
HETATM   28 CL   UNL     1      11.125  31.191  58.335  1.00  0.00    -0.084 Cl
HETATM   29  C   UNL     1      10.336  29.812  56.160  1.00  0.00     0.024 A 
HETATM   30  C   UNL     1       9.386  29.150  55.373  1.00  0.00     0.011 A 
ENDBRANCH   7  24
BRANCH  10  31
HETATM   31  C   UNL     1       5.033  29.896  54.412  1.00  0.00     0.294 C 
HETATM   32  O   UNL     1       4.583  29.753  53.295  1.00  0.00    -0.259 OA
BRANCH  31  33
HETATM   33  O   UNL     1       5.070  31.017  55.167  1.00  0.00    -0.314 OA
BRANCH  33  34
HETATM   34  C   UNL     1       3.922  31.860  54.980  1.00  0.00     0.206 C 
BRANCH  34  35
HETATM   35  C   UNL     1       4.364  33.264  54.682  1.00  0.00    -0.011 C 
HETATM   36  C   UNL     1       4.996  33.706  53.585  1.00  0.00     0.009 C 
ENDBRANCH  34  35
ENDBRANCH  33  34
ENDBRANCH  31  33
ENDBRANCH  10  31
TORSDOF 10
ENDMDL
