MODEL 1
REMARK VINA RESULT:      -8.9      0.000      0.000
REMARK  4 active torsions:
REMARK  status: ('A' for Active; 'I' for Inactive)
REMARK    1  A    between atoms: C_6  and  C_7 
REMARK    2  A    between atoms: C_7  and  C_8 
REMARK    3  A    between atoms: N_10  and  C_11 
REMARK    4  A    between atoms: C_19  and  C_20 
ROOT
HETATM    1  C   UNL     1       7.261  25.342  56.516  1.00  0.00     0.149 A 
HETATM    2  N   UNL     1       8.121  26.128  57.158  1.00  0.00    -0.150 NA
HETATM    3  N   UNL     1       7.837  27.367  56.676  1.00  0.00    -0.218 N 
HETATM    4  C   UNL     1       6.904  27.233  55.645  1.00  0.00     0.136 A 
HETATM    5  N   UNL     1       6.492  25.976  55.583  1.00  0.00    -0.216 NA
ENDROOT
BRANCH   1   6
HETATM    6  C   UNL     1       7.212  23.873  56.758  1.00  0.00     0.087 C 
BRANCH   6   7
HETATM    7  C   UNL     1       8.567  23.153  56.568  1.00  0.00    -0.004 C 
HETATM    8  C   UNL     1       9.235  23.402  55.203  1.00  0.00     0.032 C 
HETATM    9  C   UNL     1       8.506  22.726  54.048  1.00  0.00     0.234 C 
HETATM   10  N   UNL     1       8.412  21.245  54.324  1.00  0.00    -0.075 N 
HETATM   11  C   UNL     1       7.795  20.505  53.163  1.00  0.00     0.269 C 
HETATM   12  H   UNL     1       9.374  20.885  54.401  1.00  0.00     0.279 HD
HETATM   13  C   UNL     1       7.709  20.928  55.619  1.00  0.00     0.234 C 
HETATM   14  C   UNL     1       8.416  21.634  56.776  1.00  0.00     0.032 C 
ENDBRANCH   6   7
ENDBRANCH   1   6
BRANCH   3  15
HETATM   15  C   UNL     1       8.468  28.508  57.247  1.00  0.00     0.062 A 
HETATM   16  C   UNL     1       7.923  29.189  58.342  1.00  0.00     0.058 A 
HETATM   17  C   UNL     1       8.582  30.307  58.871  1.00  0.00     0.074 A 
HETATM   18 CL   UNL     1       7.883  31.122  60.216  1.00  0.00    -0.081 Cl
HETATM   19  C   UNL     1       9.783  30.740  58.320  1.00  0.00     0.138 A 
HETATM   20  F   UNL     1      10.421  31.809  58.815  1.00  0.00    -0.204 F 
HETATM   21  C   UNL     1      10.347  30.059  57.248  1.00  0.00     0.046 A 
HETATM   22  C   UNL     1       9.698  28.940  56.717  1.00  0.00     0.035 A 
ENDBRANCH   3  15
BRANCH   4  23
HETATM   23  C   UNL     1       6.510  28.287  54.647  1.00  0.00     0.084 C 
HETATM   24  C   UNL     1       5.633  27.697  53.540  1.00  0.00     0.244 C 
HETATM   25  N   UNL     1       4.279  27.607  54.178  1.00  0.00    -0.074 N 
HETATM   26  H   UNL     1       3.509  27.607  53.493  1.00  0.00     0.277 HD
HETATM   27  H   UNL     1       4.241  26.707  54.686  1.00  0.00     0.277 HD
HETATM   28  C   UNL     1       4.173  28.710  55.186  1.00  0.00     0.233 C 
HETATM   29  C   UNL     1       5.568  29.322  55.258  1.00  0.00     0.041 C 
ENDBRANCH   4  23
TORSDOF 4
ENDMDL
MODEL 2
REMARK VINA RESULT:      -8.8      4.017      7.536
REMARK  4 active torsions:
REMARK  status: ('A' for Active; 'I' for Inactive)
REMARK    1  A    between atoms: C_6  and  C_7 
REMARK    2  A    between atoms: C_7  and  C_8 
REMARK    3  A    between atoms: N_10  and  C_11 
REMARK    4  A    between atoms: C_19  and  C_20 
ROOT
HETATM    1  C   UNL     1       7.432  26.589  56.114  1.00  0.00     0.149 A 
HETATM    2  N   UNL     1       7.695  25.334  56.470  1.00  0.00    -0.150 NA
HETATM    3  N   UNL     1       7.492  24.632  55.324  1.00  0.00    -0.218 N 
HETATM    4  C   UNL     1       6.965  25.500  54.365  1.00  0.00     0.136 A 
HETATM    5  N   UNL     1       6.986  26.739  54.833  1.00  0.00    -0.216 NA
ENDROOT
BRANCH   1   6
HETATM    6  C   UNL     1       7.548  27.717  57.080  1.00  0.00     0.087 C 
BRANCH   6   7
HETATM    7  C   UNL     1       7.740  29.102  56.420  1.00  0.00    -0.004 C 
HETATM    8  C   UNL     1       9.200  29.586  56.368  1.00  0.00     0.032 C 
HETATM    9  C   UNL     1       9.755  29.959  57.738  1.00  0.00     0.234 C 
HETATM   10  N   UNL     1       8.873  31.017  58.356  1.00  0.00    -0.075 N 
HETATM   11  C   UNL     1       9.433  31.505  59.669  1.00  0.00     0.269 C 
HETATM   12  H   UNL     1       8.887  31.834  57.729  1.00  0.00     0.279 HD
HETATM   13  C   UNL     1       7.437  30.581  58.495  1.00  0.00     0.234 C 
HETATM   14  C   UNL     1       6.887  30.172  57.129  1.00  0.00     0.032 C 
ENDBRANCH   6   7
ENDBRANCH   1   6
BRANCH   3  15
HETATM   15  C   UNL     1       7.821  23.248  55.277  1.00  0.00     0.062 A 
HETATM   16  C   UNL     1       7.914  22.547  54.069  1.00  0.00     0.058 A 
HETATM   17  C   UNL     1       8.243  21.184  54.072  1.00  0.00     0.074 A 
HETATM   18 CL   UNL     1       8.346  20.352  52.570  1.00  0.00    -0.081 Cl
HETATM   19  C   UNL     1       8.490  20.525  55.272  1.00  0.00     0.138 A 
HETATM   20  F   UNL     1       8.804  19.223  55.288  1.00  0.00    -0.204 F 
HETATM   21  C   UNL     1       8.426  21.215  56.476  1.00  0.00     0.046 A 
HETATM   22  C   UNL     1       8.101  22.575  56.481  1.00  0.00     0.035 A 
ENDBRANCH   3  15
BRANCH   4  23
HETATM   23  C   UNL     1       6.332  25.117  53.056  1.00  0.00     0.084 C 
HETATM   24  C   UNL     1       4.831  24.872  53.221  1.00  0.00     0.244 C 
HETATM   25  N   UNL     1       4.252  26.254  53.246  1.00  0.00    -0.074 N 
HETATM   26  H   UNL     1       3.262  26.283  52.963  1.00  0.00     0.277 HD
HETATM   27  H   UNL     1       4.303  26.588  54.224  1.00  0.00     0.277 HD
HETATM   28  C   UNL     1       5.131  27.135  52.413  1.00  0.00     0.233 C 
HETATM   29  C   UNL     1       6.341  26.275  52.062  1.00  0.00     0.041 C 
ENDBRANCH   4  23
TORSDOF 4
ENDMDL
MODEL 3
REMARK VINA RESULT:      -8.7      3.859      7.303
REMARK  4 active torsions:
REMARK  status: ('A' for Active; 'I' for Inactive)
REMARK    1  A    between atoms: C_6  and  C_7 
REMARK    2  A    between atoms: C_7  and  C_8 
REMARK    3  A    between atoms: N_10  and  C_11 
REMARK    4  A    between atoms: C_19  and  C_20 
ROOT
HETATM    1  C   UNL     1       7.659  27.264  55.151  1.00  0.00     0.149 A 
HETATM    2  N   UNL     1       7.882  25.990  55.465  1.00  0.00    -0.150 NA
HETATM    3  N   UNL     1       7.473  25.316  54.357  1.00  0.00    -0.218 N 
HETATM    4  C   UNL     1       6.880  26.229  53.482  1.00  0.00     0.136 A 
HETATM    5  N   UNL     1       7.052  27.459  53.945  1.00  0.00    -0.216 NA
ENDROOT
BRANCH   1   6
HETATM    6  C   UNL     1       7.985  28.371  56.093  1.00  0.00     0.087 C 
BRANCH   6   7
HETATM    7  C   UNL     1       7.330  28.233  57.486  1.00  0.00    -0.004 C 
HETATM    8  C   UNL     1       5.793  28.335  57.481  1.00  0.00     0.032 C 
HETATM    9  C   UNL     1       5.289  29.742  57.180  1.00  0.00     0.234 C 
HETATM   10  N   UNL     1       5.876  30.701  58.188  1.00  0.00    -0.075 N 
HETATM   11  C   UNL     1       5.327  32.095  58.008  1.00  0.00     0.269 C 
HETATM   12  H   UNL     1       5.560  30.398  59.121  1.00  0.00     0.279 HD
HETATM   13  C   UNL     1       7.383  30.697  58.200  1.00  0.00     0.234 C 
HETATM   14  C   UNL     1       7.893  29.282  58.465  1.00  0.00     0.032 C 
ENDBRANCH   6   7
ENDBRANCH   1   6
BRANCH   3  15
HETATM   15  C   UNL     1       7.696  23.914  54.263  1.00  0.00     0.062 A 
HETATM   16  C   UNL     1       7.688  23.082  55.389  1.00  0.00     0.058 A 
HETATM   17  C   UNL     1       7.912  21.706  55.245  1.00  0.00     0.074 A 
HETATM   18 CL   UNL     1       7.898  20.712  56.651  1.00  0.00    -0.081 Cl
HETATM   19  C   UNL     1       8.131  21.158  53.986  1.00  0.00     0.138 A 
HETATM   20  F   UNL     1       8.349  19.844  53.837  1.00  0.00    -0.204 F 
HETATM   21  C   UNL     1       8.118  21.968  52.858  1.00  0.00     0.046 A 
HETATM   22  C   UNL     1       7.892  23.342  52.992  1.00  0.00     0.035 A 
ENDBRANCH   3  15
BRANCH   4  23
HETATM   23  C   UNL     1       6.047  25.905  52.273  1.00  0.00     0.084 C 
HETATM   24  C   UNL     1       4.688  25.331  52.679  1.00  0.00     0.244 C 
HETATM   25  N   UNL     1       3.896  26.545  53.061  1.00  0.00    -0.074 N 
HETATM   26  H   UNL     1       2.878  26.404  52.984  1.00  0.00     0.277 HD
HETATM   27  H   UNL     1       4.106  26.745  54.053  1.00  0.00     0.277 HD
HETATM   28  C   UNL     1       4.397  27.696  52.243  1.00  0.00     0.233 C 
HETATM   29  C   UNL     1       5.630  27.164  51.518  1.00  0.00     0.041 C 
ENDBRANCH   4  23
TORSDOF 4
ENDMDL
MODEL 4
REMARK VINA RESULT:      -8.2      4.785      7.985
REMARK  4 active torsions:
REMARK  status: ('A' for Active; 'I' for Inactive)
REMARK    1  A    between atoms: C_6  and  C_7 
REMARK    2  A    between atoms: C_7  and  C_8 
REMARK    3  A    between atoms: N_10  and  C_11 
REMARK    4  A    between atoms: C_19  and  C_20 
ROOT
HETATM    1  C   UNL     1       5.628  26.195  51.818  1.00  0.00     0.149 A 
HETATM    2  N   UNL     1       6.071  24.951  51.982  1.00  0.00    -0.150 NA
HETATM    3  N   UNL     1       6.624  24.974  53.224  1.00  0.00    -0.218 N 
HETATM    4  C   UNL     1       6.612  26.293  53.685  1.00  0.00     0.136 A 
HETATM    5  N   UNL     1       5.932  27.051  52.837  1.00  0.00    -0.216 NA
ENDROOT
BRANCH   1   6
HETATM    6  C   UNL     1       4.925  26.617  50.574  1.00  0.00     0.087 C 
BRANCH   6   7
HETATM    7  C   UNL     1       5.059  28.122  50.248  1.00  0.00    -0.004 C 
HETATM    8  C   UNL     1       3.778  28.942  50.484  1.00  0.00     0.032 C 
HETATM    9  C   UNL     1       2.677  28.635  49.476  1.00  0.00     0.234 C 
HETATM   10  N   UNL     1       3.205  28.875  48.081  1.00  0.00    -0.075 N 
HETATM   11  C   UNL     1       2.126  28.691  47.043  1.00  0.00     0.269 C 
HETATM   12  H   UNL     1       3.479  29.867  48.023  1.00  0.00     0.279 HD
HETATM   13  C   UNL     1       4.427  28.052  47.762  1.00  0.00     0.234 C 
HETATM   14  C   UNL     1       5.520  28.330  48.792  1.00  0.00     0.032 C 
ENDBRANCH   6   7
ENDBRANCH   1   6
BRANCH   3  15
HETATM   15  C   UNL     1       7.081  23.764  53.816  1.00  0.00     0.062 A 
HETATM   16  C   UNL     1       7.563  22.697  53.048  1.00  0.00     0.058 A 
HETATM   17  C   UNL     1       8.004  21.524  53.676  1.00  0.00     0.074 A 
HETATM   18 CL   UNL     1       8.587  20.230  52.701  1.00  0.00    -0.081 Cl
HETATM   19  C   UNL     1       7.977  21.417  55.062  1.00  0.00     0.138 A 
HETATM   20  F   UNL     1       8.394  20.300  55.674  1.00  0.00    -0.204 F 
HETATM   21  C   UNL     1       7.525  22.477  55.837  1.00  0.00     0.046 A 
HETATM   22  C   UNL     1       7.086  23.652  55.218  1.00  0.00     0.035 A 
ENDBRANCH   3  15
BRANCH   4  23
HETATM   23  C   UNL     1       7.359  26.838  54.871  1.00  0.00     0.084 C 
HETATM   24  C   UNL     1       7.854  28.261  54.604  1.00  0.00     0.244 C 
HETATM   25  N   UNL     1       6.633  29.103  54.820  1.00  0.00    -0.074 N 
HETATM   26  H   UNL     1       6.853  30.079  55.065  1.00  0.00     0.277 HD
HETATM   27  H   UNL     1       6.112  29.118  53.927  1.00  0.00     0.277 HD
HETATM   28  C   UNL     1       5.777  28.417  55.840  1.00  0.00     0.233 C 
HETATM   29  C   UNL     1       6.436  27.059  56.068  1.00  0.00     0.041 C 
ENDBRANCH   4  23
TORSDOF 4
ENDMDL
MODEL 5
REMARK VINA RESULT:      -8.2      4.349      7.721
REMARK  4 active torsions:
REMARK  status: ('A' for Active; 'I' for Inactive)
REMARK    1  A    between atoms: C_6  and  C_7 
REMARK    2  A    between atoms: C_7  and  C_8 
REMARK    3  A    between atoms: N_10  and  C_11 
REMARK    4  A    between atoms: C_19  and  C_20 
ROOT
HETATM    1  C   UNL     1       5.399  25.740  52.645  1.00  0.00     0.149 A 
HETATM    2  N   UNL     1       5.971  24.544  52.531  1.00  0.00    -0.150 NA
HETATM    3  N   UNL     1       6.664  24.414  53.694  1.00  0.00    -0.218 N 
HETATM    4  C   UNL     1       6.586  25.623  54.389  1.00  0.00     0.136 A 
HETATM    5  N   UNL     1       5.743  26.435  53.768  1.00  0.00    -0.216 NA
ENDROOT
BRANCH   1   6
HETATM    6  C   UNL     1       4.516  26.290  51.579  1.00  0.00     0.087 C 
BRANCH   6   7
HETATM    7  C   UNL     1       5.273  26.972  50.416  1.00  0.00    -0.004 C 
HETATM    8  C   UNL     1       5.339  28.507  50.513  1.00  0.00     0.032 C 
HETATM    9  C   UNL     1       3.993  29.180  50.273  1.00  0.00     0.234 C 
HETATM   10  N   UNL     1       3.466  28.761  48.922  1.00  0.00    -0.075 N 
HETATM   11  C   UNL     1       2.184  29.480  48.581  1.00  0.00     0.269 C 
HETATM   12  H   UNL     1       4.151  29.068  48.216  1.00  0.00     0.279 HD
HETATM   13  C   UNL     1       3.316  27.268  48.783  1.00  0.00     0.234 C 
HETATM   14  C   UNL     1       4.656  26.587  49.058  1.00  0.00     0.032 C 
ENDBRANCH   6   7
ENDBRANCH   1   6
BRANCH   3  15
HETATM   15  C   UNL     1       7.298  23.178  54.002  1.00  0.00     0.062 A 
HETATM   16  C   UNL     1       7.462  22.734  55.319  1.00  0.00     0.058 A 
HETATM   17  C   UNL     1       8.092  21.508  55.574  1.00  0.00     0.074 A 
HETATM   18 CL   UNL     1       8.280  20.995  57.205  1.00  0.00    -0.081 Cl
HETATM   19  C   UNL     1       8.548  20.721  54.521  1.00  0.00     0.138 A 
HETATM   20  F   UNL     1       9.154  19.549  54.751  1.00  0.00    -0.204 F 
HETATM   21  C   UNL     1       8.370  21.138  53.208  1.00  0.00     0.046 A 
HETATM   22  C   UNL     1       7.739  22.358  52.946  1.00  0.00     0.035 A 
ENDBRANCH   3  15
BRANCH   4  23
HETATM   23  C   UNL     1       7.416  26.034  55.574  1.00  0.00     0.084 C 
HETATM   24  C   UNL     1       7.686  27.540  55.560  1.00  0.00     0.244 C 
HETATM   25  N   UNL     1       6.411  28.129  56.084  1.00  0.00    -0.074 N 
HETATM   26  H   UNL     1       6.538  29.060  56.504  1.00  0.00     0.277 HD
HETATM   27  H   UNL     1       5.772  28.237  55.278  1.00  0.00     0.277 HD
HETATM   28  C   UNL     1       5.799  27.136  57.024  1.00  0.00     0.233 C 
HETATM   29  C   UNL     1       6.649  25.876  56.885  1.00  0.00     0.041 C 
ENDBRANCH   4  23
TORSDOF 4
ENDMDL
MODEL 6
REMARK VINA RESULT:      -7.9      5.754      9.823
REMARK  4 active torsions:
REMARK  status: ('A' for Active; 'I' for Inactive)
REMARK    1  A    between atoms: C_6  and  C_7 
REMARK    2  A    between atoms: C_7  and  C_8 
REMARK    3  A    between atoms: N_10  and  C_11 
REMARK    4  A    between atoms: C_19  and  C_20 
ROOT
HETATM    1  C   UNL     1       6.694  32.182  61.897  1.00  0.00     0.149 A 
HETATM    2  N   UNL     1       7.630  31.389  61.382  1.00  0.00    -0.150 NA
HETATM    3  N   UNL     1       7.447  31.515  60.041  1.00  0.00    -0.218 N 
HETATM    4  C   UNL     1       6.296  32.275  59.825  1.00  0.00     0.136 A 
HETATM    5  N   UNL     1       5.856  32.749  60.981  1.00  0.00    -0.216 NA
ENDROOT
BRANCH   1   6
HETATM    6  C   UNL     1       6.542  32.359  63.368  1.00  0.00     0.087 C 
BRANCH   6   7
HETATM    7  C   UNL     1       7.061  33.714  63.902  1.00  0.00    -0.004 C 
HETATM    8  C   UNL     1       7.088  33.827  65.437  1.00  0.00     0.032 C 
HETATM    9  C   UNL     1       5.697  33.909  66.054  1.00  0.00     0.234 C 
HETATM   10  N   UNL     1       4.960  35.083  65.454  1.00  0.00    -0.075 N 
HETATM   11  C   UNL     1       3.614  35.281  66.105  1.00  0.00     0.269 C 
HETATM   12  H   UNL     1       5.502  35.931  65.674  1.00  0.00     0.279 HD
HETATM   13  C   UNL     1       4.842  35.002  63.953  1.00  0.00     0.234 C 
HETATM   14  C   UNL     1       6.234  34.883  63.333  1.00  0.00     0.032 C 
ENDBRANCH   6   7
ENDBRANCH   1   6
BRANCH   3  15
HETATM   15  C   UNL     1       8.375  30.915  59.143  1.00  0.00     0.062 A 
HETATM   16  C   UNL     1       8.137  29.669  58.551  1.00  0.00     0.058 A 
HETATM   17  C   UNL     1       9.079  29.119  57.672  1.00  0.00     0.074 A 
HETATM   18 CL   UNL     1       8.757  27.583  56.965  1.00  0.00    -0.081 Cl
HETATM   19  C   UNL     1      10.248  29.811  57.373  1.00  0.00     0.138 A 
HETATM   20  F   UNL     1      11.157  29.295  56.535  1.00  0.00    -0.204 F 
HETATM   21  C   UNL     1      10.485  31.060  57.934  1.00  0.00     0.046 A 
HETATM   22  C   UNL     1       9.548  31.617  58.810  1.00  0.00     0.035 A 
ENDBRANCH   3  15
BRANCH   4  23
HETATM   23  C   UNL     1       5.556  32.437  58.525  1.00  0.00     0.084 C 
HETATM   24  C   UNL     1       4.791  31.162  58.164  1.00  0.00     0.244 C 
HETATM   25  N   UNL     1       3.564  31.235  59.023  1.00  0.00    -0.074 N 
HETATM   26  H   UNL     1       2.774  30.693  58.646  1.00  0.00     0.277 HD
HETATM   27  H   UNL     1       3.810  30.827  59.940  1.00  0.00     0.277 HD
HETATM   28  C   UNL     1       3.239  32.682  59.236  1.00  0.00     0.233 C 
HETATM   29  C   UNL     1       4.418  33.448  58.643  1.00  0.00     0.041 C 
ENDBRANCH   4  23
TORSDOF 4
ENDMDL
MODEL 7
REMARK VINA RESULT:      -7.8      1.792      2.501
REMARK  4 active torsions:
REMARK  status: ('A' for Active; 'I' for Inactive)
REMARK    1  A    between atoms: C_6  and  C_7 
REMARK    2  A    between atoms: C_7  and  C_8 
REMARK    3  A    between atoms: N_10  and  C_11 
REMARK    4  A    between atoms: C_19  and  C_20 
ROOT
HETATM    1  C   UNL     1       6.356  25.742  54.609  1.00  0.00     0.149 A 
HETATM    2  N   UNL     1       6.824  26.452  55.632  1.00  0.00    -0.150 NA
HETATM    3  N   UNL     1       6.386  27.711  55.369  1.00  0.00    -0.218 N 
HETATM    4  C   UNL     1       5.793  27.714  54.104  1.00  0.00     0.136 A 
HETATM    5  N   UNL     1       5.714  26.472  53.651  1.00  0.00    -0.216 NA
ENDROOT
BRANCH   1   6
HETATM    6  C   UNL     1       6.594  24.275  54.500  1.00  0.00     0.087 C 
BRANCH   6   7
HETATM    7  C   UNL     1       8.059  23.891  54.191  1.00  0.00    -0.004 C 
HETATM    8  C   UNL     1       8.216  22.664  53.274  1.00  0.00     0.032 C 
HETATM    9  C   UNL     1       7.824  21.357  53.952  1.00  0.00     0.234 C 
HETATM   10  N   UNL     1       8.649  21.185  55.205  1.00  0.00    -0.075 N 
HETATM   11  C   UNL     1       8.382  19.854  55.864  1.00  0.00     0.269 C 
HETATM   12  H   UNL     1       9.638  21.158  54.920  1.00  0.00     0.279 HD
HETATM   13  C   UNL     1       8.491  22.325  56.178  1.00  0.00     0.234 C 
HETATM   14  C   UNL     1       8.849  23.642  55.491  1.00  0.00     0.032 C 
ENDBRANCH   6   7
ENDBRANCH   1   6
BRANCH   3  15
HETATM   15  C   UNL     1       6.573  28.739  56.335  1.00  0.00     0.062 A 
HETATM   16  C   UNL     1       7.844  29.110  56.791  1.00  0.00     0.058 A 
HETATM   17  C   UNL     1       7.978  30.130  57.742  1.00  0.00     0.074 A 
HETATM   18 CL   UNL     1       9.555  30.557  58.283  1.00  0.00    -0.081 Cl
HETATM   19  C   UNL     1       6.853  30.787  58.230  1.00  0.00     0.138 A 
HETATM   20  F   UNL     1       6.969  31.762  59.142  1.00  0.00    -0.204 F 
HETATM   21  C   UNL     1       5.588  30.446  57.769  1.00  0.00     0.046 A 
HETATM   22  C   UNL     1       5.446  29.432  56.817  1.00  0.00     0.035 A 
ENDBRANCH   3  15
BRANCH   4  23
HETATM   23  C   UNL     1       5.421  28.922  53.288  1.00  0.00     0.084 C 
HETATM   24  C   UNL     1       5.352  28.579  51.798  1.00  0.00     0.244 C 
HETATM   25  N   UNL     1       4.019  27.909  51.655  1.00  0.00    -0.074 N 
HETATM   26  H   UNL     1       3.640  27.963  50.699  1.00  0.00     0.277 HD
HETATM   27  H   UNL     1       4.156  26.908  51.877  1.00  0.00     0.277 HD
HETATM   28  C   UNL     1       3.101  28.487  52.687  1.00  0.00     0.233 C 
HETATM   29  C   UNL     1       3.987  29.370  53.562  1.00  0.00     0.041 C 
ENDBRANCH   4  23
TORSDOF 4
ENDMDL
MODEL 8
REMARK VINA RESULT:      -7.7      4.748      6.503
REMARK  4 active torsions:
REMARK  status: ('A' for Active; 'I' for Inactive)
REMARK    1  A    between atoms: C_6  and  C_7 
REMARK    2  A    between atoms: C_7  and  C_8 
REMARK    3  A    between atoms: N_10  and  C_11 
REMARK    4  A    between atoms: C_19  and  C_20 
ROOT
HETATM    1  C   UNL     1       5.388  26.207  51.601  1.00  0.00     0.149 A 
HETATM    2  N   UNL     1       5.691  27.487  51.803  1.00  0.00    -0.150 NA
HETATM    3  N   UNL     1       5.186  28.109  50.705  1.00  0.00    -0.218 N 
HETATM    4  C   UNL     1       4.729  27.131  49.819  1.00  0.00     0.136 A 
HETATM    5  N   UNL     1       4.794  25.942  50.401  1.00  0.00    -0.216 NA
ENDROOT
BRANCH   1   6
HETATM    6  C   UNL     1       5.748  25.151  52.588  1.00  0.00     0.087 C 
BRANCH   6   7
HETATM    7  C   UNL     1       7.238  25.152  53.003  1.00  0.00    -0.004 C 
HETATM    8  C   UNL     1       8.051  23.964  52.457  1.00  0.00     0.032 C 
HETATM    9  C   UNL     1       7.681  22.637  53.108  1.00  0.00     0.234 C 
HETATM   10  N   UNL     1       7.861  22.754  54.603  1.00  0.00    -0.075 N 
HETATM   11  C   UNL     1       7.613  21.436  55.295  1.00  0.00     0.269 C 
HETATM   12  H   UNL     1       8.852  22.975  54.777  1.00  0.00     0.279 HD
HETATM   13  C   UNL     1       7.039  23.861  55.212  1.00  0.00     0.234 C 
HETATM   14  C   UNL     1       7.382  25.189  54.536  1.00  0.00     0.032 C 
ENDBRANCH   6   7
ENDBRANCH   1   6
BRANCH   3  15
HETATM   15  C   UNL     1       5.191  29.530  50.634  1.00  0.00     0.062 A 
HETATM   16  C   UNL     1       4.439  30.321  51.511  1.00  0.00     0.058 A 
HETATM   17  C   UNL     1       4.478  31.718  51.404  1.00  0.00     0.074 A 
HETATM   18 CL   UNL     1       3.539  32.660  52.497  1.00  0.00    -0.081 Cl
HETATM   19  C   UNL     1       5.269  32.326  50.435  1.00  0.00     0.138 A 
HETATM   20  F   UNL     1       5.313  33.660  50.321  1.00  0.00    -0.204 F 
HETATM   21  C   UNL     1       6.039  31.553  49.574  1.00  0.00     0.046 A 
HETATM   22  C   UNL     1       6.008  30.159  49.678  1.00  0.00     0.035 A 
ENDBRANCH   3  15
BRANCH   4  23
HETATM   23  C   UNL     1       4.351  27.330  48.376  1.00  0.00     0.084 C 
HETATM   24  C   UNL     1       3.835  26.029  47.758  1.00  0.00     0.244 C 
HETATM   25  N   UNL     1       2.423  25.943  48.252  1.00  0.00    -0.074 N 
HETATM   26  H   UNL     1       1.817  25.370  47.648  1.00  0.00     0.277 HD
HETATM   27  H   UNL     1       2.452  25.488  49.181  1.00  0.00     0.277 HD
HETATM   28  C   UNL     1       1.917  27.340  48.441  1.00  0.00     0.233 C 
HETATM   29  C   UNL     1       3.132  28.238  48.231  1.00  0.00     0.041 C 
ENDBRANCH   4  23
TORSDOF 4
ENDMDL
MODEL 9
REMARK VINA RESULT:      -7.6      4.318      6.314
REMARK  4 active torsions:
REMARK  status: ('A' for Active; 'I' for Inactive)
REMARK    1  A    between atoms: C_6  and  C_7 
REMARK    2  A    between atoms: C_7  and  C_8 
REMARK    3  A    between atoms: N_10  and  C_11 
REMARK    4  A    between atoms: C_19  and  C_20 
ROOT
HETATM    1  C   UNL     1       6.229  25.049  53.015  1.00  0.00     0.149 A 
HETATM    2  N   UNL     1       5.770  25.319  51.796  1.00  0.00    -0.150 NA
HETATM    3  N   UNL     1       5.640  26.672  51.800  1.00  0.00    -0.218 N 
HETATM    4  C   UNL     1       5.894  27.134  53.094  1.00  0.00     0.136 A 
HETATM    5  N   UNL     1       6.326  26.130  53.843  1.00  0.00    -0.216 NA
ENDROOT
BRANCH   1   6
HETATM    6  C   UNL     1       6.535  23.656  53.446  1.00  0.00     0.087 C 
BRANCH   6   7
HETATM    7  C   UNL     1       8.036  23.291  53.398  1.00  0.00    -0.004 C 
HETATM    8  C   UNL     1       8.327  21.847  52.949  1.00  0.00     0.032 C 
HETATM    9  C   UNL     1       7.920  20.807  53.985  1.00  0.00     0.234 C 
HETATM   10  N   UNL     1       8.625  21.104  55.287  1.00  0.00    -0.075 N 
HETATM   11  C   UNL     1       8.345  20.043  56.322  1.00  0.00     0.269 C 
HETATM   12  H   UNL     1       9.638  21.053  55.106  1.00  0.00     0.279 HD
HETATM   13  C   UNL     1       8.331  22.484  55.816  1.00  0.00     0.234 C 
HETATM   14  C   UNL     1       8.704  23.530  54.766  1.00  0.00     0.032 C 
ENDBRANCH   6   7
ENDBRANCH   1   6
BRANCH   3  15
HETATM   15  C   UNL     1       5.303  27.352  50.596  1.00  0.00     0.062 A 
HETATM   16  C   UNL     1       5.556  28.717  50.417  1.00  0.00     0.058 A 
HETATM   17  C   UNL     1       5.208  29.343  49.212  1.00  0.00     0.074 A 
HETATM   18 CL   UNL     1       5.531  31.024  49.028  1.00  0.00    -0.081 Cl
HETATM   19  C   UNL     1       4.622  28.612  48.185  1.00  0.00     0.138 A 
HETATM   20  F   UNL     1       4.283  29.199  47.030  1.00  0.00    -0.204 F 
HETATM   21  C   UNL     1       4.388  27.251  48.340  1.00  0.00     0.046 A 
HETATM   22  C   UNL     1       4.735  26.619  49.538  1.00  0.00     0.035 A 
ENDBRANCH   3  15
BRANCH   4  23
HETATM   23  C   UNL     1       5.601  28.507  53.632  1.00  0.00     0.084 C 
HETATM   24  C   UNL     1       4.125  28.647  54.011  1.00  0.00     0.244 C 
HETATM   25  N   UNL     1       4.039  27.964  55.343  1.00  0.00    -0.074 N 
HETATM   26  H   UNL     1       3.246  28.289  55.914  1.00  0.00     0.277 HD
HETATM   27  H   UNL     1       3.896  26.956  55.159  1.00  0.00     0.277 HD
HETATM   28  C   UNL     1       5.363  28.122  56.025  1.00  0.00     0.233 C 
HETATM   29  C   UNL     1       6.282  28.745  54.978  1.00  0.00     0.041 C 
ENDBRANCH   4  23
TORSDOF 4
ENDMDL
MODEL 10
REMARK VINA RESULT:      -7.4      3.983      5.692
REMARK  4 active torsions:
REMARK  status: ('A' for Active; 'I' for Inactive)
REMARK    1  A    between atoms: C_6  and  C_7 
REMARK    2  A    between atoms: C_7  and  C_8 
REMARK    3  A    between atoms: N_10  and  C_11 
REMARK    4  A    between atoms: C_19  and  C_20 
ROOT
HETATM    1  C   UNL     1       5.680  26.211  54.680  1.00  0.00     0.149 A 
HETATM    2  N   UNL     1       5.264  26.471  53.443  1.00  0.00    -0.150 NA
HETATM    3  N   UNL     1       4.959  27.795  53.484  1.00  0.00    -0.218 N 
HETATM    4  C   UNL     1       5.072  28.230  54.807  1.00  0.00     0.136 A 
HETATM    5  N   UNL     1       5.585  27.260  55.548  1.00  0.00    -0.216 NA
ENDROOT
BRANCH   1   6
HETATM    6  C   UNL     1       6.137  24.851  55.083  1.00  0.00     0.087 C 
BRANCH   6   7
HETATM    7  C   UNL     1       7.655  24.616  54.914  1.00  0.00    -0.004 C 
HETATM    8  C   UNL     1       8.111  24.414  53.457  1.00  0.00     0.032 C 
HETATM    9  C   UNL     1       7.653  23.086  52.866  1.00  0.00     0.234 C 
HETATM   10  N   UNL     1       8.160  21.960  53.735  1.00  0.00    -0.075 N 
HETATM   11  C   UNL     1       7.830  20.613  53.141  1.00  0.00     0.269 C 
HETATM   12  H   UNL     1       9.188  22.015  53.741  1.00  0.00     0.279 HD
HETATM   13  C   UNL     1       7.695  22.063  55.165  1.00  0.00     0.234 C 
HETATM   14  C   UNL     1       8.121  23.408  55.750  1.00  0.00     0.032 C 
ENDBRANCH   6   7
ENDBRANCH   1   6
BRANCH   3  15
HETATM   15  C   UNL     1       4.611  28.476  52.284  1.00  0.00     0.062 A 
HETATM   16  C   UNL     1       3.279  28.679  51.905  1.00  0.00     0.058 A 
HETATM   17  C   UNL     1       2.984  29.358  50.714  1.00  0.00     0.074 A 
HETATM   18 CL   UNL     1       1.336  29.587  50.276  1.00  0.00    -0.081 Cl
HETATM   19  C   UNL     1       4.011  29.842  49.910  1.00  0.00     0.138 A 
HETATM   20  F   UNL     1       3.742  30.490  48.768  1.00  0.00    -0.204 F 
HETATM   21  C   UNL     1       5.336  29.669  50.287  1.00  0.00     0.046 A 
HETATM   22  C   UNL     1       5.638  28.996  51.475  1.00  0.00     0.035 A 
ENDBRANCH   3  15
BRANCH   4  23
HETATM   23  C   UNL     1       4.572  29.532  55.371  1.00  0.00     0.084 C 
HETATM   24  C   UNL     1       3.732  29.299  56.629  1.00  0.00     0.244 C 
HETATM   25  N   UNL     1       4.759  29.079  57.699  1.00  0.00    -0.074 N 
HETATM   26  H   UNL     1       4.410  29.293  58.644  1.00  0.00     0.277 HD
HETATM   27  H   UNL     1       5.007  28.076  57.681  1.00  0.00     0.277 HD
HETATM   28  C   UNL     1       5.982  29.862  57.329  1.00  0.00     0.233 C 
HETATM   29  C   UNL     1       5.711  30.386  55.922  1.00  0.00     0.041 C 
ENDBRANCH   4  23
TORSDOF 4
ENDMDL
