MODEL 1
REMARK VINA RESULT:      -9.7      0.000      0.000
REMARK  6 active torsions:
REMARK  status: ('A' for Active; 'I' for Inactive)
REMARK    1  A    between atoms: C_2  and  C_4 
REMARK    2  A    between atoms: C_2  and  C_11 
REMARK    3  A    between atoms: C_2  and  O_3 
REMARK    4  A    between atoms: C_11  and  N_12 
REMARK       I    between atoms: N_12  and  C_13 
REMARK    5  A    between atoms: C_13  and  C_14 
REMARK    6  A    between atoms: C_18  and  C_19 
ROOT
HETATM    1  N   UNL     1       7.363  26.752  56.092  1.00  0.00    -0.352 N 
HETATM    2  C   UNL     1       7.606  28.026  55.632  1.00  0.00     0.272 C 
HETATM    3  O   UNL     1       7.981  28.276  54.490  1.00  0.00    -0.266 OA
HETATM    4  H   UNL     1       7.171  26.675  57.088  1.00  0.00     0.162 HD
ENDROOT
BRANCH   2   5
HETATM    5  C   UNL     1       7.384  29.068  56.645  1.00  0.00     0.146 A 
HETATM    6  N   UNL     1       6.475  30.050  56.484  1.00  0.00    -0.169 NA
HETATM    7  N   UNL     1       6.590  30.783  57.604  1.00  0.00    -0.277 N 
HETATM    8  H   UNL     1       6.010  31.609  57.691  1.00  0.00     0.189 HD
HETATM    9  C   UNL     1       7.515  30.316  58.504  1.00  0.00     0.063 A 
HETATM   10  C   UNL     1       8.052  29.199  57.889  1.00  0.00     0.071 A 
BRANCH   9  11
HETATM   11  C   UNL     1       7.811  30.951  59.789  1.00  0.00    -0.008 A 
HETATM   12  C   UNL     1       8.920  30.564  60.560  1.00  0.00     0.017 A 
HETATM   13  C   UNL     1       9.186  31.183  61.786  1.00  0.00     0.043 A 
HETATM   14  C   UNL     1       8.348  32.191  62.243  1.00  0.00     0.116 A 
HETATM   15  F   UNL     1       8.606  32.783  63.417  1.00  0.00    -0.206 F 
HETATM   16  C   UNL     1       7.250  32.597  61.498  1.00  0.00     0.043 A 
HETATM   17  C   UNL     1       6.983  31.977  60.273  1.00  0.00     0.017 A 
ENDBRANCH   9  11
ENDBRANCH   2   5
BRANCH   1  18
HETATM   18  C   UNL     1       7.613  25.560  55.305  1.00  0.00     0.165 C 
BRANCH  18  19
HETATM   19  C   UNL     1       7.864  24.277  56.155  1.00  0.00     0.099 C 
HETATM   20  C   UNL     1       9.112  24.449  57.042  1.00  0.00     0.053 C 
BRANCH  19  21
HETATM   21  C   UNL     1       7.937  23.060  55.210  1.00  0.00    -0.001 A 
HETATM   22  C   UNL     1       8.105  21.731  55.658  1.00  0.00     0.043 A 
HETATM   23 CL   UNL     1       8.263  21.312  57.333  1.00  0.00    -0.084 Cl
HETATM   24  C   UNL     1       8.136  20.655  54.759  1.00  0.00     0.024 A 
HETATM   25  C   UNL     1       7.987  20.870  53.393  1.00  0.00     0.002 A 
HETATM   26  C   UNL     1       7.800  22.162  52.924  1.00  0.00     0.001 A 
HETATM   27  C   UNL     1       7.771  23.237  53.818  1.00  0.00     0.012 A 
ENDBRANCH  19  21
BRANCH  19  28
HETATM   28  O   UNL     1       6.795  24.121  57.106  1.00  0.00    -0.384 OA
HETATM   29  H   UNL     1       6.890  24.815  57.782  1.00  0.00     0.211 HD
ENDBRANCH  19  28
ENDBRANCH  18  19
ENDBRANCH   1  18
TORSDOF 6
ENDMDL
MODEL 2
REMARK VINA RESULT:      -9.6      1.938      2.401
REMARK  6 active torsions:
REMARK  status: ('A' for Active; 'I' for Inactive)
REMARK    1  A    between atoms: C_2  and  C_4 
REMARK    2  A    between atoms: C_2  and  C_11 
REMARK    3  A    between atoms: C_2  and  O_3 
REMARK    4  A    between atoms: C_11  and  N_12 
REMARK       I    between atoms: N_12  and  C_13 
REMARK    5  A    between atoms: C_13  and  C_14 
REMARK    6  A    between atoms: C_18  and  C_19 
ROOT
HETATM    1  N   UNL     1       7.457  27.758  55.956  1.00  0.00    -0.352 N 
HETATM    2  C   UNL     1       8.419  28.699  55.667  1.00  0.00     0.272 C 
HETATM    3  O   UNL     1       8.893  28.865  54.547  1.00  0.00    -0.266 OA
HETATM    4  H   UNL     1       7.237  27.645  56.943  1.00  0.00     0.162 HD
ENDROOT
BRANCH   2   5
HETATM    5  C   UNL     1       8.839  29.486  56.837  1.00  0.00     0.146 A 
HETATM    6  N   UNL     1      10.057  30.055  56.924  1.00  0.00    -0.169 NA
HETATM    7  N   UNL     1      10.047  30.659  58.124  1.00  0.00    -0.277 N 
HETATM    8  H   UNL     1      10.889  31.137  58.422  1.00  0.00     0.189 HD
HETATM    9  C   UNL     1       8.869  30.533  58.819  1.00  0.00     0.063 A 
HETATM   10  C   UNL     1       8.070  29.760  57.996  1.00  0.00     0.071 A 
BRANCH   9  11
HETATM   11  C   UNL     1       8.628  31.105  60.145  1.00  0.00    -0.008 A 
HETATM   12  C   UNL     1       7.896  32.293  60.309  1.00  0.00     0.017 A 
HETATM   13  C   UNL     1       7.676  32.824  61.583  1.00  0.00     0.043 A 
HETATM   14  C   UNL     1       8.185  32.170  62.698  1.00  0.00     0.116 A 
HETATM   15  F   UNL     1       7.972  32.682  63.918  1.00  0.00    -0.206 F 
HETATM   16  C   UNL     1       8.906  30.993  62.564  1.00  0.00     0.043 A 
HETATM   17  C   UNL     1       9.127  30.461  61.290  1.00  0.00     0.017 A 
ENDBRANCH   9  11
ENDBRANCH   2   5
BRANCH   1  18
HETATM   18  C   UNL     1       6.966  26.799  54.986  1.00  0.00     0.165 C 
BRANCH  18  19
HETATM   19  C   UNL     1       6.481  25.455  55.610  1.00  0.00     0.099 C 
HETATM   20  C   UNL     1       6.668  25.467  57.139  1.00  0.00     0.053 C 
BRANCH  19  21
HETATM   21  C   UNL     1       7.204  24.288  54.906  1.00  0.00    -0.001 A 
HETATM   22  C   UNL     1       6.909  23.864  53.591  1.00  0.00     0.043 A 
HETATM   23 CL   UNL     1       5.683  24.602  52.614  1.00  0.00    -0.084 Cl
HETATM   24  C   UNL     1       7.618  22.815  52.986  1.00  0.00     0.024 A 
HETATM   25  C   UNL     1       8.645  22.170  53.666  1.00  0.00     0.002 A 
HETATM   26  C   UNL     1       8.971  22.577  54.951  1.00  0.00     0.001 A 
HETATM   27  C   UNL     1       8.266  23.621  55.558  1.00  0.00     0.012 A 
ENDBRANCH  19  21
BRANCH  19  28
HETATM   28  O   UNL     1       5.054  25.343  55.447  1.00  0.00    -0.384 OA
HETATM   29  H   UNL     1       4.677  26.238  55.478  1.00  0.00     0.211 HD
ENDBRANCH  19  28
ENDBRANCH  18  19
ENDBRANCH   1  18
TORSDOF 6
ENDMDL
MODEL 3
REMARK VINA RESULT:      -9.4      1.305      1.496
REMARK  6 active torsions:
REMARK  status: ('A' for Active; 'I' for Inactive)
REMARK    1  A    between atoms: C_2  and  C_4 
REMARK    2  A    between atoms: C_2  and  C_11 
REMARK    3  A    between atoms: C_2  and  O_3 
REMARK    4  A    between atoms: C_11  and  N_12 
REMARK       I    between atoms: N_12  and  C_13 
REMARK    5  A    between atoms: C_13  and  C_14 
REMARK    6  A    between atoms: C_18  and  C_19 
ROOT
HETATM    1  N   UNL     1       7.176  27.481  55.689  1.00  0.00    -0.352 N 
HETATM    2  C   UNL     1       7.867  28.665  55.803  1.00  0.00     0.272 C 
HETATM    3  O   UNL     1       8.745  29.018  55.020  1.00  0.00    -0.266 OA
HETATM    4  H   UNL     1       6.559  27.257  56.467  1.00  0.00     0.162 HD
ENDROOT
BRANCH   2   5
HETATM    5  C   UNL     1       7.462  29.472  56.964  1.00  0.00     0.146 A 
HETATM    6  N   UNL     1       6.233  30.014  57.072  1.00  0.00    -0.169 NA
HETATM    7  N   UNL     1       6.271  30.668  58.246  1.00  0.00    -0.277 N 
HETATM    8  H   UNL     1       5.447  31.185  58.527  1.00  0.00     0.189 HD
HETATM    9  C   UNL     1       7.460  30.561  58.924  1.00  0.00     0.063 A 
HETATM   10  C   UNL     1       8.255  29.790  58.095  1.00  0.00     0.071 A 
BRANCH   9  11
HETATM   11  C   UNL     1       7.731  31.188  60.218  1.00  0.00    -0.008 A 
HETATM   12  C   UNL     1       8.793  30.761  61.032  1.00  0.00     0.017 A 
HETATM   13  C   UNL     1       9.036  31.373  62.266  1.00  0.00     0.043 A 
HETATM   14  C   UNL     1       8.222  32.415  62.689  1.00  0.00     0.116 A 
HETATM   15  F   UNL     1       8.458  33.000  63.871  1.00  0.00    -0.206 F 
HETATM   16  C   UNL     1       7.170  32.861  61.901  1.00  0.00     0.043 A 
HETATM   17  C   UNL     1       6.926  32.248  60.668  1.00  0.00     0.017 A 
ENDBRANCH   9  11
ENDBRANCH   2   5
BRANCH   1  18
HETATM   18  C   UNL     1       7.474  26.478  54.685  1.00  0.00     0.165 C 
BRANCH  18  19
HETATM   19  C   UNL     1       6.588  25.199  54.780  1.00  0.00     0.099 C 
HETATM   20  C   UNL     1       5.891  25.122  56.152  1.00  0.00     0.053 C 
BRANCH  19  21
HETATM   21  C   UNL     1       7.455  23.965  54.455  1.00  0.00    -0.001 A 
HETATM   22  C   UNL     1       8.491  23.495  55.291  1.00  0.00     0.043 A 
HETATM   23 CL   UNL     1       8.920  24.261  56.785  1.00  0.00    -0.084 Cl
HETATM   24  C   UNL     1       9.232  22.350  54.962  1.00  0.00     0.024 A 
HETATM   25  C   UNL     1       8.955  21.637  53.802  1.00  0.00     0.002 A 
HETATM   26  C   UNL     1       7.930  22.063  52.970  1.00  0.00     0.001 A 
HETATM   27  C   UNL     1       7.190  23.204  53.293  1.00  0.00     0.012 A 
ENDBRANCH  19  21
BRANCH  19  28
HETATM   28  O   UNL     1       5.492  25.310  53.854  1.00  0.00    -0.384 OA
HETATM   29  H   UNL     1       5.080  24.433  53.767  1.00  0.00     0.211 HD
ENDBRANCH  19  28
ENDBRANCH  18  19
ENDBRANCH   1  18
TORSDOF 6
ENDMDL
MODEL 4
REMARK VINA RESULT:      -9.0      6.732      9.651
REMARK  6 active torsions:
REMARK  status: ('A' for Active; 'I' for Inactive)
REMARK    1  A    between atoms: C_2  and  C_4 
REMARK    2  A    between atoms: C_2  and  C_11 
REMARK    3  A    between atoms: C_2  and  O_3 
REMARK    4  A    between atoms: C_11  and  N_12 
REMARK       I    between atoms: N_12  and  C_13 
REMARK    5  A    between atoms: C_13  and  C_14 
REMARK    6  A    between atoms: C_18  and  C_19 
ROOT
HETATM    1  N   UNL     1       4.570  27.265  51.941  1.00  0.00    -0.352 N 
HETATM    2  C   UNL     1       4.538  27.305  53.316  1.00  0.00     0.272 C 
HETATM    3  O   UNL     1       3.887  28.124  53.958  1.00  0.00    -0.266 OA
HETATM    4  H   UNL     1       5.239  26.614  51.536  1.00  0.00     0.162 HD
ENDROOT
BRANCH   2   5
HETATM    5  C   UNL     1       5.372  26.273  53.951  1.00  0.00     0.146 A 
HETATM    6  N   UNL     1       5.863  26.409  55.198  1.00  0.00    -0.169 NA
HETATM    7  N   UNL     1       6.564  25.279  55.395  1.00  0.00    -0.277 N 
HETATM    8  H   UNL     1       7.055  25.173  56.274  1.00  0.00     0.189 HD
HETATM    9  C   UNL     1       6.536  24.397  54.343  1.00  0.00     0.063 A 
HETATM   10  C   UNL     1       5.769  25.035  53.385  1.00  0.00     0.071 A 
BRANCH   9  11
HETATM   11  C   UNL     1       7.226  23.106  54.330  1.00  0.00    -0.008 A 
HETATM   12  C   UNL     1       7.494  22.406  55.519  1.00  0.00     0.017 A 
HETATM   13  C   UNL     1       8.155  21.175  55.486  1.00  0.00     0.043 A 
HETATM   14  C   UNL     1       8.546  20.636  54.268  1.00  0.00     0.116 A 
HETATM   15  F   UNL     1       9.179  19.455  54.240  1.00  0.00    -0.206 F 
HETATM   16  C   UNL     1       8.288  21.304  53.079  1.00  0.00     0.043 A 
HETATM   17  C   UNL     1       7.629  22.536  53.111  1.00  0.00     0.017 A 
ENDBRANCH   9  11
ENDBRANCH   2   5
BRANCH   1  18
HETATM   18  C   UNL     1       3.910  28.247  51.101  1.00  0.00     0.165 C 
BRANCH  18  19
HETATM   19  C   UNL     1       4.425  28.274  49.629  1.00  0.00     0.099 C 
HETATM   20  C   UNL     1       4.831  29.703  49.222  1.00  0.00     0.053 C 
BRANCH  19  21
HETATM   21  C   UNL     1       3.352  27.650  48.714  1.00  0.00    -0.001 A 
HETATM   22  C   UNL     1       2.027  28.129  48.624  1.00  0.00     0.043 A 
HETATM   23 CL   UNL     1       1.444  29.476  49.545  1.00  0.00    -0.084 Cl
HETATM   24  C   UNL     1       1.096  27.542  47.753  1.00  0.00     0.024 A 
HETATM   25  C   UNL     1       1.461  26.473  46.942  1.00  0.00     0.002 A 
HETATM   26  C   UNL     1       2.762  25.993  46.994  1.00  0.00     0.001 A 
HETATM   27  C   UNL     1       3.692  26.574  47.862  1.00  0.00     0.012 A 
ENDBRANCH  19  21
BRANCH  19  28
HETATM   28  O   UNL     1       5.659  27.538  49.544  1.00  0.00    -0.384 OA
HETATM   29  H   UNL     1       6.063  27.523  50.429  1.00  0.00     0.211 HD
ENDBRANCH  19  28
ENDBRANCH  18  19
ENDBRANCH   1  18
TORSDOF 6
ENDMDL
MODEL 5
REMARK VINA RESULT:      -9.0      4.427      9.621
REMARK  6 active torsions:
REMARK  status: ('A' for Active; 'I' for Inactive)
REMARK    1  A    between atoms: C_2  and  C_4 
REMARK    2  A    between atoms: C_2  and  C_11 
REMARK    3  A    between atoms: C_2  and  O_3 
REMARK    4  A    between atoms: C_11  and  N_12 
REMARK       I    between atoms: N_12  and  C_13 
REMARK    5  A    between atoms: C_13  and  C_14 
REMARK    6  A    between atoms: C_18  and  C_19 
ROOT
HETATM    1  N   UNL     1       7.054  28.432  56.441  1.00  0.00    -0.352 N 
HETATM    2  C   UNL     1       7.640  27.721  57.463  1.00  0.00     0.272 C 
HETATM    3  O   UNL     1       7.985  28.222  58.530  1.00  0.00    -0.266 OA
HETATM    4  H   UNL     1       6.925  27.923  55.570  1.00  0.00     0.162 HD
ENDROOT
BRANCH   2   5
HETATM    5  C   UNL     1       7.825  26.295  57.154  1.00  0.00     0.146 A 
HETATM    6  N   UNL     1       8.205  25.398  58.085  1.00  0.00    -0.169 NA
HETATM    7  N   UNL     1       8.268  24.238  57.409  1.00  0.00    -0.277 N 
HETATM    8  H   UNL     1       8.568  23.412  57.913  1.00  0.00     0.189 HD
HETATM    9  C   UNL     1       7.925  24.328  56.083  1.00  0.00     0.063 A 
HETATM   10  C   UNL     1       7.642  25.668  55.895  1.00  0.00     0.071 A 
BRANCH   9  11
HETATM   11  C   UNL     1       7.922  23.197  55.153  1.00  0.00    -0.008 A 
HETATM   12  C   UNL     1       7.946  23.392  53.762  1.00  0.00     0.017 A 
HETATM   13  C   UNL     1       7.943  22.299  52.890  1.00  0.00     0.043 A 
HETATM   14  C   UNL     1       7.918  21.009  53.404  1.00  0.00     0.116 A 
HETATM   15  F   UNL     1       7.915  19.964  52.566  1.00  0.00    -0.206 F 
HETATM   16  C   UNL     1       7.900  20.789  54.774  1.00  0.00     0.043 A 
HETATM   17  C   UNL     1       7.903  21.882  55.646  1.00  0.00     0.017 A 
ENDBRANCH   9  11
ENDBRANCH   2   5
BRANCH   1  18
HETATM   18  C   UNL     1       6.867  29.870  56.478  1.00  0.00     0.165 C 
BRANCH  18  19
HETATM   19  C   UNL     1       5.633  30.330  57.313  1.00  0.00     0.099 C 
HETATM   20  C   UNL     1       4.592  31.017  56.409  1.00  0.00     0.053 C 
BRANCH  19  21
HETATM   21  C   UNL     1       6.122  31.213  58.479  1.00  0.00    -0.001 A 
HETATM   22  C   UNL     1       5.255  31.854  59.391  1.00  0.00     0.043 A 
HETATM   23 CL   UNL     1       3.529  31.732  59.298  1.00  0.00    -0.084 Cl
HETATM   24  C   UNL     1       5.752  32.624  60.454  1.00  0.00     0.024 A 
HETATM   25  C   UNL     1       7.122  32.766  60.644  1.00  0.00     0.002 A 
HETATM   26  C   UNL     1       7.999  32.132  59.776  1.00  0.00     0.001 A 
HETATM   27  C   UNL     1       7.507  31.366  58.715  1.00  0.00     0.012 A 
ENDBRANCH  19  21
BRANCH  19  28
HETATM   28  O   UNL     1       4.936  29.172  57.807  1.00  0.00    -0.384 OA
HETATM   29  H   UNL     1       5.569  28.435  57.851  1.00  0.00     0.211 HD
ENDBRANCH  19  28
ENDBRANCH  18  19
ENDBRANCH   1  18
TORSDOF 6
ENDMDL
MODEL 6
REMARK VINA RESULT:      -8.9      2.578      3.452
REMARK  6 active torsions:
REMARK  status: ('A' for Active; 'I' for Inactive)
REMARK    1  A    between atoms: C_2  and  C_4 
REMARK    2  A    between atoms: C_2  and  C_11 
REMARK    3  A    between atoms: C_2  and  O_3 
REMARK    4  A    between atoms: C_11  and  N_12 
REMARK       I    between atoms: N_12  and  C_13 
REMARK    5  A    between atoms: C_13  and  C_14 
REMARK    6  A    between atoms: C_18  and  C_19 
ROOT
HETATM    1  N   UNL     1       8.304  28.490  57.461  1.00  0.00    -0.352 N 
HETATM    2  C   UNL     1       7.625  29.670  57.660  1.00  0.00     0.272 C 
HETATM    3  O   UNL     1       6.863  30.164  56.833  1.00  0.00    -0.266 OA
HETATM    4  H   UNL     1       8.990  28.253  58.174  1.00  0.00     0.162 HD
ENDROOT
BRANCH   2   5
HETATM    5  C   UNL     1       7.905  30.295  58.961  1.00  0.00     0.146 A 
HETATM    6  N   UNL     1       9.033  30.044  59.655  1.00  0.00    -0.169 NA
HETATM    7  N   UNL     1       8.900  30.787  60.767  1.00  0.00    -0.277 N 
HETATM    8  H   UNL     1       9.633  30.732  61.464  1.00  0.00     0.189 HD
HETATM    9  C   UNL     1       7.748  31.531  60.825  1.00  0.00     0.063 A 
HETATM   10  C   UNL     1       7.080  31.215  59.657  1.00  0.00     0.071 A 
BRANCH   9  11
HETATM   11  C   UNL     1       7.390  32.411  61.939  1.00  0.00    -0.008 A 
HETATM   12  C   UNL     1       8.006  32.292  63.196  1.00  0.00     0.017 A 
HETATM   13  C   UNL     1       7.650  33.141  64.247  1.00  0.00     0.043 A 
HETATM   14  C   UNL     1       6.680  34.114  64.047  1.00  0.00     0.116 A 
HETATM   15  F   UNL     1       6.341  34.927  65.057  1.00  0.00    -0.206 F 
HETATM   16  C   UNL     1       6.060  34.258  62.814  1.00  0.00     0.043 A 
HETATM   17  C   UNL     1       6.415  33.407  61.762  1.00  0.00     0.017 A 
ENDBRANCH   9  11
ENDBRANCH   2   5
BRANCH   1  18
HETATM   18  C   UNL     1       8.266  27.750  56.214  1.00  0.00     0.165 C 
BRANCH  18  19
HETATM   19  C   UNL     1       7.202  26.610  56.183  1.00  0.00     0.099 C 
HETATM   20  C   UNL     1       7.248  25.788  57.485  1.00  0.00     0.053 C 
BRANCH  19  21
HETATM   21  C   UNL     1       7.412  25.767  54.908  1.00  0.00    -0.001 A 
HETATM   22  C   UNL     1       7.282  26.281  53.600  1.00  0.00     0.043 A 
HETATM   23 CL   UNL     1       6.857  27.929  53.271  1.00  0.00    -0.084 Cl
HETATM   24  C   UNL     1       7.513  25.478  52.473  1.00  0.00     0.024 A 
HETATM   25  C   UNL     1       7.890  24.148  52.618  1.00  0.00     0.002 A 
HETATM   26  C   UNL     1       8.045  23.619  53.891  1.00  0.00     0.001 A 
HETATM   27  C   UNL     1       7.815  24.416  55.016  1.00  0.00     0.012 A 
ENDBRANCH  19  21
BRANCH  19  28
HETATM   28  O   UNL     1       5.884  27.190  56.199  1.00  0.00    -0.384 OA
HETATM   29  H   UNL     1       5.236  26.465  56.199  1.00  0.00     0.211 HD
ENDBRANCH  19  28
ENDBRANCH  18  19
ENDBRANCH   1  18
TORSDOF 6
ENDMDL
MODEL 7
REMARK VINA RESULT:      -8.9      7.542     10.444
REMARK  6 active torsions:
REMARK  status: ('A' for Active; 'I' for Inactive)
REMARK    1  A    between atoms: C_2  and  C_4 
REMARK    2  A    between atoms: C_2  and  C_11 
REMARK    3  A    between atoms: C_2  and  O_3 
REMARK    4  A    between atoms: C_11  and  N_12 
REMARK       I    between atoms: N_12  and  C_13 
REMARK    5  A    between atoms: C_13  and  C_14 
REMARK    6  A    between atoms: C_18  and  C_19 
ROOT
HETATM    1  N   UNL     1       4.961  26.361  49.725  1.00  0.00    -0.352 N 
HETATM    2  C   UNL     1       5.383  26.942  50.899  1.00  0.00     0.272 C 
HETATM    3  O   UNL     1       5.544  28.151  51.041  1.00  0.00    -0.266 OA
HETATM    4  H   UNL     1       4.981  25.345  49.707  1.00  0.00     0.162 HD
ENDROOT
BRANCH   2   5
HETATM    5  C   UNL     1       5.634  25.972  51.975  1.00  0.00     0.146 A 
HETATM    6  N   UNL     1       4.797  25.819  53.020  1.00  0.00    -0.169 NA
HETATM    7  N   UNL     1       5.380  24.865  53.765  1.00  0.00    -0.277 N 
HETATM    8  H   UNL     1       4.932  24.602  54.635  1.00  0.00     0.189 HD
HETATM    9  C   UNL     1       6.550  24.367  53.246  1.00  0.00     0.063 A 
HETATM   10  C   UNL     1       6.737  25.086  52.080  1.00  0.00     0.071 A 
BRANCH   9  11
HETATM   11  C   UNL     1       7.357  23.326  53.883  1.00  0.00    -0.008 A 
HETATM   12  C   UNL     1       7.511  23.267  55.278  1.00  0.00     0.017 A 
HETATM   13  C   UNL     1       8.287  22.264  55.868  1.00  0.00     0.043 A 
HETATM   14  C   UNL     1       8.910  21.316  55.067  1.00  0.00     0.116 A 
HETATM   15  F   UNL     1       9.652  20.356  55.635  1.00  0.00    -0.206 F 
HETATM   16  C   UNL     1       8.770  21.348  53.687  1.00  0.00     0.043 A 
HETATM   17  C   UNL     1       7.994  22.351  53.097  1.00  0.00     0.017 A 
ENDBRANCH   9  11
ENDBRANCH   2   5
BRANCH   1  18
HETATM   18  C   UNL     1       4.751  27.108  48.499  1.00  0.00     0.165 C 
BRANCH  18  19
HETATM   19  C   UNL     1       3.274  27.106  47.998  1.00  0.00     0.099 C 
HETATM   20  C   UNL     1       3.011  25.890  47.089  1.00  0.00     0.053 C 
BRANCH  19  21
HETATM   21  C   UNL     1       2.975  28.461  47.324  1.00  0.00    -0.001 A 
HETATM   22  C   UNL     1       1.699  28.832  46.848  1.00  0.00     0.043 A 
HETATM   23 CL   UNL     1       0.313  27.797  46.955  1.00  0.00    -0.084 Cl
HETATM   24  C   UNL     1       1.473  30.089  46.268  1.00  0.00     0.024 A 
HETATM   25  C   UNL     1       2.506  31.014  46.157  1.00  0.00     0.002 A 
HETATM   26  C   UNL     1       3.767  30.685  46.634  1.00  0.00     0.001 A 
HETATM   27  C   UNL     1       3.996  29.432  47.211  1.00  0.00     0.012 A 
ENDBRANCH  19  21
BRANCH  19  28
HETATM   28  O   UNL     1       2.394  26.887  49.116  1.00  0.00    -0.384 OA
HETATM   29  H   UNL     1       2.564  25.994  49.462  1.00  0.00     0.211 HD
ENDBRANCH  19  28
ENDBRANCH  18  19
ENDBRANCH   1  18
TORSDOF 6
ENDMDL
MODEL 8
REMARK VINA RESULT:      -8.9      3.077      4.871
REMARK  6 active torsions:
REMARK  status: ('A' for Active; 'I' for Inactive)
REMARK    1  A    between atoms: C_2  and  C_4 
REMARK    2  A    between atoms: C_2  and  C_11 
REMARK    3  A    between atoms: C_2  and  O_3 
REMARK    4  A    between atoms: C_11  and  N_12 
REMARK       I    between atoms: N_12  and  C_13 
REMARK    5  A    between atoms: C_13  and  C_14 
REMARK    6  A    between atoms: C_18  and  C_19 
ROOT
HETATM    1  N   UNL     1       7.595  29.873  58.221  1.00  0.00    -0.352 N 
HETATM    2  C   UNL     1       8.670  30.462  58.845  1.00  0.00     0.272 C 
HETATM    3  O   UNL     1       9.730  30.715  58.279  1.00  0.00    -0.266 OA
HETATM    4  H   UNL     1       6.823  29.613  58.830  1.00  0.00     0.162 HD
ENDROOT
BRANCH   2   5
HETATM    5  C   UNL     1       8.435  30.755  60.267  1.00  0.00     0.146 A 
HETATM    6  N   UNL     1       9.062  30.087  61.255  1.00  0.00    -0.169 NA
HETATM    7  N   UNL     1       8.572  30.636  62.379  1.00  0.00    -0.277 N 
HETATM    8  H   UNL     1       8.887  30.262  63.266  1.00  0.00     0.189 HD
HETATM    9  C   UNL     1       7.669  31.650  62.175  1.00  0.00     0.063 A 
HETATM   10  C   UNL     1       7.560  31.735  60.799  1.00  0.00     0.071 A 
BRANCH   9  11
HETATM   11  C   UNL     1       7.005  32.392  63.248  1.00  0.00    -0.008 A 
HETATM   12  C   UNL     1       5.605  32.438  63.350  1.00  0.00     0.017 A 
HETATM   13  C   UNL     1       4.989  33.153  64.382  1.00  0.00     0.043 A 
HETATM   14  C   UNL     1       5.769  33.820  65.317  1.00  0.00     0.116 A 
HETATM   15  F   UNL     1       5.176  34.504  66.305  1.00  0.00    -0.206 F 
HETATM   16  C   UNL     1       7.154  33.786  65.242  1.00  0.00     0.043 A 
HETATM   17  C   UNL     1       7.770  33.072  64.210  1.00  0.00     0.017 A 
ENDBRANCH   9  11
ENDBRANCH   2   5
BRANCH   1  18
HETATM   18  C   UNL     1       7.631  29.401  56.850  1.00  0.00     0.165 C 
BRANCH  18  19
HETATM   19  C   UNL     1       6.249  28.928  56.303  1.00  0.00     0.099 C 
HETATM   20  C   UNL     1       5.121  29.303  57.282  1.00  0.00     0.053 C 
BRANCH  19  21
HETATM   21  C   UNL     1       6.326  27.419  55.993  1.00  0.00    -0.001 A 
HETATM   22  C   UNL     1       7.066  26.878  54.919  1.00  0.00     0.043 A 
HETATM   23 CL   UNL     1       7.970  27.854  53.808  1.00  0.00    -0.084 Cl
HETATM   24  C   UNL     1       7.125  25.494  54.697  1.00  0.00     0.024 A 
HETATM   25  C   UNL     1       6.463  24.612  55.543  1.00  0.00     0.002 A 
HETATM   26  C   UNL     1       5.744  25.112  56.619  1.00  0.00     0.001 A 
HETATM   27  C   UNL     1       5.681  26.491  56.842  1.00  0.00     0.012 A 
ENDBRANCH  19  21
BRANCH  19  28
HETATM   28  O   UNL     1       5.926  29.677  55.117  1.00  0.00    -0.384 OA
HETATM   29  H   UNL     1       5.828  29.048  54.381  1.00  0.00     0.211 HD
ENDBRANCH  19  28
ENDBRANCH  18  19
ENDBRANCH   1  18
TORSDOF 6
ENDMDL
MODEL 9
REMARK VINA RESULT:      -8.8      3.993      9.105
REMARK  6 active torsions:
REMARK  status: ('A' for Active; 'I' for Inactive)
REMARK    1  A    between atoms: C_2  and  C_4 
REMARK    2  A    between atoms: C_2  and  C_11 
REMARK    3  A    between atoms: C_2  and  O_3 
REMARK    4  A    between atoms: C_11  and  N_12 
REMARK       I    between atoms: N_12  and  C_13 
REMARK    5  A    between atoms: C_13  and  C_14 
REMARK    6  A    between atoms: C_18  and  C_19 
ROOT
HETATM    1  N   UNL     1       6.328  28.482  55.254  1.00  0.00    -0.352 N 
HETATM    2  C   UNL     1       5.417  27.966  54.363  1.00  0.00     0.272 C 
HETATM    3  O   UNL     1       4.444  28.589  53.947  1.00  0.00    -0.266 OA
HETATM    4  H   UNL     1       7.019  27.824  55.606  1.00  0.00     0.162 HD
ENDROOT
BRANCH   2   5
HETATM    5  C   UNL     1       5.712  26.583  53.958  1.00  0.00     0.146 A 
HETATM    6  N   UNL     1       5.171  26.022  52.858  1.00  0.00    -0.169 NA
HETATM    7  N   UNL     1       5.674  24.776  52.851  1.00  0.00    -0.277 N 
HETATM    8  H   UNL     1       5.376  24.149  52.113  1.00  0.00     0.189 HD
HETATM    9  C   UNL     1       6.539  24.501  53.881  1.00  0.00     0.063 A 
HETATM   10  C   UNL     1       6.568  25.668  54.621  1.00  0.00     0.071 A 
BRANCH   9  11
HETATM   11  C   UNL     1       7.206  23.212  54.076  1.00  0.00    -0.008 A 
HETATM   12  C   UNL     1       7.423  22.686  55.360  1.00  0.00     0.017 A 
HETATM   13  C   UNL     1       8.063  21.454  55.526  1.00  0.00     0.043 A 
HETATM   14  C   UNL     1       8.484  20.742  54.411  1.00  0.00     0.116 A 
HETATM   15  F   UNL     1       9.096  19.561  54.573  1.00  0.00    -0.206 F 
HETATM   16  C   UNL     1       8.277  21.236  53.131  1.00  0.00     0.043 A 
HETATM   17  C   UNL     1       7.638  22.469  52.965  1.00  0.00     0.017 A 
ENDBRANCH   9  11
ENDBRANCH   2   5
BRANCH   1  18
HETATM   18  C   UNL     1       6.186  29.787  55.872  1.00  0.00     0.165 C 
BRANCH  18  19
HETATM   19  C   UNL     1       5.841  29.738  57.392  1.00  0.00     0.099 C 
HETATM   20  C   UNL     1       4.472  30.390  57.660  1.00  0.00     0.053 C 
BRANCH  19  21
HETATM   21  C   UNL     1       6.999  30.377  58.186  1.00  0.00    -0.001 A 
HETATM   22  C   UNL     1       8.309  29.852  58.218  1.00  0.00     0.043 A 
HETATM   23 CL   UNL     1       8.770  28.411  57.373  1.00  0.00    -0.084 Cl
HETATM   24  C   UNL     1       9.334  30.489  58.934  1.00  0.00     0.024 A 
HETATM   25  C   UNL     1       9.086  31.670  59.625  1.00  0.00     0.002 A 
HETATM   26  C   UNL     1       7.813  32.221  59.596  1.00  0.00     0.001 A 
HETATM   27  C   UNL     1       6.789  31.588  58.885  1.00  0.00     0.012 A 
ENDBRANCH  19  21
BRANCH  19  28
HETATM   28  O   UNL     1       5.645  28.368  57.790  1.00  0.00    -0.384 OA
HETATM   29  H   UNL     1       4.799  28.312  58.266  1.00  0.00     0.211 HD
ENDBRANCH  19  28
ENDBRANCH  18  19
ENDBRANCH   1  18
TORSDOF 6
ENDMDL
MODEL 10
REMARK VINA RESULT:      -8.7      4.328      9.531
REMARK  6 active torsions:
REMARK  status: ('A' for Active; 'I' for Inactive)
REMARK    1  A    between atoms: C_2  and  C_4 
REMARK    2  A    between atoms: C_2  and  C_11 
REMARK    3  A    between atoms: C_2  and  O_3 
REMARK    4  A    between atoms: C_11  and  N_12 
REMARK       I    between atoms: N_12  and  C_13 
REMARK    5  A    between atoms: C_13  and  C_14 
REMARK    6  A    between atoms: C_18  and  C_19 
ROOT
HETATM    1  N   UNL     1       6.509  30.382  57.599  1.00  0.00    -0.352 N 
HETATM    2  C   UNL     1       5.676  30.370  56.503  1.00  0.00     0.272 C 
HETATM    3  O   UNL     1       5.040  31.349  56.122  1.00  0.00    -0.266 OA
HETATM    4  H   UNL     1       6.883  29.477  57.874  1.00  0.00     0.162 HD
ENDROOT
BRANCH   2   5
HETATM    5  C   UNL     1       5.609  29.063  55.832  1.00  0.00     0.146 A 
HETATM    6  N   UNL     1       4.447  28.529  55.407  1.00  0.00    -0.169 NA
HETATM    7  N   UNL     1       4.810  27.351  54.871  1.00  0.00    -0.277 N 
HETATM    8  H   UNL     1       4.079  26.752  54.505  1.00  0.00     0.189 HD
HETATM    9  C   UNL     1       6.158  27.098  54.903  1.00  0.00     0.063 A 
HETATM   10  C   UNL     1       6.696  28.203  55.537  1.00  0.00     0.071 A 
BRANCH   9  11
HETATM   11  C   UNL     1       6.782  25.881  54.380  1.00  0.00    -0.008 A 
HETATM   12  C   UNL     1       7.088  24.796  55.218  1.00  0.00     0.017 A 
HETATM   13  C   UNL     1       7.685  23.642  54.699  1.00  0.00     0.043 A 
HETATM   14  C   UNL     1       7.974  23.567  53.343  1.00  0.00     0.116 A 
HETATM   15  F   UNL     1       8.545  22.460  52.850  1.00  0.00    -0.206 F 
HETATM   16  C   UNL     1       7.676  24.623  52.493  1.00  0.00     0.043 A 
HETATM   17  C   UNL     1       7.081  25.777  53.011  1.00  0.00     0.017 A 
ENDBRANCH   9  11
ENDBRANCH   2   5
BRANCH   1  18
HETATM   18  C   UNL     1       6.653  31.527  58.477  1.00  0.00     0.165 C 
BRANCH  18  19
HETATM   19  C   UNL     1       7.898  31.459  59.412  1.00  0.00     0.099 C 
HETATM   20  C   UNL     1       8.526  30.052  59.379  1.00  0.00     0.053 C 
BRANCH  19  21
HETATM   21  C   UNL     1       7.486  31.921  60.825  1.00  0.00    -0.001 A 
HETATM   22  C   UNL     1       8.402  32.117  61.882  1.00  0.00     0.043 A 
HETATM   23 CL   UNL     1      10.106  31.847  61.717  1.00  0.00    -0.084 Cl
HETATM   24  C   UNL     1       7.978  32.567  63.142  1.00  0.00     0.024 A 
HETATM   25  C   UNL     1       6.637  32.846  63.379  1.00  0.00     0.002 A 
HETATM   26  C   UNL     1       5.716  32.682  62.355  1.00  0.00     0.001 A 
HETATM   27  C   UNL     1       6.135  32.232  61.099  1.00  0.00     0.012 A 
ENDBRANCH  19  21
BRANCH  19  28
HETATM   28  O   UNL     1       8.938  32.303  58.882  1.00  0.00    -0.384 OA
HETATM   29  H   UNL     1       9.110  32.028  57.966  1.00  0.00     0.211 HD
ENDBRANCH  19  28
ENDBRANCH  18  19
ENDBRANCH   1  18
TORSDOF 6
ENDMDL
