MODEL 1
REMARK VINA RESULT:      -8.3      0.000      0.000
REMARK  3 active torsions:
REMARK  status: ('A' for Active; 'I' for Inactive)
REMARK    1  A    between atoms: C_6  and  N_7 
REMARK    2  A    between atoms: N_7  and  C_8 
REMARK    3  A    between atoms: C_8  and  C_9 
ROOT
HETATM    1  C   UNL     1       8.882  22.643  55.347  1.00  0.00     0.024 A 
HETATM    2  C   UNL     1       8.140  22.331  54.207  1.00  0.00     0.046 A 
HETATM    3  C   UNL     1       8.348  21.087  53.524  1.00  0.00     0.099 C 
HETATM    4  N   UNL     1       8.469  20.091  52.944  1.00  0.00    -0.191 NA
HETATM    5  C   UNL     1       7.168  23.226  53.728  1.00  0.00     0.047 A 
HETATM    6  C   UNL     1       6.942  24.457  54.359  1.00  0.00     0.032 A 
HETATM    7  C   UNL     1       7.681  24.730  55.534  1.00  0.00     0.055 A 
HETATM    8 CL   UNL     1       7.411  26.198  56.410  1.00  0.00    -0.082 Cl
HETATM    9  C   UNL     1       8.648  23.843  56.015  1.00  0.00     0.027 A 
ENDROOT
BRANCH   6  10
HETATM   10  N   UNL     1       5.913  25.340  53.961  1.00  0.00    -0.286 NA
HETATM   11  H   UNL     1       6.322  26.276  53.843  1.00  0.00     0.128 HD
BRANCH  10  12
HETATM   12  C   UNL     1       5.019  24.995  52.846  1.00  0.00     0.149 C 
BRANCH  12  13
HETATM   13  C   UNL     1       5.076  26.126  51.832  1.00  0.00     0.029 A 
HETATM   14  N   UNL     1       4.637  25.804  50.559  1.00  0.00    -0.338 N 
HETATM   15  H   UNL     1       4.324  24.847  50.383  1.00  0.00     0.168 HD
HETATM   16  C   UNL     1       4.639  26.696  49.603  1.00  0.00     0.158 A 
HETATM   17  N   UNL     1       5.057  27.926  49.812  1.00  0.00    -0.269 N 
HETATM   18  S   UNL     1       4.115  26.388  47.978  1.00  0.00    -0.064 SA
HETATM   19  C   UNL     1       5.531  28.386  51.058  1.00  0.00     0.255 A 
HETATM   20  C   UNL     1       4.980  28.715  48.681  1.00  0.00     0.109 A 
HETATM   21  O   UNL     1       5.907  29.533  51.217  1.00  0.00    -0.268 OA
HETATM   22  C   UNL     1       5.522  27.357  52.112  1.00  0.00     0.101 A 
HETATM   23  C   UNL     1       4.501  28.057  47.614  1.00  0.00     0.071 A 
ENDBRANCH  12  13
ENDBRANCH  10  12
ENDBRANCH   6  10
TORSDOF 3
ENDMDL
MODEL 2
REMARK VINA RESULT:      -8.3      1.754      2.786
REMARK  3 active torsions:
REMARK  status: ('A' for Active; 'I' for Inactive)
REMARK    1  A    between atoms: C_6  and  N_7 
REMARK    2  A    between atoms: N_7  and  C_8 
REMARK    3  A    between atoms: C_8  and  C_9 
ROOT
HETATM    1  C   UNL     1       8.602  23.478  56.362  1.00  0.00     0.024 A 
HETATM    2  C   UNL     1       7.837  24.641  56.270  1.00  0.00     0.046 A 
HETATM    3  C   UNL     1       7.860  25.610  57.328  1.00  0.00     0.099 C 
HETATM    4  N   UNL     1       7.853  26.429  58.148  1.00  0.00    -0.191 NA
HETATM    5  C   UNL     1       7.051  24.884  55.130  1.00  0.00     0.047 A 
HETATM    6  C   UNL     1       6.992  23.958  54.079  1.00  0.00     0.032 A 
HETATM    7  C   UNL     1       7.806  22.806  54.183  1.00  0.00     0.055 A 
HETATM    8 CL   UNL     1       7.842  21.648  52.897  1.00  0.00    -0.082 Cl
HETATM    9  C   UNL     1       8.591  22.561  55.313  1.00  0.00     0.027 A 
ENDROOT
BRANCH   6  10
HETATM   10  N   UNL     1       6.286  24.209  52.881  1.00  0.00    -0.286 NA
HETATM   11  H   UNL     1       6.220  23.326  52.358  1.00  0.00     0.128 HD
BRANCH  10  12
HETATM   12  C   UNL     1       5.002  24.924  52.904  1.00  0.00     0.149 C 
BRANCH  12  13
HETATM   13  C   UNL     1       5.074  26.049  51.884  1.00  0.00     0.029 A 
HETATM   14  N   UNL     1       4.639  25.725  50.611  1.00  0.00    -0.338 N 
HETATM   15  H   UNL     1       4.319  24.770  50.438  1.00  0.00     0.168 HD
HETATM   16  C   UNL     1       4.655  26.611  49.650  1.00  0.00     0.158 A 
HETATM   17  N   UNL     1       5.081  27.839  49.855  1.00  0.00    -0.269 N 
HETATM   18  S   UNL     1       4.137  26.300  48.024  1.00  0.00    -0.064 SA
HETATM   19  C   UNL     1       5.552  28.302  51.101  1.00  0.00     0.255 A 
HETATM   20  C   UNL     1       5.018  28.623  48.719  1.00  0.00     0.109 A 
HETATM   21  O   UNL     1       5.936  29.446  51.257  1.00  0.00    -0.268 OA
HETATM   22  C   UNL     1       5.529  27.279  52.161  1.00  0.00     0.101 A 
HETATM   23  C   UNL     1       4.539  27.964  47.654  1.00  0.00     0.071 A 
ENDBRANCH  12  13
ENDBRANCH  10  12
ENDBRANCH   6  10
TORSDOF 3
ENDMDL
MODEL 3
REMARK VINA RESULT:      -8.2     10.159     12.132
REMARK  3 active torsions:
REMARK  status: ('A' for Active; 'I' for Inactive)
REMARK    1  A    between atoms: C_6  and  N_7 
REMARK    2  A    between atoms: N_7  and  C_8 
REMARK    3  A    between atoms: C_8  and  C_9 
ROOT
HETATM    1  C   UNL     1       6.553  33.894  65.310  1.00  0.00     0.024 A 
HETATM    2  C   UNL     1       5.267  33.731  64.792  1.00  0.00     0.046 A 
HETATM    3  C   UNL     1       4.142  34.341  65.441  1.00  0.00     0.099 C 
HETATM    4  N   UNL     1       3.203  34.823  65.919  1.00  0.00    -0.191 NA
HETATM    5  C   UNL     1       5.064  32.984  63.619  1.00  0.00     0.047 A 
HETATM    6  C   UNL     1       6.134  32.362  62.961  1.00  0.00     0.032 A 
HETATM    7  C   UNL     1       7.431  32.575  63.487  1.00  0.00     0.055 A 
HETATM    8 CL   UNL     1       8.812  31.899  62.693  1.00  0.00    -0.082 Cl
HETATM    9  C   UNL     1       7.638  33.319  64.652  1.00  0.00     0.027 A 
ENDROOT
BRANCH   6  10
HETATM   10  N   UNL     1       5.982  31.681  61.733  1.00  0.00    -0.286 NA
HETATM   11  H   UNL     1       5.115  31.129  61.778  1.00  0.00     0.128 HD
BRANCH  10  12
HETATM   12  C   UNL     1       6.101  32.402  60.457  1.00  0.00     0.149 C 
BRANCH  12  13
HETATM   13  C   UNL     1       7.203  31.740  59.646  1.00  0.00     0.029 A 
HETATM   14  N   UNL     1       6.871  30.524  59.074  1.00  0.00    -0.338 N 
HETATM   15  H   UNL     1       5.934  30.151  59.242  1.00  0.00     0.168 HD
HETATM   16  C   UNL     1       7.738  29.861  58.355  1.00  0.00     0.158 A 
HETATM   17  N   UNL     1       8.953  30.322  58.146  1.00  0.00    -0.269 N 
HETATM   18  S   UNL     1       7.419  28.330  57.604  1.00  0.00    -0.064 SA
HETATM   19  C   UNL     1       9.423  31.545  58.670  1.00  0.00     0.255 A 
HETATM   20  C   UNL     1       9.716  29.480  57.362  1.00  0.00     0.109 A 
HETATM   21  O   UNL     1      10.552  31.943  58.454  1.00  0.00    -0.268 OA
HETATM   22  C   UNL     1       8.425  32.264  59.481  1.00  0.00     0.101 A 
HETATM   23  C   UNL     1       9.057  28.374  56.985  1.00  0.00     0.071 A 
ENDBRANCH  12  13
ENDBRANCH  10  12
ENDBRANCH   6  10
TORSDOF 3
ENDMDL
MODEL 4
REMARK VINA RESULT:      -8.2      5.494      7.217
REMARK  3 active torsions:
REMARK  status: ('A' for Active; 'I' for Inactive)
REMARK    1  A    between atoms: C_6  and  N_7 
REMARK    2  A    between atoms: N_7  and  C_8 
REMARK    3  A    between atoms: C_8  and  C_9 
ROOT
HETATM    1  C   UNL     1       7.739  22.930  54.127  1.00  0.00     0.024 A 
HETATM    2  C   UNL     1       7.850  23.108  55.507  1.00  0.00     0.046 A 
HETATM    3  C   UNL     1       8.197  22.004  56.355  1.00  0.00     0.099 C 
HETATM    4  N   UNL     1       8.487  21.149  57.081  1.00  0.00    -0.191 NA
HETATM    5  C   UNL     1       7.641  24.376  56.077  1.00  0.00     0.047 A 
HETATM    6  C   UNL     1       7.289  25.478  55.286  1.00  0.00     0.032 A 
HETATM    7  C   UNL     1       7.221  25.277  53.887  1.00  0.00     0.055 A 
HETATM    8 CL   UNL     1       6.860  26.603  52.835  1.00  0.00    -0.082 Cl
HETATM    9  C   UNL     1       7.430  24.019  53.314  1.00  0.00     0.027 A 
ENDROOT
BRANCH   6  10
HETATM   10  N   UNL     1       7.161  26.784  55.811  1.00  0.00    -0.286 NA
HETATM   11  H   UNL     1       6.348  27.229  55.365  1.00  0.00     0.128 HD
BRANCH  10  12
HETATM   12  C   UNL     1       7.176  27.012  57.263  1.00  0.00     0.149 C 
BRANCH  12  13
HETATM   13  C   UNL     1       8.061  28.217  57.539  1.00  0.00     0.029 A 
HETATM   14  N   UNL     1       7.589  29.091  58.502  1.00  0.00    -0.338 N 
HETATM   15  H   UNL     1       6.691  28.883  58.945  1.00  0.00     0.168 HD
HETATM   16  C   UNL     1       8.263  30.164  58.823  1.00  0.00     0.158 A 
HETATM   17  N   UNL     1       9.411  30.452  58.248  1.00  0.00    -0.269 N 
HETATM   18  S   UNL     1       7.753  31.321  60.012  1.00  0.00    -0.064 SA
HETATM   19  C   UNL     1      10.005  29.650  57.251  1.00  0.00     0.255 A 
HETATM   20  C   UNL     1       9.968  31.622  58.724  1.00  0.00     0.109 A 
HETATM   21  O   UNL     1      11.070  29.944  56.742  1.00  0.00    -0.268 OA
HETATM   22  C   UNL     1       9.218  28.453  56.906  1.00  0.00     0.101 A 
HETATM   23  C   UNL     1       9.219  32.214  59.667  1.00  0.00     0.071 A 
ENDBRANCH  12  13
ENDBRANCH  10  12
ENDBRANCH   6  10
TORSDOF 3
ENDMDL
MODEL 5
REMARK VINA RESULT:      -8.1      4.494      5.935
REMARK  3 active torsions:
REMARK  status: ('A' for Active; 'I' for Inactive)
REMARK    1  A    between atoms: C_6  and  N_7 
REMARK    2  A    between atoms: N_7  and  C_8 
REMARK    3  A    between atoms: C_8  and  C_9 
ROOT
HETATM    1  C   UNL     1       8.354  22.645  53.637  1.00  0.00     0.024 A 
HETATM    2  C   UNL     1       7.920  22.562  54.961  1.00  0.00     0.046 A 
HETATM    3  C   UNL     1       8.475  21.579  55.846  1.00  0.00     0.099 C 
HETATM    4  N   UNL     1       8.900  20.812  56.604  1.00  0.00    -0.191 NA
HETATM    5  C   UNL     1       6.948  23.455  55.445  1.00  0.00     0.047 A 
HETATM    6  C   UNL     1       6.372  24.423  54.610  1.00  0.00     0.032 A 
HETATM    7  C   UNL     1       6.858  24.508  53.284  1.00  0.00     0.055 A 
HETATM    8 CL   UNL     1       6.248  25.721  52.211  1.00  0.00    -0.082 Cl
HETATM    9  C   UNL     1       7.826  23.625  52.798  1.00  0.00     0.027 A 
ENDROOT
BRANCH   6  10
HETATM   10  N   UNL     1       5.460  25.393  55.083  1.00  0.00    -0.286 NA
HETATM   11  H   UNL     1       4.585  25.297  54.552  1.00  0.00     0.128 HD
BRANCH  10  12
HETATM   12  C   UNL     1       5.207  25.543  56.524  1.00  0.00     0.149 C 
BRANCH  12  13
HETATM   13  C   UNL     1       5.781  26.879  56.965  1.00  0.00     0.029 A 
HETATM   14  N   UNL     1       4.877  27.926  57.015  1.00  0.00    -0.338 N 
HETATM   15  H   UNL     1       3.908  27.741  56.745  1.00  0.00     0.168 HD
HETATM   16  C   UNL     1       5.255  29.123  57.380  1.00  0.00     0.158 A 
HETATM   17  N   UNL     1       6.503  29.378  57.712  1.00  0.00    -0.269 N 
HETATM   18  S   UNL     1       4.200  30.497  57.468  1.00  0.00    -0.064 SA
HETATM   19  C   UNL     1       7.525  28.406  57.703  1.00  0.00     0.255 A 
HETATM   20  C   UNL     1       6.701  30.697  58.068  1.00  0.00     0.109 A 
HETATM   21  O   UNL     1       8.668  28.675  58.020  1.00  0.00    -0.268 OA
HETATM   22  C   UNL     1       7.068  27.070  57.281  1.00  0.00     0.101 A 
HETATM   23  C   UNL     1       5.583  31.434  57.996  1.00  0.00     0.071 A 
ENDBRANCH  12  13
ENDBRANCH  10  12
ENDBRANCH   6  10
TORSDOF 3
ENDMDL
MODEL 6
REMARK VINA RESULT:      -8.0      1.973      2.339
REMARK  3 active torsions:
REMARK  status: ('A' for Active; 'I' for Inactive)
REMARK    1  A    between atoms: C_6  and  N_7 
REMARK    2  A    between atoms: N_7  and  C_8 
REMARK    3  A    between atoms: C_8  and  C_9 
ROOT
HETATM    1  C   UNL     1       8.353  22.979  54.882  1.00  0.00     0.024 A 
HETATM    2  C   UNL     1       8.146  22.469  53.599  1.00  0.00     0.046 A 
HETATM    3  C   UNL     1       8.388  21.082  53.322  1.00  0.00     0.099 C 
HETATM    4  N   UNL     1       8.556  19.968  53.050  1.00  0.00    -0.191 NA
HETATM    5  C   UNL     1       7.680  23.306  52.571  1.00  0.00     0.047 A 
HETATM    6  C   UNL     1       7.443  24.669  52.796  1.00  0.00     0.032 A 
HETATM    7  C   UNL     1       7.625  25.150  54.114  1.00  0.00     0.055 A 
HETATM    8 CL   UNL     1       7.286  26.805  54.491  1.00  0.00    -0.082 Cl
HETATM    9  C   UNL     1       8.085  24.321  55.141  1.00  0.00     0.027 A 
ENDROOT
BRANCH   6  10
HETATM   10  N   UNL     1       6.890  25.520  51.813  1.00  0.00    -0.286 NA
HETATM   11  H   UNL     1       7.334  25.299  50.912  1.00  0.00     0.128 HD
BRANCH  10  12
HETATM   12  C   UNL     1       5.433  25.661  51.678  1.00  0.00     0.149 C 
BRANCH  12  13
HETATM   13  C   UNL     1       5.158  26.614  50.527  1.00  0.00     0.029 A 
HETATM   14  N   UNL     1       5.430  27.947  50.781  1.00  0.00    -0.338 N 
HETATM   15  H   UNL     1       5.777  28.200  51.709  1.00  0.00     0.168 HD
HETATM   16  C   UNL     1       5.233  28.859  49.866  1.00  0.00     0.158 A 
HETATM   17  N   UNL     1       4.771  28.548  48.674  1.00  0.00    -0.269 N 
HETATM   18  S   UNL     1       5.538  30.552  50.091  1.00  0.00    -0.064 SA
HETATM   19  C   UNL     1       4.451  27.231  48.282  1.00  0.00     0.255 A 
HETATM   20  C   UNL     1       4.633  29.648  47.851  1.00  0.00     0.109 A 
HETATM   21  O   UNL     1       4.028  26.978  47.170  1.00  0.00    -0.268 OA
HETATM   22  C   UNL     1       4.677  26.228  49.337  1.00  0.00     0.101 A 
HETATM   23  C   UNL     1       4.997  30.795  48.444  1.00  0.00     0.071 A 
ENDBRANCH  12  13
ENDBRANCH  10  12
ENDBRANCH   6  10
TORSDOF 3
ENDMDL
MODEL 7
REMARK VINA RESULT:      -8.0      4.759      6.223
REMARK  3 active torsions:
REMARK  status: ('A' for Active; 'I' for Inactive)
REMARK    1  A    between atoms: C_6  and  N_7 
REMARK    2  A    between atoms: N_7  and  C_8 
REMARK    3  A    between atoms: C_8  and  C_9 
ROOT
HETATM    1  C   UNL     1       8.278  22.859  52.809  1.00  0.00     0.024 A 
HETATM    2  C   UNL     1       8.076  22.229  54.038  1.00  0.00     0.046 A 
HETATM    3  C   UNL     1       8.437  20.852  54.215  1.00  0.00     0.099 C 
HETATM    4  N   UNL     1       8.724  19.746  54.413  1.00  0.00    -0.191 NA
HETATM    5  C   UNL     1       7.534  22.944  55.120  1.00  0.00     0.047 A 
HETATM    6  C   UNL     1       7.157  24.287  54.986  1.00  0.00     0.032 A 
HETATM    7  C   UNL     1       7.408  24.911  53.741  1.00  0.00     0.055 A 
HETATM    8 CL   UNL     1       7.035  26.585  53.516  1.00  0.00    -0.082 Cl
HETATM    9  C   UNL     1       7.949  24.205  52.662  1.00  0.00     0.027 A 
ENDROOT
BRANCH   6  10
HETATM   10  N   UNL     1       6.694  25.061  56.074  1.00  0.00    -0.286 NA
HETATM   11  H   UNL     1       6.046  24.483  56.625  1.00  0.00     0.128 HD
BRANCH  10  12
HETATM   12  C   UNL     1       7.641  25.786  56.933  1.00  0.00     0.149 C 
BRANCH  12  13
HETATM   13  C   UNL     1       7.081  27.178  57.179  1.00  0.00     0.029 A 
HETATM   14  N   UNL     1       7.920  28.044  57.858  1.00  0.00    -0.338 N 
HETATM   15  H   UNL     1       8.834  27.697  58.156  1.00  0.00     0.168 HD
HETATM   16  C   UNL     1       7.546  29.267  58.127  1.00  0.00     0.158 A 
HETATM   17  N   UNL     1       6.365  29.721  57.764  1.00  0.00    -0.269 N 
HETATM   18  S   UNL     1       8.522  30.424  58.976  1.00  0.00    -0.064 SA
HETATM   19  C   UNL     1       5.413  28.946  57.069  1.00  0.00     0.255 A 
HETATM   20  C   UNL     1       6.160  31.034  58.138  1.00  0.00     0.109 A 
HETATM   21  O   UNL     1       4.331  29.398  56.746  1.00  0.00    -0.268 OA
HETATM   22  C   UNL     1       5.861  27.570  56.788  1.00  0.00     0.101 A 
HETATM   23  C   UNL     1       7.205  31.563  58.791  1.00  0.00     0.071 A 
ENDBRANCH  12  13
ENDBRANCH  10  12
ENDBRANCH   6  10
TORSDOF 3
ENDMDL
MODEL 8
REMARK VINA RESULT:      -7.8      4.368      6.238
REMARK  3 active torsions:
REMARK  status: ('A' for Active; 'I' for Inactive)
REMARK    1  A    between atoms: C_6  and  N_7 
REMARK    2  A    between atoms: N_7  and  C_8 
REMARK    3  A    between atoms: C_8  and  C_9 
ROOT
HETATM    1  C   UNL     1       7.587  24.290  52.155  1.00  0.00     0.024 A 
HETATM    2  C   UNL     1       6.474  25.059  52.498  1.00  0.00     0.046 A 
HETATM    3  C   UNL     1       5.703  25.714  51.480  1.00  0.00     0.099 C 
HETATM    4  N   UNL     1       5.041  26.252  50.696  1.00  0.00    -0.191 NA
HETATM    5  C   UNL     1       6.085  25.182  53.843  1.00  0.00     0.047 A 
HETATM    6  C   UNL     1       6.817  24.568  54.869  1.00  0.00     0.032 A 
HETATM    7  C   UNL     1       7.918  23.765  54.489  1.00  0.00     0.055 A 
HETATM    8 CL   UNL     1       8.831  22.917  55.690  1.00  0.00    -0.082 Cl
HETATM    9  C   UNL     1       8.308  23.637  53.153  1.00  0.00     0.027 A 
ENDROOT
BRANCH   6  10
HETATM   10  N   UNL     1       6.405  24.595  56.221  1.00  0.00    -0.286 NA
HETATM   11  H   UNL     1       7.236  24.759  56.805  1.00  0.00     0.128 HD
BRANCH  10  12
HETATM   12  C   UNL     1       5.272  25.431  56.642  1.00  0.00     0.149 C 
BRANCH  12  13
HETATM   13  C   UNL     1       5.816  26.796  57.032  1.00  0.00     0.029 A 
HETATM   14  N   UNL     1       4.896  27.829  57.011  1.00  0.00    -0.338 N 
HETATM   15  H   UNL     1       3.937  27.616  56.730  1.00  0.00     0.168 HD
HETATM   16  C   UNL     1       5.248  29.048  57.327  1.00  0.00     0.158 A 
HETATM   17  N   UNL     1       6.483  29.338  57.675  1.00  0.00    -0.269 N 
HETATM   18  S   UNL     1       4.171  30.408  57.327  1.00  0.00    -0.064 SA
HETATM   19  C   UNL     1       7.520  28.383  57.736  1.00  0.00     0.255 A 
HETATM   20  C   UNL     1       6.654  30.676  57.972  1.00  0.00     0.109 A 
HETATM   21  O   UNL     1       8.651  28.685  58.065  1.00  0.00    -0.268 OA
HETATM   22  C   UNL     1       7.093  27.022  57.368  1.00  0.00     0.101 A 
HETATM   23  C   UNL     1       5.527  31.390  57.840  1.00  0.00     0.071 A 
ENDBRANCH  12  13
ENDBRANCH  10  12
ENDBRANCH   6  10
TORSDOF 3
ENDMDL
MODEL 9
REMARK VINA RESULT:      -7.6      7.857      9.661
REMARK  3 active torsions:
REMARK  status: ('A' for Active; 'I' for Inactive)
REMARK    1  A    between atoms: C_6  and  N_7 
REMARK    2  A    between atoms: N_7  and  C_8 
REMARK    3  A    between atoms: C_8  and  C_9 
ROOT
HETATM    1  C   UNL     1       7.966  32.208  63.016  1.00  0.00     0.024 A 
HETATM    2  C   UNL     1       6.637  32.386  62.630  1.00  0.00     0.046 A 
HETATM    3  C   UNL     1       5.614  32.581  63.617  1.00  0.00     0.099 C 
HETATM    4  N   UNL     1       4.754  32.755  64.373  1.00  0.00    -0.191 NA
HETATM    5  C   UNL     1       6.291  32.394  61.267  1.00  0.00     0.047 A 
HETATM    6  C   UNL     1       7.257  32.195  60.272  1.00  0.00     0.032 A 
HETATM    7  C   UNL     1       8.601  32.056  60.691  1.00  0.00     0.055 A 
HETATM    8 CL   UNL     1       9.862  31.876  59.520  1.00  0.00    -0.082 Cl
HETATM    9  C   UNL     1       8.951  32.049  62.044  1.00  0.00     0.027 A 
ENDROOT
BRANCH   6  10
HETATM   10  N   UNL     1       6.961  32.287  58.893  1.00  0.00    -0.286 NA
HETATM   11  H   UNL     1       7.820  32.078  58.367  1.00  0.00     0.128 HD
BRANCH  10  12
HETATM   12  C   UNL     1       5.797  31.590  58.329  1.00  0.00     0.149 C 
BRANCH  12  13
HETATM   13  C   UNL     1       6.298  30.357  57.596  1.00  0.00     0.029 A 
HETATM   14  N   UNL     1       5.681  30.093  56.385  1.00  0.00    -0.338 N 
HETATM   15  H   UNL     1       4.937  30.722  56.076  1.00  0.00     0.168 HD
HETATM   16  C   UNL     1       6.028  29.059  55.665  1.00  0.00     0.158 A 
HETATM   17  N   UNL     1       6.973  28.233  56.061  1.00  0.00    -0.269 N 
HETATM   18  S   UNL     1       5.311  28.644  54.141  1.00  0.00    -0.064 SA
HETATM   19  C   UNL     1       7.681  28.381  57.272  1.00  0.00     0.255 A 
HETATM   20  C   UNL     1       7.194  27.206  55.164  1.00  0.00     0.109 A 
HETATM   21  O   UNL     1       8.551  27.600  57.605  1.00  0.00    -0.268 OA
HETATM   22  C   UNL     1       7.262  29.551  58.063  1.00  0.00     0.101 A 
HETATM   23  C   UNL     1       6.398  27.271  54.086  1.00  0.00     0.071 A 
ENDBRANCH  12  13
ENDBRANCH  10  12
ENDBRANCH   6  10
TORSDOF 3
ENDMDL
MODEL 10
REMARK VINA RESULT:      -7.6      5.693      8.149
REMARK  3 active torsions:
REMARK  status: ('A' for Active; 'I' for Inactive)
REMARK    1  A    between atoms: C_6  and  N_7 
REMARK    2  A    between atoms: N_7  and  C_8 
REMARK    3  A    between atoms: C_8  and  C_9 
ROOT
HETATM    1  C   UNL     1       9.112  32.094  59.269  1.00  0.00     0.024 A 
HETATM    2  C   UNL     1       7.929  31.368  59.420  1.00  0.00     0.046 A 
HETATM    3  C   UNL     1       6.827  31.921  60.152  1.00  0.00     0.099 C 
HETATM    4  N   UNL     1       5.904  32.328  60.723  1.00  0.00    -0.191 NA
HETATM    5  C   UNL     1       7.801  30.095  58.837  1.00  0.00     0.047 A 
HETATM    6  C   UNL     1       8.858  29.513  58.124  1.00  0.00     0.032 A 
HETATM    7  C   UNL     1      10.030  30.287  57.955  1.00  0.00     0.055 A 
HETATM    8 CL   UNL     1      11.354  29.668  57.029  1.00  0.00    -0.082 Cl
HETATM    9  C   UNL     1      10.163  31.554  58.530  1.00  0.00     0.027 A 
ENDROOT
BRANCH   6  10
HETATM   10  N   UNL     1       8.733  28.278  57.450  1.00  0.00    -0.286 NA
HETATM   11  H   UNL     1       9.275  27.574  57.969  1.00  0.00     0.128 HD
BRANCH  10  12
HETATM   12  C   UNL     1       7.411  27.766  57.061  1.00  0.00     0.149 C 
BRANCH  12  13
HETATM   13  C   UNL     1       7.603  26.388  56.450  1.00  0.00     0.029 A 
HETATM   14  N   UNL     1       7.485  26.327  55.072  1.00  0.00    -0.338 N 
HETATM   15  H   UNL     1       7.268  27.189  54.568  1.00  0.00     0.168 HD
HETATM   16  C   UNL     1       7.629  25.195  54.435  1.00  0.00     0.158 A 
HETATM   17  N   UNL     1       7.891  24.075  55.074  1.00  0.00    -0.269 N 
HETATM   18  S   UNL     1       7.494  25.017  52.714  1.00  0.00    -0.064 SA
HETATM   19  C   UNL     1       8.035  23.994  56.475  1.00  0.00     0.255 A 
HETATM   20  C   UNL     1       8.008  22.992  54.226  1.00  0.00     0.109 A 
HETATM   21  O   UNL     1       8.281  22.941  57.034  1.00  0.00    -0.268 OA
HETATM   22  C   UNL     1       7.860  25.284  57.165  1.00  0.00     0.101 A 
HETATM   23  C   UNL     1       7.827  23.313  52.937  1.00  0.00     0.071 A 
ENDBRANCH  12  13
ENDBRANCH  10  12
ENDBRANCH   6  10
TORSDOF 3
ENDMDL
