MODEL 1
REMARK VINA RESULT:      -8.2      0.000      0.000
REMARK  10 active torsions:
REMARK  status: ('A' for Active; 'I' for Inactive)
REMARK    1  A    between atoms: C_2  and  C_3 
REMARK    2  A    between atoms: C_3  and  C_4 
REMARK    3  A    between atoms: C_4  and  N_5 
REMARK    4  A    between atoms: N_5  and  C_7 
REMARK    5  A    between atoms: C_7  and  C_8 
REMARK    6  A    between atoms: C_8  and  C_9 
REMARK    7  A    between atoms: C_9  and  N_10 
REMARK       I    between atoms: N_10  and  C_11 
REMARK    8  A    between atoms: C_11  and  C_12 
REMARK    9  A    between atoms: C_12  and  O_13 
REMARK   10  A    between atoms: N_14  and  C_15 
ROOT
HETATM    1  C   UNL     1       7.076  24.943  54.121  1.00  0.00     0.256 C 
HETATM    2  N   UNL     1       6.748  25.527  55.438  1.00  0.00    -0.254 N 
HETATM    3  C   UNL     1       7.134  24.886  56.607  1.00  0.00     0.330 C 
HETATM    4  O   UNL     1       7.106  25.368  57.739  1.00  0.00    -0.246 OA
HETATM    5  N   UNL     1       7.543  23.592  56.518  1.00  0.00    -0.308 N 
HETATM    6  C   UNL     1       7.633  22.839  55.364  1.00  0.00     0.048 A 
HETATM    7  C   UNL     1       7.396  23.453  54.144  1.00  0.00     0.034 A 
HETATM    8  C   UNL     1       7.965  21.485  55.445  1.00  0.00     0.030 A 
HETATM    9  C   UNL     1       8.055  20.723  54.283  1.00  0.00     0.002 A 
HETATM   10  C   UNL     1       7.831  21.318  53.045  1.00  0.00     0.001 A 
HETATM   11  C   UNL     1       7.514  22.676  52.972  1.00  0.00     0.015 A 
HETATM   12  H   UNL     1       7.780  23.179  57.414  1.00  0.00     0.170 HD
ENDROOT
BRANCH   1  13
HETATM   13  C   UNL     1       5.796  25.100  53.162  1.00  0.00     0.279 C 
HETATM   14  N   UNL     1       5.984  25.931  52.058  1.00  0.00    -0.356 N 
HETATM   15  H   UNL     1       6.966  26.098  51.841  1.00  0.00     0.162 HD
HETATM   16  O   UNL     1       4.681  24.666  53.468  1.00  0.00    -0.268 OA
BRANCH  14  17
HETATM   17  C   UNL     1       5.084  26.022  50.922  1.00  0.00     0.124 C 
BRANCH  17  18
HETATM   18  C   UNL     1       5.163  27.283  50.060  1.00  0.00     0.047 C 
BRANCH  18  19
HETATM   19  C   UNL     1       4.136  28.338  50.459  1.00  0.00     0.236 C 
BRANCH  19  20
HETATM   20  N   UNL     1       2.750  28.032  49.901  1.00  0.00    -0.075 N 
HETATM   21  H   UNL     1       2.475  27.099  50.232  1.00  0.00     0.279 HD
HETATM   22  C   UNL     1       1.693  28.995  50.406  1.00  0.00     0.269 C 
BRANCH  20  23
HETATM   23  C   UNL     1       2.721  28.018  48.383  1.00  0.00     0.234 C 
BRANCH  23  24
HETATM   24  C   UNL     1       1.933  26.852  47.791  1.00  0.00     0.027 C 
BRANCH  24  25
HETATM   25  C   UNL     1       2.806  25.774  47.150  1.00  0.00    -0.003 C 
HETATM   26  C   UNL     1       3.008  24.600  48.096  1.00  0.00     0.005 C 
ENDBRANCH  24  25
ENDBRANCH  23  24
ENDBRANCH  20  23
ENDBRANCH  19  20
ENDBRANCH  18  19
ENDBRANCH  17  18
ENDBRANCH  14  17
ENDBRANCH   1  13
BRANCH   1  27
HETATM   27  O   UNL     1       8.229  25.609  53.622  1.00  0.00    -0.359 OA
HETATM   28  H   UNL     1       8.990  25.354  54.166  1.00  0.00     0.213 HD
ENDBRANCH   1  27
BRANCH   2  29
HETATM   29  C   UNL     1       6.178  26.864  55.502  1.00  0.00     0.042 A 
HETATM   30  C   UNL     1       4.829  27.089  55.828  1.00  0.00     0.030 A 
HETATM   31  C   UNL     1       4.314  28.385  55.956  1.00  0.00     0.002 A 
HETATM   32  C   UNL     1       5.137  29.488  55.764  1.00  0.00     0.000 A 
HETATM   33  C   UNL     1       6.474  29.294  55.440  1.00  0.00     0.002 A 
HETATM   34  C   UNL     1       6.986  27.998  55.313  1.00  0.00     0.030 A 
ENDBRANCH   2  29
TORSDOF 10
ENDMDL
MODEL 2
REMARK VINA RESULT:      -8.1      3.572      7.895
REMARK  10 active torsions:
REMARK  status: ('A' for Active; 'I' for Inactive)
REMARK    1  A    between atoms: C_2  and  C_3 
REMARK    2  A    between atoms: C_3  and  C_4 
REMARK    3  A    between atoms: C_4  and  N_5 
REMARK    4  A    between atoms: N_5  and  C_7 
REMARK    5  A    between atoms: C_7  and  C_8 
REMARK    6  A    between atoms: C_8  and  C_9 
REMARK    7  A    between atoms: C_9  and  N_10 
REMARK       I    between atoms: N_10  and  C_11 
REMARK    8  A    between atoms: C_11  and  C_12 
REMARK    9  A    between atoms: C_12  and  O_13 
REMARK   10  A    between atoms: N_14  and  C_15 
ROOT
HETATM    1  C   UNL     1       6.124  26.450  54.412  1.00  0.00     0.256 C 
HETATM    2  N   UNL     1       5.632  26.606  53.028  1.00  0.00    -0.254 N 
HETATM    3  C   UNL     1       5.592  25.516  52.169  1.00  0.00     0.330 C 
HETATM    4  O   UNL     1       5.018  25.473  51.082  1.00  0.00    -0.246 OA
HETATM    5  N   UNL     1       6.283  24.400  52.525  1.00  0.00    -0.308 N 
HETATM    6  C   UNL     1       7.018  24.225  53.681  1.00  0.00     0.048 A 
HETATM    7  C   UNL     1       6.990  25.218  54.648  1.00  0.00     0.034 A 
HETATM    8  C   UNL     1       7.764  23.059  53.857  1.00  0.00     0.030 A 
HETATM    9  C   UNL     1       8.508  22.880  55.021  1.00  0.00     0.002 A 
HETATM   10  C   UNL     1       8.489  23.858  56.011  1.00  0.00     0.001 A 
HETATM   11  C   UNL     1       7.727  25.015  55.833  1.00  0.00     0.015 A 
HETATM   12  H   UNL     1       6.234  23.656  51.837  1.00  0.00     0.170 HD
ENDROOT
BRANCH   1  13
HETATM   13  C   UNL     1       7.053  27.712  54.767  1.00  0.00     0.279 C 
HETATM   14  N   UNL     1       6.550  28.556  55.755  1.00  0.00    -0.356 N 
HETATM   15  H   UNL     1       5.819  28.126  56.321  1.00  0.00     0.162 HD
HETATM   16  O   UNL     1       8.047  28.012  54.098  1.00  0.00    -0.268 OA
BRANCH  14  17
HETATM   17  C   UNL     1       7.309  29.596  56.428  1.00  0.00     0.124 C 
BRANCH  17  18
HETATM   18  C   UNL     1       8.324  29.155  57.484  1.00  0.00     0.047 C 
BRANCH  18  19
HETATM   19  C   UNL     1       8.221  29.960  58.776  1.00  0.00     0.236 C 
BRANCH  19  20
HETATM   20  N   UNL     1       9.528  30.666  59.120  1.00  0.00    -0.075 N 
HETATM   21  H   UNL     1      10.077  30.039  59.721  1.00  0.00     0.279 HD
HETATM   22  C   UNL     1      10.380  30.943  57.897  1.00  0.00     0.269 C 
BRANCH  20  23
HETATM   23  C   UNL     1       9.309  31.965  59.875  1.00  0.00     0.234 C 
BRANCH  23  24
HETATM   24  C   UNL     1       9.636  31.877  61.364  1.00  0.00     0.027 C 
BRANCH  24  25
HETATM   25  C   UNL     1       8.497  31.321  62.218  1.00  0.00    -0.003 C 
HETATM   26  C   UNL     1       8.045  32.336  63.257  1.00  0.00     0.005 C 
ENDBRANCH  24  25
ENDBRANCH  23  24
ENDBRANCH  20  23
ENDBRANCH  19  20
ENDBRANCH  18  19
ENDBRANCH  17  18
ENDBRANCH  14  17
ENDBRANCH   1  13
BRANCH   1  27
HETATM   27  O   UNL     1       4.994  26.334  55.268  1.00  0.00    -0.359 OA
HETATM   28  H   UNL     1       4.331  26.985  54.990  1.00  0.00     0.213 HD
ENDBRANCH   1  27
BRANCH   2  29
HETATM   29  C   UNL     1       5.022  27.863  52.626  1.00  0.00     0.042 A 
HETATM   30  C   UNL     1       5.641  28.742  51.720  1.00  0.00     0.030 A 
HETATM   31  C   UNL     1       5.008  29.914  51.289  1.00  0.00     0.002 A 
HETATM   32  C   UNL     1       3.738  30.235  51.751  1.00  0.00     0.000 A 
HETATM   33  C   UNL     1       3.103  29.385  52.649  1.00  0.00     0.002 A 
HETATM   34  C   UNL     1       3.738  28.215  53.078  1.00  0.00     0.030 A 
ENDBRANCH   2  29
TORSDOF 10
ENDMDL
MODEL 3
REMARK VINA RESULT:      -8.0      3.159      7.637
REMARK  10 active torsions:
REMARK  status: ('A' for Active; 'I' for Inactive)
REMARK    1  A    between atoms: C_2  and  C_3 
REMARK    2  A    between atoms: C_3  and  C_4 
REMARK    3  A    between atoms: C_4  and  N_5 
REMARK    4  A    between atoms: N_5  and  C_7 
REMARK    5  A    between atoms: C_7  and  C_8 
REMARK    6  A    between atoms: C_8  and  C_9 
REMARK    7  A    between atoms: C_9  and  N_10 
REMARK       I    between atoms: N_10  and  C_11 
REMARK    8  A    between atoms: C_11  and  C_12 
REMARK    9  A    between atoms: C_12  and  O_13 
REMARK   10  A    between atoms: N_14  and  C_15 
ROOT
HETATM    1  C   UNL     1       6.636  28.666  55.512  1.00  0.00     0.256 C 
HETATM    2  N   UNL     1       5.716  28.397  54.388  1.00  0.00    -0.254 N 
HETATM    3  C   UNL     1       4.901  29.404  53.890  1.00  0.00     0.330 C 
HETATM    4  O   UNL     1       4.259  29.363  52.841  1.00  0.00    -0.246 OA
HETATM    5  N   UNL     1       4.752  30.530  54.639  1.00  0.00    -0.308 N 
HETATM    6  C   UNL     1       5.351  30.790  55.856  1.00  0.00     0.048 A 
HETATM    7  C   UNL     1       6.284  29.891  56.348  1.00  0.00     0.034 A 
HETATM    8  C   UNL     1       5.013  31.947  56.559  1.00  0.00     0.030 A 
HETATM    9  C   UNL     1       5.615  32.212  57.787  1.00  0.00     0.002 A 
HETATM   10  C   UNL     1       6.562  31.329  58.299  1.00  0.00     0.001 A 
HETATM   11  C   UNL     1       6.904  30.181  57.581  1.00  0.00     0.015 A 
HETATM   12  H   UNL     1       4.119  31.208  54.229  1.00  0.00     0.170 HD
ENDROOT
BRANCH   1  13
HETATM   13  C   UNL     1       6.582  27.417  56.523  1.00  0.00     0.279 C 
HETATM   14  N   UNL     1       7.754  26.666  56.595  1.00  0.00    -0.356 N 
HETATM   15  H   UNL     1       8.572  27.155  56.232  1.00  0.00     0.162 HD
HETATM   16  O   UNL     1       5.535  27.044  57.060  1.00  0.00    -0.268 OA
BRANCH  14  17
HETATM   17  C   UNL     1       8.042  25.668  57.611  1.00  0.00     0.124 C 
BRANCH  17  18
HETATM   18  C   UNL     1       9.020  24.551  57.244  1.00  0.00     0.047 C 
BRANCH  18  19
HETATM   19  C   UNL     1       8.451  23.159  57.503  1.00  0.00     0.236 C 
BRANCH  19  20
HETATM   20  N   UNL     1       8.532  22.265  56.270  1.00  0.00    -0.075 N 
HETATM   21  H   UNL     1       9.516  22.213  55.981  1.00  0.00     0.279 HD
HETATM   22  C   UNL     1       8.092  20.843  56.553  1.00  0.00     0.269 C 
BRANCH  20  23
HETATM   23  C   UNL     1       7.729  22.808  55.102  1.00  0.00     0.234 C 
BRANCH  23  24
HETATM   24  C   UNL     1       8.417  22.642  53.749  1.00  0.00     0.027 C 
BRANCH  24  25
HETATM   25  C   UNL     1       7.837  21.517  52.892  1.00  0.00    -0.003 C 
HETATM   26  C   UNL     1       8.702  20.268  52.968  1.00  0.00     0.005 C 
ENDBRANCH  24  25
ENDBRANCH  23  24
ENDBRANCH  20  23
ENDBRANCH  19  20
ENDBRANCH  18  19
ENDBRANCH  17  18
ENDBRANCH  14  17
ENDBRANCH   1  13
BRANCH   1  27
HETATM   27  O   UNL     1       7.933  28.888  54.973  1.00  0.00    -0.359 OA
HETATM   28  H   UNL     1       8.164  29.821  55.104  1.00  0.00     0.213 HD
ENDBRANCH   1  27
BRANCH   2  29
HETATM   29  C   UNL     1       5.799  27.124  53.689  1.00  0.00     0.042 A 
HETATM   30  C   UNL     1       4.765  26.173  53.739  1.00  0.00     0.030 A 
HETATM   31  C   UNL     1       4.830  24.983  53.002  1.00  0.00     0.002 A 
HETATM   32  C   UNL     1       5.928  24.718  52.194  1.00  0.00     0.000 A 
HETATM   33  C   UNL     1       6.965  25.641  52.128  1.00  0.00     0.002 A 
HETATM   34  C   UNL     1       6.898  26.829  52.864  1.00  0.00     0.030 A 
ENDBRANCH   2  29
TORSDOF 10
ENDMDL
MODEL 4
REMARK VINA RESULT:      -7.9      1.454      4.785
REMARK  10 active torsions:
REMARK  status: ('A' for Active; 'I' for Inactive)
REMARK    1  A    between atoms: C_2  and  C_3 
REMARK    2  A    between atoms: C_3  and  C_4 
REMARK    3  A    between atoms: C_4  and  N_5 
REMARK    4  A    between atoms: N_5  and  C_7 
REMARK    5  A    between atoms: C_7  and  C_8 
REMARK    6  A    between atoms: C_8  and  C_9 
REMARK    7  A    between atoms: C_9  and  N_10 
REMARK       I    between atoms: N_10  and  C_11 
REMARK    8  A    between atoms: C_11  and  C_12 
REMARK    9  A    between atoms: C_12  and  O_13 
REMARK   10  A    between atoms: N_14  and  C_15 
ROOT
HETATM    1  C   UNL     1       6.121  25.317  55.751  1.00  0.00     0.256 C 
HETATM    2  N   UNL     1       7.425  24.634  55.885  1.00  0.00    -0.254 N 
HETATM    3  C   UNL     1       8.367  25.092  56.795  1.00  0.00     0.330 C 
HETATM    4  O   UNL     1       9.386  24.495  57.143  1.00  0.00    -0.246 OA
HETATM    5  N   UNL     1       8.188  26.330  57.329  1.00  0.00    -0.308 N 
HETATM    6  C   UNL     1       7.139  27.190  57.070  1.00  0.00     0.048 A 
HETATM    7  C   UNL     1       6.090  26.747  56.279  1.00  0.00     0.034 A 
HETATM    8  C   UNL     1       7.149  28.477  57.610  1.00  0.00     0.030 A 
HETATM    9  C   UNL     1       6.093  29.346  57.350  1.00  0.00     0.002 A 
HETATM   10  C   UNL     1       5.024  28.922  56.567  1.00  0.00     0.001 A 
HETATM   11  C   UNL     1       5.015  27.627  56.042  1.00  0.00     0.015 A 
HETATM   12  H   UNL     1       8.930  26.610  57.961  1.00  0.00     0.170 HD
ENDROOT
BRANCH   1  13
HETATM   13  C   UNL     1       5.759  25.419  54.189  1.00  0.00     0.279 C 
HETATM   14  N   UNL     1       6.513  26.345  53.468  1.00  0.00    -0.356 N 
HETATM   15  H   UNL     1       7.372  26.623  53.942  1.00  0.00     0.162 HD
HETATM   16  O   UNL     1       4.776  24.857  53.698  1.00  0.00    -0.268 OA
BRANCH  14  17
HETATM   17  C   UNL     1       6.560  26.432  52.019  1.00  0.00     0.124 C 
BRANCH  17  18
HETATM   18  C   UNL     1       5.430  27.193  51.322  1.00  0.00     0.047 C 
BRANCH  18  19
HETATM   19  C   UNL     1       4.826  26.416  50.157  1.00  0.00     0.236 C 
BRANCH  19  20
HETATM   20  N   UNL     1       3.616  27.126  49.558  1.00  0.00    -0.075 N 
HETATM   21  H   UNL     1       2.777  26.787  50.044  1.00  0.00     0.279 HD
HETATM   22  C   UNL     1       3.657  28.626  49.771  1.00  0.00     0.269 C 
BRANCH  20  23
HETATM   23  C   UNL     1       3.446  26.841  48.076  1.00  0.00     0.234 C 
BRANCH  23  24
HETATM   24  C   UNL     1       2.440  27.756  47.383  1.00  0.00     0.027 C 
BRANCH  24  25
HETATM   25  C   UNL     1       0.985  27.322  47.553  1.00  0.00    -0.003 C 
HETATM   26  C   UNL     1       0.217  27.452  46.246  1.00  0.00     0.005 C 
ENDBRANCH  24  25
ENDBRANCH  23  24
ENDBRANCH  20  23
ENDBRANCH  19  20
ENDBRANCH  18  19
ENDBRANCH  17  18
ENDBRANCH  14  17
ENDBRANCH   1  13
BRANCH   1  27
HETATM   27  O   UNL     1       5.162  24.577  56.496  1.00  0.00    -0.359 OA
HETATM   28  H   UNL     1       5.566  23.739  56.770  1.00  0.00     0.213 HD
ENDBRANCH   1  27
BRANCH   2  29
HETATM   29  C   UNL     1       7.645  23.376  55.190  1.00  0.00     0.042 A 
HETATM   30  C   UNL     1       8.121  23.323  53.868  1.00  0.00     0.030 A 
HETATM   31  C   UNL     1       8.395  22.103  53.237  1.00  0.00     0.002 A 
HETATM   32  C   UNL     1       8.203  20.906  53.915  1.00  0.00     0.000 A 
HETATM   33  C   UNL     1       7.732  20.929  55.222  1.00  0.00     0.002 A 
HETATM   34  C   UNL     1       7.459  22.149  55.849  1.00  0.00     0.030 A 
ENDBRANCH   2  29
TORSDOF 10
ENDMDL
MODEL 5
REMARK VINA RESULT:      -7.4      1.935      2.677
REMARK  10 active torsions:
REMARK  status: ('A' for Active; 'I' for Inactive)
REMARK    1  A    between atoms: C_2  and  C_3 
REMARK    2  A    between atoms: C_3  and  C_4 
REMARK    3  A    between atoms: C_4  and  N_5 
REMARK    4  A    between atoms: N_5  and  C_7 
REMARK    5  A    between atoms: C_7  and  C_8 
REMARK    6  A    between atoms: C_8  and  C_9 
REMARK    7  A    between atoms: C_9  and  N_10 
REMARK       I    between atoms: N_10  and  C_11 
REMARK    8  A    between atoms: C_11  and  C_12 
REMARK    9  A    between atoms: C_12  and  O_13 
REMARK   10  A    between atoms: N_14  and  C_15 
ROOT
HETATM    1  C   UNL     1       7.224  27.226  54.523  1.00  0.00     0.256 C 
HETATM    2  N   UNL     1       7.037  27.283  55.987  1.00  0.00    -0.254 N 
HETATM    3  C   UNL     1       7.524  26.267  56.798  1.00  0.00     0.330 C 
HETATM    4  O   UNL     1       7.615  26.301  58.025  1.00  0.00    -0.246 OA
HETATM    5  N   UNL     1       7.897  25.102  56.203  1.00  0.00    -0.308 N 
HETATM    6  C   UNL     1       7.860  24.824  54.851  1.00  0.00     0.048 A 
HETATM    7  C   UNL     1       7.517  25.836  53.969  1.00  0.00     0.034 A 
HETATM    8  C   UNL     1       8.173  23.541  54.400  1.00  0.00     0.030 A 
HETATM    9  C   UNL     1       8.136  23.257  53.037  1.00  0.00     0.002 A 
HETATM   10  C   UNL     1       7.804  24.259  52.130  1.00  0.00     0.001 A 
HETATM   11  C   UNL     1       7.506  25.544  52.589  1.00  0.00     0.015 A 
HETATM   12  H   UNL     1       8.213  24.395  56.859  1.00  0.00     0.170 HD
ENDROOT
BRANCH   1  13
HETATM   13  C   UNL     1       5.860  27.699  53.817  1.00  0.00     0.279 C 
HETATM   14  N   UNL     1       5.925  28.935  53.175  1.00  0.00    -0.356 N 
HETATM   15  H   UNL     1       6.879  29.242  52.986  1.00  0.00     0.162 HD
HETATM   16  O   UNL     1       4.790  27.105  53.979  1.00  0.00    -0.268 OA
BRANCH  14  17
HETATM   17  C   UNL     1       4.925  29.449  52.256  1.00  0.00     0.124 C 
BRANCH  17  18
HETATM   18  C   UNL     1       5.398  29.869  50.864  1.00  0.00     0.047 C 
BRANCH  18  19
HETATM   19  C   UNL     1       4.289  30.500  50.028  1.00  0.00     0.236 C 
BRANCH  19  20
HETATM   20  N   UNL     1       4.148  29.836  48.662  1.00  0.00    -0.075 N 
HETATM   21  H   UNL     1       3.183  29.493  48.576  1.00  0.00     0.279 HD
HETATM   22  C   UNL     1       4.363  30.806  47.518  1.00  0.00     0.269 C 
BRANCH  20  23
HETATM   23  C   UNL     1       5.082  28.651  48.490  1.00  0.00     0.234 C 
BRANCH  23  24
HETATM   24  C   UNL     1       4.464  27.483  47.725  1.00  0.00     0.027 C 
BRANCH  24  25
HETATM   25  C   UNL     1       4.237  26.235  48.577  1.00  0.00    -0.003 C 
HETATM   26  C   UNL     1       4.813  26.412  49.974  1.00  0.00     0.005 C 
ENDBRANCH  24  25
ENDBRANCH  23  24
ENDBRANCH  20  23
ENDBRANCH  19  20
ENDBRANCH  18  19
ENDBRANCH  17  18
ENDBRANCH  14  17
ENDBRANCH   1  13
BRANCH   1  27
HETATM   27  O   UNL     1       8.335  28.049  54.192  1.00  0.00    -0.359 OA
HETATM   28  H   UNL     1       8.469  28.013  53.232  1.00  0.00     0.213 HD
ENDBRANCH   1  27
BRANCH   2  29
HETATM   29  C   UNL     1       6.501  28.493  56.590  1.00  0.00     0.042 A 
HETATM   30  C   UNL     1       7.290  29.637  56.803  1.00  0.00     0.030 A 
HETATM   31  C   UNL     1       6.741  30.818  57.320  1.00  0.00     0.002 A 
HETATM   32  C   UNL     1       5.389  30.884  57.632  1.00  0.00     0.000 A 
HETATM   33  C   UNL     1       4.587  29.767  57.433  1.00  0.00     0.002 A 
HETATM   34  C   UNL     1       5.137  28.589  56.917  1.00  0.00     0.030 A 
ENDBRANCH   2  29
TORSDOF 10
ENDMDL
MODEL 6
REMARK VINA RESULT:      -7.4      2.155      7.512
REMARK  10 active torsions:
REMARK  status: ('A' for Active; 'I' for Inactive)
REMARK    1  A    between atoms: C_2  and  C_3 
REMARK    2  A    between atoms: C_3  and  C_4 
REMARK    3  A    between atoms: C_4  and  N_5 
REMARK    4  A    between atoms: N_5  and  C_7 
REMARK    5  A    between atoms: C_7  and  C_8 
REMARK    6  A    between atoms: C_8  and  C_9 
REMARK    7  A    between atoms: C_9  and  N_10 
REMARK       I    between atoms: N_10  and  C_11 
REMARK    8  A    between atoms: C_11  and  C_12 
REMARK    9  A    between atoms: C_12  and  O_13 
REMARK   10  A    between atoms: N_14  and  C_15 
ROOT
HETATM    1  C   UNL     1       5.530  27.980  52.676  1.00  0.00     0.256 C 
HETATM    2  N   UNL     1       4.450  28.343  51.735  1.00  0.00    -0.254 N 
HETATM    3  C   UNL     1       3.436  29.206  52.128  1.00  0.00     0.330 C 
HETATM    4  O   UNL     1       2.613  29.740  51.386  1.00  0.00    -0.246 OA
HETATM    5  N   UNL     1       3.298  29.462  53.457  1.00  0.00    -0.308 N 
HETATM    6  C   UNL     1       4.085  28.959  54.474  1.00  0.00     0.048 A 
HETATM    7  C   UNL     1       5.198  28.202  54.147  1.00  0.00     0.034 A 
HETATM    8  C   UNL     1       3.751  29.226  55.803  1.00  0.00     0.030 A 
HETATM    9  C   UNL     1       4.542  28.720  56.831  1.00  0.00     0.002 A 
HETATM   10  C   UNL     1       5.671  27.964  56.529  1.00  0.00     0.001 A 
HETATM   11  C   UNL     1       6.005  27.715  55.196  1.00  0.00     0.015 A 
HETATM   12  H   UNL     1       2.519  30.075  53.672  1.00  0.00     0.170 HD
ENDROOT
BRANCH   1  13
HETATM   13  C   UNL     1       5.826  26.407  52.527  1.00  0.00     0.279 C 
HETATM   14  N   UNL     1       7.031  26.091  51.900  1.00  0.00    -0.356 N 
HETATM   15  H   UNL     1       7.691  26.868  51.877  1.00  0.00     0.162 HD
HETATM   16  O   UNL     1       4.980  25.546  52.784  1.00  0.00    -0.268 OA
BRANCH  14  17
HETATM   17  C   UNL     1       7.640  24.772  51.885  1.00  0.00     0.124 C 
BRANCH  17  18
HETATM   18  C   UNL     1       8.004  24.149  53.234  1.00  0.00     0.047 C 
BRANCH  18  19
HETATM   19  C   UNL     1       8.061  22.626  53.185  1.00  0.00     0.236 C 
BRANCH  19  20
HETATM   20  N   UNL     1       7.688  21.992  54.521  1.00  0.00    -0.075 N 
HETATM   21  H   UNL     1       6.863  21.399  54.370  1.00  0.00     0.279 HD
HETATM   22  C   UNL     1       8.776  21.084  55.059  1.00  0.00     0.269 C 
BRANCH  20  23
HETATM   23  C   UNL     1       7.336  23.023  55.579  1.00  0.00     0.234 C 
BRANCH  23  24
HETATM   24  C   UNL     1       8.280  23.022  56.779  1.00  0.00     0.027 C 
BRANCH  24  25
HETATM   25  C   UNL     1       9.007  24.348  56.998  1.00  0.00    -0.003 C 
HETATM   26  C   UNL     1       8.068  25.401  57.568  1.00  0.00     0.005 C 
ENDBRANCH  24  25
ENDBRANCH  23  24
ENDBRANCH  20  23
ENDBRANCH  19  20
ENDBRANCH  18  19
ENDBRANCH  17  18
ENDBRANCH  14  17
ENDBRANCH   1  13
BRANCH   1  27
HETATM   27  O   UNL     1       6.660  28.789  52.376  1.00  0.00    -0.359 OA
HETATM   28  H   UNL     1       6.346  29.646  52.048  1.00  0.00     0.213 HD
ENDBRANCH   1  27
BRANCH   2  29
HETATM   29  C   UNL     1       4.551  27.935  50.343  1.00  0.00     0.042 A 
HETATM   30  C   UNL     1       5.316  28.651  49.406  1.00  0.00     0.030 A 
HETATM   31  C   UNL     1       5.460  28.206  48.086  1.00  0.00     0.002 A 
HETATM   32  C   UNL     1       4.846  27.030  47.672  1.00  0.00     0.000 A 
HETATM   33  C   UNL     1       4.082  26.304  48.578  1.00  0.00     0.002 A 
HETATM   34  C   UNL     1       3.940  26.751  49.896  1.00  0.00     0.030 A 
ENDBRANCH   2  29
TORSDOF 10
ENDMDL
MODEL 7
REMARK VINA RESULT:      -7.2      3.387      8.278
REMARK  10 active torsions:
REMARK  status: ('A' for Active; 'I' for Inactive)
REMARK    1  A    between atoms: C_2  and  C_3 
REMARK    2  A    between atoms: C_3  and  C_4 
REMARK    3  A    between atoms: C_4  and  N_5 
REMARK    4  A    between atoms: N_5  and  C_7 
REMARK    5  A    between atoms: C_7  and  C_8 
REMARK    6  A    between atoms: C_8  and  C_9 
REMARK    7  A    between atoms: C_9  and  N_10 
REMARK       I    between atoms: N_10  and  C_11 
REMARK    8  A    between atoms: C_11  and  C_12 
REMARK    9  A    between atoms: C_12  and  O_13 
REMARK   10  A    between atoms: N_14  and  C_15 
ROOT
HETATM    1  C   UNL     1       6.104  28.100  53.162  1.00  0.00     0.256 C 
HETATM    2  N   UNL     1       6.136  26.653  53.461  1.00  0.00    -0.254 N 
HETATM    3  C   UNL     1       6.129  25.723  52.431  1.00  0.00     0.330 C 
HETATM    4  O   UNL     1       6.360  24.520  52.542  1.00  0.00    -0.246 OA
HETATM    5  N   UNL     1       5.794  26.155  51.185  1.00  0.00    -0.308 N 
HETATM    6  C   UNL     1       5.472  27.449  50.826  1.00  0.00     0.048 A 
HETATM    7  C   UNL     1       5.592  28.456  51.772  1.00  0.00     0.034 A 
HETATM    8  C   UNL     1       5.042  27.719  49.526  1.00  0.00     0.030 A 
HETATM    9  C   UNL     1       4.715  29.023  49.161  1.00  0.00     0.002 A 
HETATM   10  C   UNL     1       4.836  30.053  50.089  1.00  0.00     0.001 A 
HETATM   11  C   UNL     1       5.282  29.775  51.384  1.00  0.00     0.015 A 
HETATM   12  H   UNL     1       5.780  25.416  50.491  1.00  0.00     0.170 HD
ENDROOT
BRANCH   1  13
HETATM   13  C   UNL     1       5.098  28.811  54.194  1.00  0.00     0.279 C 
HETATM   14  N   UNL     1       5.711  29.575  55.185  1.00  0.00    -0.356 N 
HETATM   15  H   UNL     1       6.676  29.821  54.967  1.00  0.00     0.162 HD
HETATM   16  O   UNL     1       3.889  28.560  54.220  1.00  0.00    -0.268 OA
BRANCH  14  17
HETATM   17  C   UNL     1       5.025  30.513  56.057  1.00  0.00     0.124 C 
BRANCH  17  18
HETATM   18  C   UNL     1       5.781  31.009  57.291  1.00  0.00     0.047 C 
BRANCH  18  19
HETATM   19  C   UNL     1       6.795  29.995  57.811  1.00  0.00     0.236 C 
BRANCH  19  20
HETATM   20  N   UNL     1       7.414  30.427  59.136  1.00  0.00    -0.075 N 
HETATM   21  H   UNL     1       7.068  29.794  59.868  1.00  0.00     0.279 HD
HETATM   22  C   UNL     1       8.924  30.304  59.141  1.00  0.00     0.269 C 
BRANCH  20  23
HETATM   23  C   UNL     1       7.031  31.844  59.525  1.00  0.00     0.234 C 
BRANCH  23  24
HETATM   24  C   UNL     1       6.825  32.038  61.026  1.00  0.00     0.027 C 
BRANCH  24  25
HETATM   25  C   UNL     1       8.009  32.695  61.735  1.00  0.00    -0.003 C 
HETATM   26  C   UNL     1       7.866  32.596  63.247  1.00  0.00     0.005 C 
ENDBRANCH  24  25
ENDBRANCH  23  24
ENDBRANCH  20  23
ENDBRANCH  19  20
ENDBRANCH  18  19
ENDBRANCH  17  18
ENDBRANCH  14  17
ENDBRANCH   1  13
BRANCH   1  27
HETATM   27  O   UNL     1       7.435  28.594  53.255  1.00  0.00    -0.359 OA
HETATM   28  H   UNL     1       7.876  28.448  52.404  1.00  0.00     0.213 HD
ENDBRANCH   1  27
BRANCH   2  29
HETATM   29  C   UNL     1       6.355  26.213  54.829  1.00  0.00     0.042 A 
HETATM   30  C   UNL     1       5.323  25.680  55.621  1.00  0.00     0.030 A 
HETATM   31  C   UNL     1       5.566  25.195  56.912  1.00  0.00     0.002 A 
HETATM   32  C   UNL     1       6.850  25.227  57.442  1.00  0.00     0.000 A 
HETATM   33  C   UNL     1       7.889  25.750  56.681  1.00  0.00     0.002 A 
HETATM   34  C   UNL     1       7.643  26.234  55.392  1.00  0.00     0.030 A 
ENDBRANCH   2  29
TORSDOF 10
ENDMDL
MODEL 8
REMARK VINA RESULT:      -6.9      4.136      7.900
REMARK  10 active torsions:
REMARK  status: ('A' for Active; 'I' for Inactive)
REMARK    1  A    between atoms: C_2  and  C_3 
REMARK    2  A    between atoms: C_3  and  C_4 
REMARK    3  A    between atoms: C_4  and  N_5 
REMARK    4  A    between atoms: N_5  and  C_7 
REMARK    5  A    between atoms: C_7  and  C_8 
REMARK    6  A    between atoms: C_8  and  C_9 
REMARK    7  A    between atoms: C_9  and  N_10 
REMARK       I    between atoms: N_10  and  C_11 
REMARK    8  A    between atoms: C_11  and  C_12 
REMARK    9  A    between atoms: C_12  and  O_13 
REMARK   10  A    between atoms: N_14  and  C_15 
ROOT
HETATM    1  C   UNL     1       7.077  28.213  55.195  1.00  0.00     0.256 C 
HETATM    2  N   UNL     1       7.790  27.798  56.421  1.00  0.00    -0.254 N 
HETATM    3  C   UNL     1       8.054  26.456  56.660  1.00  0.00     0.330 C 
HETATM    4  O   UNL     1       8.811  26.011  57.523  1.00  0.00    -0.246 OA
HETATM    5  N   UNL     1       7.392  25.534  55.911  1.00  0.00    -0.308 N 
HETATM    6  C   UNL     1       6.481  25.796  54.907  1.00  0.00     0.048 A 
HETATM    7  C   UNL     1       6.271  27.110  54.519  1.00  0.00     0.034 A 
HETATM    8  C   UNL     1       5.798  24.740  54.300  1.00  0.00     0.030 A 
HETATM    9  C   UNL     1       4.879  25.000  53.288  1.00  0.00     0.002 A 
HETATM   10  C   UNL     1       4.656  26.311  52.874  1.00  0.00     0.001 A 
HETATM   11  C   UNL     1       5.355  27.359  53.477  1.00  0.00     0.015 A 
HETATM   12  H   UNL     1       7.611  24.576  56.162  1.00  0.00     0.170 HD
ENDROOT
BRANCH   1  13
HETATM   13  C   UNL     1       6.014  29.353  55.587  1.00  0.00     0.279 C 
HETATM   14  N   UNL     1       5.021  28.952  56.479  1.00  0.00    -0.356 N 
HETATM   15  H   UNL     1       5.253  28.098  56.985  1.00  0.00     0.162 HD
HETATM   16  O   UNL     1       5.971  30.445  55.012  1.00  0.00    -0.268 OA
BRANCH  14  17
HETATM   17  C   UNL     1       4.120  29.850  57.180  1.00  0.00     0.124 C 
BRANCH  17  18
HETATM   18  C   UNL     1       4.719  31.127  57.773  1.00  0.00     0.047 C 
BRANCH  18  19
HETATM   19  C   UNL     1       3.976  31.606  59.017  1.00  0.00     0.236 C 
BRANCH  19  20
HETATM   20  N   UNL     1       4.667  32.794  59.678  1.00  0.00    -0.075 N 
HETATM   21  H   UNL     1       5.565  32.944  59.201  1.00  0.00     0.279 HD
HETATM   22  C   UNL     1       3.882  34.081  59.529  1.00  0.00     0.269 C 
BRANCH  20  23
HETATM   23  C   UNL     1       4.954  32.557  61.151  1.00  0.00     0.234 C 
BRANCH  23  24
HETATM   24  C   UNL     1       6.384  32.896  61.564  1.00  0.00     0.027 C 
BRANCH  24  25
HETATM   25  C   UNL     1       7.051  31.827  62.428  1.00  0.00    -0.003 C 
HETATM   26  C   UNL     1       8.553  32.051  62.516  1.00  0.00     0.005 C 
ENDBRANCH  24  25
ENDBRANCH  23  24
ENDBRANCH  20  23
ENDBRANCH  19  20
ENDBRANCH  18  19
ENDBRANCH  17  18
ENDBRANCH  14  17
ENDBRANCH   1  13
BRANCH   1  27
HETATM   27  O   UNL     1       8.047  28.657  54.254  1.00  0.00    -0.359 OA
HETATM   28  H   UNL     1       8.165  29.613  54.363  1.00  0.00     0.213 HD
ENDBRANCH   1  27
BRANCH   2  29
HETATM   29  C   UNL     1       8.372  28.813  57.285  1.00  0.00     0.042 A 
HETATM   30  C   UNL     1       9.560  29.488  56.954  1.00  0.00     0.030 A 
HETATM   31  C   UNL     1      10.068  30.513  57.762  1.00  0.00     0.002 A 
HETATM   32  C   UNL     1       9.398  30.890  58.920  1.00  0.00     0.000 A 
HETATM   33  C   UNL     1       8.222  30.238  59.271  1.00  0.00     0.002 A 
HETATM   34  C   UNL     1       7.717  29.215  58.462  1.00  0.00     0.030 A 
ENDBRANCH   2  29
TORSDOF 10
ENDMDL
MODEL 9
REMARK VINA RESULT:      -6.9      2.773      4.310
REMARK  10 active torsions:
REMARK  status: ('A' for Active; 'I' for Inactive)
REMARK    1  A    between atoms: C_2  and  C_3 
REMARK    2  A    between atoms: C_3  and  C_4 
REMARK    3  A    between atoms: C_4  and  N_5 
REMARK    4  A    between atoms: N_5  and  C_7 
REMARK    5  A    between atoms: C_7  and  C_8 
REMARK    6  A    between atoms: C_8  and  C_9 
REMARK    7  A    between atoms: C_9  and  N_10 
REMARK       I    between atoms: N_10  and  C_11 
REMARK    8  A    between atoms: C_11  and  C_12 
REMARK    9  A    between atoms: C_12  and  O_13 
REMARK   10  A    between atoms: N_14  and  C_15 
ROOT
HETATM    1  C   UNL     1       6.908  28.212  55.292  1.00  0.00     0.256 C 
HETATM    2  N   UNL     1       7.754  27.854  56.449  1.00  0.00    -0.254 N 
HETATM    3  C   UNL     1       8.194  26.549  56.621  1.00  0.00     0.330 C 
HETATM    4  O   UNL     1       9.059  26.176  57.412  1.00  0.00    -0.246 OA
HETATM    5  N   UNL     1       7.594  25.573  55.887  1.00  0.00    -0.308 N 
HETATM    6  C   UNL     1       6.587  25.749  54.959  1.00  0.00     0.048 A 
HETATM    7  C   UNL     1       6.193  27.038  54.634  1.00  0.00     0.034 A 
HETATM    8  C   UNL     1       5.994  24.635  54.363  1.00  0.00     0.030 A 
HETATM    9  C   UNL     1       4.978  24.808  53.427  1.00  0.00     0.002 A 
HETATM   10  C   UNL     1       4.570  26.092  53.077  1.00  0.00     0.001 A 
HETATM   11  C   UNL     1       5.180  27.202  53.667  1.00  0.00     0.015 A 
HETATM   12  H   UNL     1       7.945  24.643  56.087  1.00  0.00     0.170 HD
ENDROOT
BRANCH   1  13
HETATM   13  C   UNL     1       5.747  29.202  55.798  1.00  0.00     0.279 C 
HETATM   14  N   UNL     1       5.773  30.477  55.234  1.00  0.00    -0.356 N 
HETATM   15  H   UNL     1       6.327  30.531  54.380  1.00  0.00     0.162 HD
HETATM   16  O   UNL     1       5.000  28.921  56.739  1.00  0.00    -0.268 OA
BRANCH  14  17
HETATM   17  C   UNL     1       4.697  31.449  55.325  1.00  0.00     0.124 C 
BRANCH  17  18
HETATM   18  C   UNL     1       3.411  31.149  54.552  1.00  0.00     0.047 C 
BRANCH  18  19
HETATM   19  C   UNL     1       3.675  30.625  53.144  1.00  0.00     0.236 C 
BRANCH  19  20
HETATM   20  N   UNL     1       2.526  30.933  52.190  1.00  0.00    -0.075 N 
HETATM   21  H   UNL     1       1.665  30.547  52.597  1.00  0.00     0.279 HD
HETATM   22  C   UNL     1       2.291  32.421  52.023  1.00  0.00     0.269 C 
BRANCH  20  23
HETATM   23  C   UNL     1       2.719  30.306  50.821  1.00  0.00     0.234 C 
BRANCH  23  24
HETATM   24  C   UNL     1       3.363  28.922  50.861  1.00  0.00     0.027 C 
BRANCH  24  25
HETATM   25  C   UNL     1       4.041  28.514  49.553  1.00  0.00    -0.003 C 
HETATM   26  C   UNL     1       4.553  27.083  49.624  1.00  0.00     0.005 C 
ENDBRANCH  24  25
ENDBRANCH  23  24
ENDBRANCH  20  23
ENDBRANCH  19  20
ENDBRANCH  18  19
ENDBRANCH  17  18
ENDBRANCH  14  17
ENDBRANCH   1  13
BRANCH   1  27
HETATM   27  O   UNL     1       7.746  28.797  54.303  1.00  0.00    -0.359 OA
HETATM   28  H   UNL     1       8.503  29.208  54.747  1.00  0.00     0.213 HD
ENDBRANCH   1  27
BRANCH   2  29
HETATM   29  C   UNL     1       8.271  28.909  57.307  1.00  0.00     0.042 A 
HETATM   30  C   UNL     1       7.666  29.243  58.532  1.00  0.00     0.030 A 
HETATM   31  C   UNL     1       8.218  30.212  59.379  1.00  0.00     0.002 A 
HETATM   32  C   UNL     1       9.390  30.868  59.024  1.00  0.00     0.000 A 
HETATM   33  C   UNL     1      10.007  30.558  57.819  1.00  0.00     0.002 A 
HETATM   34  C   UNL     1       9.454  29.589  56.974  1.00  0.00     0.030 A 
ENDBRANCH   2  29
TORSDOF 10
ENDMDL
MODEL 10
REMARK VINA RESULT:      -6.9      1.721      4.928
REMARK  10 active torsions:
REMARK  status: ('A' for Active; 'I' for Inactive)
REMARK    1  A    between atoms: C_2  and  C_3 
REMARK    2  A    between atoms: C_3  and  C_4 
REMARK    3  A    between atoms: C_4  and  N_5 
REMARK    4  A    between atoms: N_5  and  C_7 
REMARK    5  A    between atoms: C_7  and  C_8 
REMARK    6  A    between atoms: C_8  and  C_9 
REMARK    7  A    between atoms: C_9  and  N_10 
REMARK       I    between atoms: N_10  and  C_11 
REMARK    8  A    between atoms: C_11  and  C_12 
REMARK    9  A    between atoms: C_12  and  O_13 
REMARK   10  A    between atoms: N_14  and  C_15 
ROOT
HETATM    1  C   UNL     1       5.847  27.430  55.329  1.00  0.00     0.256 C 
HETATM    2  N   UNL     1       6.993  26.581  55.715  1.00  0.00    -0.254 N 
HETATM    3  C   UNL     1       7.675  26.817  56.900  1.00  0.00     0.330 C 
HETATM    4  O   UNL     1       8.496  26.064  57.424  1.00  0.00    -0.246 OA
HETATM    5  N   UNL     1       7.463  28.003  57.531  1.00  0.00    -0.308 N 
HETATM    6  C   UNL     1       6.610  29.008  57.120  1.00  0.00     0.048 A 
HETATM    7  C   UNL     1       5.794  28.787  56.022  1.00  0.00     0.034 A 
HETATM    8  C   UNL     1       6.581  30.218  57.817  1.00  0.00     0.030 A 
HETATM    9  C   UNL     1       5.723  31.234  57.404  1.00  0.00     0.002 A 
HETATM   10  C   UNL     1       4.887  31.033  56.309  1.00  0.00     0.001 A 
HETATM   11  C   UNL     1       4.913  29.814  55.628  1.00  0.00     0.015 A 
HETATM   12  H   UNL     1       8.017  28.119  58.373  1.00  0.00     0.170 HD
ENDROOT
BRANCH   1  13
HETATM   13  C   UNL     1       5.954  27.745  53.757  1.00  0.00     0.279 C 
HETATM   14  N   UNL     1       4.971  27.150  52.968  1.00  0.00    -0.356 N 
HETATM   15  H   UNL     1       4.159  26.838  53.500  1.00  0.00     0.162 HD
HETATM   16  O   UNL     1       6.927  28.321  53.261  1.00  0.00    -0.268 OA
BRANCH  14  17
HETATM   17  C   UNL     1       4.697  27.490  51.582  1.00  0.00     0.124 C 
BRANCH  17  18
HETATM   18  C   UNL     1       4.127  28.880  51.297  1.00  0.00     0.047 C 
BRANCH  18  19
HETATM   19  C   UNL     1       2.805  28.833  50.537  1.00  0.00     0.236 C 
BRANCH  19  20
HETATM   20  N   UNL     1       2.870  29.600  49.220  1.00  0.00    -0.075 N 
HETATM   21  H   UNL     1       2.057  30.226  49.179  1.00  0.00     0.279 HD
HETATM   22  C   UNL     1       4.098  30.484  49.122  1.00  0.00     0.269 C 
BRANCH  20  23
HETATM   23  C   UNL     1       2.820  28.686  48.009  1.00  0.00     0.234 C 
BRANCH  23  24
HETATM   24  C   UNL     1       2.463  27.239  48.341  1.00  0.00     0.027 C 
BRANCH  24  25
HETATM   25  C   UNL     1       3.568  26.235  48.011  1.00  0.00    -0.003 C 
HETATM   26  C   UNL     1       2.999  24.837  47.821  1.00  0.00     0.005 C 
ENDBRANCH  24  25
ENDBRANCH  23  24
ENDBRANCH  20  23
ENDBRANCH  19  20
ENDBRANCH  18  19
ENDBRANCH  17  18
ENDBRANCH  14  17
ENDBRANCH   1  13
BRANCH   1  27
HETATM   27  O   UNL     1       4.654  26.738  55.677  1.00  0.00    -0.359 OA
HETATM   28  H   UNL     1       4.382  26.196  54.921  1.00  0.00     0.213 HD
ENDBRANCH   1  27
BRANCH   2  29
HETATM   29  C   UNL     1       7.289  25.388  54.937  1.00  0.00     0.042 A 
HETATM   30  C   UNL     1       6.915  24.102  55.365  1.00  0.00     0.030 A 
HETATM   31  C   UNL     1       7.145  22.971  54.571  1.00  0.00     0.002 A 
HETATM   32  C   UNL     1       7.751  23.100  53.327  1.00  0.00     0.000 A 
HETATM   33  C   UNL     1       8.131  24.360  52.881  1.00  0.00     0.002 A 
HETATM   34  C   UNL     1       7.901  25.487  53.676  1.00  0.00     0.030 A 
ENDBRANCH   2  29
TORSDOF 10
ENDMDL
