MODEL 1
REMARK VINA RESULT:      -7.8      0.000      0.000
REMARK  9 active torsions:
REMARK  status: ('A' for Active; 'I' for Inactive)
REMARK    1  A    between atoms: C_3  and  C_4 
REMARK    2  A    between atoms: C_4  and  C_5 
REMARK       I    between atoms: C_5  and  N_6 
REMARK    3  A    between atoms: N_6  and  C_7 
REMARK    4  A    between atoms: C_7  and  C_8 
REMARK    5  A    between atoms: C_17  and  N_18 
REMARK       I    between atoms: N_18  and  C_19 
REMARK    6  A    between atoms: C_19  and  C_20 
REMARK    7  A    between atoms: C_28  and  C_29 
REMARK    8  A    between atoms: C_29  and  O_30 
REMARK    9  A    between atoms: C_32  and  O_33 
ROOT
HETATM    1  C   UNL     1       5.426  27.315  47.313  1.00  0.00     0.016 C 
HETATM    2  C   UNL     1       4.164  27.747  48.127  1.00  0.00    -0.030 C 
HETATM    3  C   UNL     1       4.603  28.258  49.574  1.00  0.00     0.056 C 
HETATM    4  C   UNL     1       5.086  29.693  49.510  1.00  0.00     0.056 C 
HETATM    5  C   UNL     1       4.982  30.493  48.389  1.00  0.00     0.012 C 
HETATM    6  S   UNL     1       5.625  32.038  48.699  1.00  0.00    -0.055 SA
HETATM    7  C   UNL     1       5.711  31.618  50.352  1.00  0.00     0.173 C 
HETATM    8  N   UNL     1       5.504  30.359  50.650  1.00  0.00    -0.227 NA
HETATM    9  C   UNL     1       4.342  30.119  47.102  1.00  0.00     0.055 C 
HETATM   10  C   UNL     1       3.418  28.885  47.308  1.00  0.00     0.012 C 
HETATM   11  C   UNL     1       1.929  29.215  47.780  1.00  0.00     0.008 C 
HETATM   12  C   UNL     1       1.156  29.689  46.513  1.00  0.00     0.020 C 
HETATM   13  C   UNL     1       1.213  27.929  48.301  1.00  0.00     0.128 C 
HETATM   14  C   UNL     1       1.835  26.655  47.748  1.00  0.00     0.033 C 
HETATM   15  C   UNL     1       3.266  26.475  48.252  1.00  0.00     0.013 C 
ENDROOT
BRANCH   3  16
HETATM   16  C   UNL     1       5.645  27.336  50.232  1.00  0.00     0.114 C 
BRANCH  16  17
HETATM   17  C   UNL     1       5.210  26.796  51.580  1.00  0.00     0.218 C 
HETATM   18  N   UNL     1       5.654  25.529  51.850  1.00  0.00    -0.355 N 
HETATM   19  H   UNL     1       6.564  25.283  51.459  1.00  0.00     0.162 HD
HETATM   20  O   UNL     1       4.476  27.443  52.322  1.00  0.00    -0.274 OA
BRANCH  18  21
HETATM   21  C   UNL     1       5.281  24.854  53.069  1.00  0.00     0.187 C 
BRANCH  21  22
HETATM   22  C   UNL     1       6.455  24.099  53.576  1.00  0.00     0.070 A 
HETATM   23  O   UNL     1       6.586  23.995  54.933  1.00  0.00    -0.325 OA
HETATM   24  C   UNL     1       7.712  23.276  55.170  1.00  0.00     0.142 A 
HETATM   25  C   UNL     1       8.314  22.915  53.988  1.00  0.00     0.027 A 
HETATM   26  C   UNL     1       7.507  23.453  52.958  1.00  0.00     0.036 A 
ENDBRANCH  21  22
ENDBRANCH  18  21
ENDBRANCH  16  17
ENDBRANCH   3  16
BRANCH  11  27
HETATM   27  C   UNL     1       1.776  30.330  48.851  1.00  0.00     0.176 C 
BRANCH  27  28
HETATM   28  O   UNL     1       0.424  30.740  49.029  1.00  0.00    -0.400 OA
HETATM   29  H   UNL     1       0.282  31.473  48.404  1.00  0.00     0.209 HD
ENDBRANCH  27  28
ENDBRANCH  11  27
BRANCH   7  30
HETATM   30  N   UNL     1       5.894  32.701  51.164  1.00  0.00    -0.305 N 
HETATM   31  C   UNL     1       4.841  33.498  51.557  1.00  0.00     0.227 C 
HETATM   32  O   UNL     1       3.650  33.194  51.458  1.00  0.00    -0.273 OA
HETATM   33  H   UNL     1       6.840  33.044  51.213  1.00  0.00     0.171 HD
BRANCH  31  34
HETATM   34  C   UNL     1       5.287  34.878  52.112  1.00  0.00     0.078 C 
HETATM   35  C   UNL     1       6.082  34.969  53.449  1.00  0.00     0.014 C 
HETATM   36  C   UNL     1       6.889  36.119  52.823  1.00  0.00     0.002 C 
HETATM   37  C   UNL     1       6.548  35.513  51.450  1.00  0.00     0.014 C 
ENDBRANCH  31  34
ENDBRANCH   7  30
BRANCH  13  38
HETATM   38  O   UNL     1       1.248  27.867  49.727  1.00  0.00    -0.395 OA
HETATM   39  H   UNL     1       2.012  27.322  49.989  1.00  0.00     0.210 HD
ENDBRANCH  13  38
TORSDOF 9
ENDMDL
MODEL 2
REMARK VINA RESULT:      -7.6      4.638      8.412
REMARK  9 active torsions:
REMARK  status: ('A' for Active; 'I' for Inactive)
REMARK    1  A    between atoms: C_3  and  C_4 
REMARK    2  A    between atoms: C_4  and  C_5 
REMARK       I    between atoms: C_5  and  N_6 
REMARK    3  A    between atoms: N_6  and  C_7 
REMARK    4  A    between atoms: C_7  and  C_8 
REMARK    5  A    between atoms: C_17  and  N_18 
REMARK       I    between atoms: N_18  and  C_19 
REMARK    6  A    between atoms: C_19  and  C_20 
REMARK    7  A    between atoms: C_28  and  C_29 
REMARK    8  A    between atoms: C_29  and  O_30 
REMARK    9  A    between atoms: C_32  and  O_33 
ROOT
HETATM    1  C   UNL     1       8.441  28.955  55.310  1.00  0.00     0.016 C 
HETATM    2  C   UNL     1       7.295  27.969  55.704  1.00  0.00    -0.030 C 
HETATM    3  C   UNL     1       5.888  28.563  55.242  1.00  0.00     0.056 C 
HETATM    4  C   UNL     1       5.651  28.293  53.770  1.00  0.00     0.056 C 
HETATM    5  C   UNL     1       6.460  27.485  52.994  1.00  0.00     0.012 C 
HETATM    6  S   UNL     1       5.875  27.417  51.397  1.00  0.00    -0.055 SA
HETATM    7  C   UNL     1       4.459  28.207  51.932  1.00  0.00     0.173 C 
HETATM    8  N   UNL     1       4.485  28.702  53.145  1.00  0.00    -0.227 NA
HETATM    9  C   UNL     1       7.637  26.713  53.466  1.00  0.00     0.055 C 
HETATM   10  C   UNL     1       7.593  26.570  55.013  1.00  0.00     0.012 C 
HETATM   11  C   UNL     1       6.748  25.333  55.564  1.00  0.00     0.008 C 
HETATM   12  C   UNL     1       7.644  24.070  55.388  1.00  0.00     0.020 C 
HETATM   13  C   UNL     1       6.466  25.487  57.092  1.00  0.00     0.128 C 
HETATM   14  C   UNL     1       7.467  26.407  57.776  1.00  0.00     0.033 C 
HETATM   15  C   UNL     1       7.343  27.840  57.260  1.00  0.00     0.013 C 
ENDROOT
BRANCH   3  16
HETATM   16  C   UNL     1       5.743  30.059  55.576  1.00  0.00     0.114 C 
BRANCH  16  17
HETATM   17  C   UNL     1       5.360  30.323  57.018  1.00  0.00     0.218 C 
HETATM   18  N   UNL     1       6.106  31.294  57.632  1.00  0.00    -0.355 N 
HETATM   19  H   UNL     1       6.430  32.053  57.031  1.00  0.00     0.162 HD
HETATM   20  O   UNL     1       4.486  29.667  57.580  1.00  0.00    -0.274 OA
BRANCH  18  21
HETATM   21  C   UNL     1       5.901  31.624  59.021  1.00  0.00     0.187 C 
BRANCH  21  22
HETATM   22  C   UNL     1       7.225  31.756  59.681  1.00  0.00     0.070 A 
HETATM   23  O   UNL     1       8.300  31.992  58.870  1.00  0.00    -0.325 OA
HETATM   24  C   UNL     1       9.393  32.076  59.671  1.00  0.00     0.142 A 
HETATM   25  C   UNL     1       9.042  31.894  60.987  1.00  0.00     0.027 A 
HETATM   26  C   UNL     1       7.643  31.680  60.994  1.00  0.00     0.036 A 
ENDBRANCH  21  22
ENDBRANCH  18  21
ENDBRANCH  16  17
ENDBRANCH   3  16
BRANCH  11  27
HETATM   27  C   UNL     1       5.403  25.039  54.844  1.00  0.00     0.176 C 
BRANCH  27  28
HETATM   28  O   UNL     1       5.573  24.298  53.640  1.00  0.00    -0.400 OA
HETATM   29  H   UNL     1       5.940  24.924  52.991  1.00  0.00     0.209 HD
ENDBRANCH  27  28
ENDBRANCH  11  27
BRANCH   7  30
HETATM   30  N   UNL     1       3.436  28.125  51.031  1.00  0.00    -0.305 N 
HETATM   31  C   UNL     1       3.320  29.012  49.983  1.00  0.00     0.227 C 
HETATM   32  O   UNL     1       4.216  29.766  49.595  1.00  0.00    -0.273 OA
HETATM   33  H   UNL     1       2.640  27.588  51.335  1.00  0.00     0.171 HD
BRANCH  31  34
HETATM   34  C   UNL     1       1.909  29.020  49.336  1.00  0.00     0.078 C 
HETATM   35  C   UNL     1       1.636  29.865  48.055  1.00  0.00     0.014 C 
HETATM   36  C   UNL     1       0.716  28.730  47.574  1.00  0.00     0.002 C 
HETATM   37  C   UNL     1       1.544  27.783  48.461  1.00  0.00     0.014 C 
ENDBRANCH  31  34
ENDBRANCH   7  30
BRANCH  13  38
HETATM   38  O   UNL     1       5.153  25.999  57.319  1.00  0.00    -0.395 OA
HETATM   39  H   UNL     1       4.967  26.672  56.640  1.00  0.00     0.210 HD
ENDBRANCH  13  38
TORSDOF 9
ENDMDL
MODEL 3
REMARK VINA RESULT:      -7.5      3.036      6.486
REMARK  9 active torsions:
REMARK  status: ('A' for Active; 'I' for Inactive)
REMARK    1  A    between atoms: C_3  and  C_4 
REMARK    2  A    between atoms: C_4  and  C_5 
REMARK       I    between atoms: C_5  and  N_6 
REMARK    3  A    between atoms: N_6  and  C_7 
REMARK    4  A    between atoms: C_7  and  C_8 
REMARK    5  A    between atoms: C_17  and  N_18 
REMARK       I    between atoms: N_18  and  C_19 
REMARK    6  A    between atoms: C_19  and  C_20 
REMARK    7  A    between atoms: C_28  and  C_29 
REMARK    8  A    between atoms: C_29  and  O_30 
REMARK    9  A    between atoms: C_32  and  O_33 
ROOT
HETATM    1  C   UNL     1       1.354  29.740  50.613  1.00  0.00     0.016 C 
HETATM    2  C   UNL     1       2.793  30.345  50.676  1.00  0.00    -0.030 C 
HETATM    3  C   UNL     1       3.652  29.583  51.784  1.00  0.00     0.056 C 
HETATM    4  C   UNL     1       4.195  28.278  51.236  1.00  0.00     0.056 C 
HETATM    5  C   UNL     1       4.107  27.903  49.909  1.00  0.00     0.012 C 
HETATM    6  S   UNL     1       4.832  26.382  49.672  1.00  0.00    -0.055 SA
HETATM    7  C   UNL     1       5.453  26.483  51.259  1.00  0.00     0.173 C 
HETATM    8  N   UNL     1       4.987  27.449  52.012  1.00  0.00    -0.227 NA
HETATM    9  C   UNL     1       3.535  28.716  48.805  1.00  0.00     0.055 C 
HETATM   10  C   UNL     1       3.446  30.207  49.235  1.00  0.00     0.012 C 
HETATM   11  C   UNL     1       4.765  31.072  48.987  1.00  0.00     0.008 C 
HETATM   12  C   UNL     1       4.787  31.423  47.469  1.00  0.00     0.020 C 
HETATM   13  C   UNL     1       4.700  32.422  49.770  1.00  0.00     0.128 C 
HETATM   14  C   UNL     1       3.272  32.834  50.097  1.00  0.00     0.033 C 
HETATM   15  C   UNL     1       2.621  31.848  51.066  1.00  0.00     0.013 C 
ENDROOT
BRANCH   3  16
HETATM   16  C   UNL     1       2.867  29.366  53.091  1.00  0.00     0.114 C 
BRANCH  16  17
HETATM   17  C   UNL     1       3.733  29.431  54.334  1.00  0.00     0.218 C 
HETATM   18  N   UNL     1       4.014  28.212  54.890  1.00  0.00    -0.355 N 
HETATM   19  H   UNL     1       4.098  27.433  54.235  1.00  0.00     0.162 HD
HETATM   20  O   UNL     1       4.091  30.505  54.810  1.00  0.00    -0.274 OA
BRANCH  18  21
HETATM   21  C   UNL     1       4.782  28.107  56.107  1.00  0.00     0.187 C 
BRANCH  21  22
HETATM   22  C   UNL     1       6.215  28.336  55.788  1.00  0.00     0.070 A 
HETATM   23  O   UNL     1       6.839  29.358  56.447  1.00  0.00    -0.325 OA
HETATM   24  C   UNL     1       8.124  29.387  56.009  1.00  0.00     0.142 A 
HETATM   25  C   UNL     1       8.339  28.402  55.076  1.00  0.00     0.027 A 
HETATM   26  C   UNL     1       7.105  27.727  54.927  1.00  0.00     0.036 A 
ENDBRANCH  21  22
ENDBRANCH  18  21
ENDBRANCH  16  17
ENDBRANCH   3  16
BRANCH  11  27
HETATM   27  C   UNL     1       6.117  30.379  49.314  1.00  0.00     0.176 C 
BRANCH  27  28
HETATM   28  O   UNL     1       7.222  31.274  49.257  1.00  0.00    -0.400 OA
HETATM   29  H   UNL     1       6.881  32.095  48.860  1.00  0.00     0.209 HD
ENDBRANCH  27  28
ENDBRANCH  11  27
BRANCH   7  30
HETATM   30  N   UNL     1       6.448  25.577  51.496  1.00  0.00    -0.305 N 
HETATM   31  C   UNL     1       6.385  24.691  52.549  1.00  0.00     0.227 C 
HETATM   32  O   UNL     1       5.367  24.436  53.197  1.00  0.00    -0.273 OA
HETATM   33  H   UNL     1       7.330  25.785  51.056  1.00  0.00     0.171 HD
BRANCH  31  34
HETATM   34  C   UNL     1       7.755  24.049  52.896  1.00  0.00     0.078 C 
HETATM   35  C   UNL     1       8.207  23.914  54.382  1.00  0.00     0.014 C 
HETATM   36  C   UNL     1       8.835  22.561  54.007  1.00  0.00     0.002 C 
HETATM   37  C   UNL     1       7.818  22.492  52.854  1.00  0.00     0.014 C 
ENDBRANCH  31  34
ENDBRANCH   7  30
BRANCH  13  38
HETATM   38  O   UNL     1       5.439  32.340  50.989  1.00  0.00    -0.395 OA
HETATM   39  H   UNL     1       5.708  33.242  51.243  1.00  0.00     0.210 HD
ENDBRANCH  13  38
TORSDOF 9
ENDMDL
MODEL 4
REMARK VINA RESULT:      -7.4      3.678      7.224
REMARK  9 active torsions:
REMARK  status: ('A' for Active; 'I' for Inactive)
REMARK    1  A    between atoms: C_3  and  C_4 
REMARK    2  A    between atoms: C_4  and  C_5 
REMARK       I    between atoms: C_5  and  N_6 
REMARK    3  A    between atoms: N_6  and  C_7 
REMARK    4  A    between atoms: C_7  and  C_8 
REMARK    5  A    between atoms: C_17  and  N_18 
REMARK       I    between atoms: N_18  and  C_19 
REMARK    6  A    between atoms: C_19  and  C_20 
REMARK    7  A    between atoms: C_28  and  C_29 
REMARK    8  A    between atoms: C_29  and  O_30 
REMARK    9  A    between atoms: C_32  and  O_33 
ROOT
HETATM    1  C   UNL     1       4.463  25.821  57.007  1.00  0.00     0.016 C 
HETATM    2  C   UNL     1       5.806  26.439  56.503  1.00  0.00    -0.030 C 
HETATM    3  C   UNL     1       5.753  26.627  54.919  1.00  0.00     0.056 C 
HETATM    4  C   UNL     1       5.003  27.893  54.556  1.00  0.00     0.056 C 
HETATM    5  C   UNL     1       4.592  28.837  55.478  1.00  0.00     0.012 C 
HETATM    6  S   UNL     1       3.790  30.120  54.697  1.00  0.00    -0.055 SA
HETATM    7  C   UNL     1       4.310  29.474  53.205  1.00  0.00     0.173 C 
HETATM    8  N   UNL     1       4.842  28.278  53.235  1.00  0.00    -0.227 NA
HETATM    9  C   UNL     1       4.856  28.808  56.939  1.00  0.00     0.055 C 
HETATM   10  C   UNL     1       6.020  27.825  57.248  1.00  0.00     0.012 C 
HETATM   11  C   UNL     1       7.487  28.447  57.147  1.00  0.00     0.008 C 
HETATM   12  C   UNL     1       7.715  29.262  58.455  1.00  0.00     0.020 C 
HETATM   13  C   UNL     1       8.567  27.320  57.114  1.00  0.00     0.128 C 
HETATM   14  C   UNL     1       8.065  26.017  57.720  1.00  0.00     0.033 C 
HETATM   15  C   UNL     1       6.929  25.423  56.888  1.00  0.00     0.013 C 
ENDROOT
BRANCH   3  16
HETATM   16  C   UNL     1       5.172  25.397  54.199  1.00  0.00     0.114 C 
BRANCH  16  17
HETATM   17  C   UNL     1       6.127  24.771  53.203  1.00  0.00     0.218 C 
HETATM   18  N   UNL     1       6.829  23.701  53.690  1.00  0.00    -0.355 N 
HETATM   19  H   UNL     1       6.342  23.125  54.379  1.00  0.00     0.162 HD
HETATM   20  O   UNL     1       6.278  25.240  52.078  1.00  0.00    -0.274 OA
BRANCH  18  21
HETATM   21  C   UNL     1       7.818  23.028  52.882  1.00  0.00     0.187 C 
BRANCH  21  22
HETATM   22  C   UNL     1       8.275  21.812  53.602  1.00  0.00     0.070 A 
HETATM   23  O   UNL     1       8.598  21.959  54.922  1.00  0.00    -0.325 OA
HETATM   24  C   UNL     1       8.985  20.740  55.376  1.00  0.00     0.142 A 
HETATM   25  C   UNL     1       8.920  19.807  54.369  1.00  0.00     0.027 A 
HETATM   26  C   UNL     1       8.469  20.500  53.221  1.00  0.00     0.036 A 
ENDBRANCH  21  22
ENDBRANCH  18  21
ENDBRANCH  16  17
ENDBRANCH   3  16
BRANCH  11  27
HETATM   27  C   UNL     1       7.748  29.412  55.958  1.00  0.00     0.176 C 
BRANCH  27  28
HETATM   28  O   UNL     1       9.122  29.758  55.821  1.00  0.00    -0.400 OA
HETATM   29  H   UNL     1       9.200  30.673  56.144  1.00  0.00     0.209 HD
ENDBRANCH  27  28
ENDBRANCH  11  27
BRANCH   7  30
HETATM   30  N   UNL     1       4.184  30.360  52.173  1.00  0.00    -0.305 N 
HETATM   31  C   UNL     1       3.344  30.118  51.108  1.00  0.00     0.227 C 
HETATM   32  O   UNL     1       2.457  29.261  51.089  1.00  0.00    -0.273 OA
HETATM   33  H   UNL     1       4.930  31.032  52.091  1.00  0.00     0.171 HD
BRANCH  31  34
HETATM   34  C   UNL     1       3.644  31.009  49.872  1.00  0.00     0.078 C 
HETATM   35  C   UNL     1       5.098  31.134  49.326  1.00  0.00     0.014 C 
HETATM   36  C   UNL     1       4.500  31.165  47.909  1.00  0.00     0.002 C 
HETATM   37  C   UNL     1       3.294  30.399  48.481  1.00  0.00     0.014 C 
ENDBRANCH  31  34
ENDBRANCH   7  30
BRANCH  13  38
HETATM   38  O   UNL     1       8.994  27.061  55.776  1.00  0.00    -0.395 OA
HETATM   39  H   UNL     1       9.966  27.127  55.749  1.00  0.00     0.210 HD
ENDBRANCH  13  38
TORSDOF 9
ENDMDL
MODEL 5
REMARK VINA RESULT:      -7.3      2.314      2.725
REMARK  9 active torsions:
REMARK  status: ('A' for Active; 'I' for Inactive)
REMARK    1  A    between atoms: C_3  and  C_4 
REMARK    2  A    between atoms: C_4  and  C_5 
REMARK       I    between atoms: C_5  and  N_6 
REMARK    3  A    between atoms: N_6  and  C_7 
REMARK    4  A    between atoms: C_7  and  C_8 
REMARK    5  A    between atoms: C_17  and  N_18 
REMARK       I    between atoms: N_18  and  C_19 
REMARK    6  A    between atoms: C_19  and  C_20 
REMARK    7  A    between atoms: C_28  and  C_29 
REMARK    8  A    between atoms: C_29  and  O_30 
REMARK    9  A    between atoms: C_32  and  O_33 
ROOT
HETATM    1  C   UNL     1       5.617  27.636  47.300  1.00  0.00     0.016 C 
HETATM    2  C   UNL     1       4.190  27.569  47.932  1.00  0.00    -0.030 C 
HETATM    3  C   UNL     1       4.306  27.410  49.515  1.00  0.00     0.056 C 
HETATM    4  C   UNL     1       4.562  28.753  50.170  1.00  0.00     0.056 C 
HETATM    5  C   UNL     1       4.514  29.960  49.499  1.00  0.00     0.012 C 
HETATM    6  S   UNL     1       4.849  31.246  50.563  1.00  0.00    -0.055 SA
HETATM    7  C   UNL     1       4.735  30.140  51.859  1.00  0.00     0.173 C 
HETATM    8  N   UNL     1       4.683  28.869  51.544  1.00  0.00    -0.227 NA
HETATM    9  C   UNL     1       4.155  30.155  48.071  1.00  0.00     0.055 C 
HETATM   10  C   UNL     1       3.415  28.897  47.534  1.00  0.00     0.012 C 
HETATM   11  C   UNL     1       1.837  28.877  47.774  1.00  0.00     0.008 C 
HETATM   12  C   UNL     1       1.211  29.810  46.694  1.00  0.00     0.020 C 
HETATM   13  C   UNL     1       1.257  27.446  47.535  1.00  0.00     0.128 C 
HETATM   14  C   UNL     1       2.151  26.600  46.641  1.00  0.00     0.033 C 
HETATM   15  C   UNL     1       3.494  26.315  47.313  1.00  0.00     0.013 C 
ENDROOT
BRANCH   3  16
HETATM   16  C   UNL     1       5.361  26.367  49.926  1.00  0.00     0.114 C 
BRANCH  16  17
HETATM   17  C   UNL     1       5.020  25.634  51.208  1.00  0.00     0.218 C 
HETATM   18  N   UNL     1       5.742  26.038  52.299  1.00  0.00    -0.355 N 
HETATM   19  H   UNL     1       6.008  27.023  52.317  1.00  0.00     0.162 HD
HETATM   20  O   UNL     1       4.199  24.721  51.224  1.00  0.00    -0.274 OA
BRANCH  18  21
HETATM   21  C   UNL     1       5.572  25.400  53.582  1.00  0.00     0.187 C 
BRANCH  21  22
HETATM   22  C   UNL     1       6.625  24.364  53.743  1.00  0.00     0.070 A 
HETATM   23  O   UNL     1       6.758  23.805  54.984  1.00  0.00    -0.325 OA
HETATM   24  C   UNL     1       7.764  22.897  54.905  1.00  0.00     0.142 A 
HETATM   25  C   UNL     1       8.285  22.862  53.634  1.00  0.00     0.027 A 
HETATM   26  C   UNL     1       7.555  23.815  52.885  1.00  0.00     0.036 A 
ENDBRANCH  21  22
ENDBRANCH  18  21
ENDBRANCH  16  17
ENDBRANCH   3  16
BRANCH  11  27
HETATM   27  C   UNL     1       1.341  29.383  49.156  1.00  0.00     0.176 C 
BRANCH  27  28
HETATM   28  O   UNL     1       0.779  30.690  49.094  1.00  0.00    -0.400 OA
HETATM   29  H   UNL     1       1.335  31.191  48.472  1.00  0.00     0.209 HD
ENDBRANCH  27  28
ENDBRANCH  11  27
BRANCH   7  30
HETATM   30  N   UNL     1       4.614  30.757  53.071  1.00  0.00    -0.305 N 
HETATM   31  C   UNL     1       4.428  30.042  54.234  1.00  0.00     0.227 C 
HETATM   32  O   UNL     1       4.612  28.828  54.353  1.00  0.00    -0.273 OA
HETATM   33  H   UNL     1       4.379  31.736  53.031  1.00  0.00     0.171 HD
BRANCH  31  34
HETATM   34  C   UNL     1       3.906  30.907  55.413  1.00  0.00     0.078 C 
HETATM   35  C   UNL     1       3.353  30.229  56.702  1.00  0.00     0.014 C 
HETATM   36  C   UNL     1       3.998  31.370  57.508  1.00  0.00     0.002 C 
HETATM   37  C   UNL     1       4.989  31.534  56.342  1.00  0.00     0.014 C 
ENDBRANCH  31  34
ENDBRANCH   7  30
BRANCH  13  38
HETATM   38  O   UNL     1       1.073  26.758  48.773  1.00  0.00    -0.395 OA
HETATM   39  H   UNL     1       1.890  26.849  49.296  1.00  0.00     0.210 HD
ENDBRANCH  13  38
TORSDOF 9
ENDMDL
MODEL 6
REMARK VINA RESULT:      -7.1      7.657     11.287
REMARK  9 active torsions:
REMARK  status: ('A' for Active; 'I' for Inactive)
REMARK    1  A    between atoms: C_3  and  C_4 
REMARK    2  A    between atoms: C_4  and  C_5 
REMARK       I    between atoms: C_5  and  N_6 
REMARK    3  A    between atoms: N_6  and  C_7 
REMARK    4  A    between atoms: C_7  and  C_8 
REMARK    5  A    between atoms: C_17  and  N_18 
REMARK       I    between atoms: N_18  and  C_19 
REMARK    6  A    between atoms: C_19  and  C_20 
REMARK    7  A    between atoms: C_28  and  C_29 
REMARK    8  A    between atoms: C_29  and  O_30 
REMARK    9  A    between atoms: C_32  and  O_33 
ROOT
HETATM    1  C   UNL     1       5.505  31.334  63.049  1.00  0.00     0.016 C 
HETATM    2  C   UNL     1       5.667  32.797  62.525  1.00  0.00    -0.030 C 
HETATM    3  C   UNL     1       6.543  32.799  61.191  1.00  0.00     0.056 C 
HETATM    4  C   UNL     1       5.691  32.435  59.992  1.00  0.00     0.056 C 
HETATM    5  C   UNL     1       4.316  32.305  60.034  1.00  0.00     0.012 C 
HETATM    6  S   UNL     1       3.711  31.896  58.496  1.00  0.00    -0.055 SA
HETATM    7  C   UNL     1       5.261  32.215  57.854  1.00  0.00     0.173 C 
HETATM    8  N   UNL     1       6.230  32.389  58.717  1.00  0.00    -0.227 NA
HETATM    9  C   UNL     1       3.448  32.549  61.213  1.00  0.00     0.055 C 
HETATM   10  C   UNL     1       4.216  33.390  62.272  1.00  0.00     0.012 C 
HETATM   11  C   UNL     1       4.141  34.973  62.076  1.00  0.00     0.008 C 
HETATM   12  C   UNL     1       2.746  35.421  62.608  1.00  0.00     0.020 C 
HETATM   13  C   UNL     1       5.218  35.694  62.947  1.00  0.00     0.128 C 
HETATM   14  C   UNL     1       5.672  34.845  64.126  1.00  0.00     0.033 C 
HETATM   15  C   UNL     1       6.401  33.588  63.655  1.00  0.00     0.013 C 
ENDROOT
BRANCH   3  16
HETATM   16  C   UNL     1       7.785  31.895  61.301  1.00  0.00     0.114 C 
BRANCH  16  17
HETATM   17  C   UNL     1       8.577  31.797  60.013  1.00  0.00     0.218 C 
HETATM   18  N   UNL     1       8.545  30.562  59.423  1.00  0.00    -0.355 N 
HETATM   19  H   UNL     1       7.681  30.032  59.546  1.00  0.00     0.162 HD
HETATM   20  O   UNL     1       9.228  32.748  59.587  1.00  0.00    -0.274 OA
BRANCH  18  21
HETATM   21  C   UNL     1       9.293  30.292  58.219  1.00  0.00     0.187 C 
BRANCH  21  22
HETATM   22  C   UNL     1       8.496  29.382  57.357  1.00  0.00     0.070 A 
HETATM   23  O   UNL     1       7.486  29.946  56.629  1.00  0.00    -0.325 OA
HETATM   24  C   UNL     1       6.897  28.946  55.923  1.00  0.00     0.142 A 
HETATM   25  C   UNL     1       7.510  27.744  56.185  1.00  0.00     0.027 A 
HETATM   26  C   UNL     1       8.538  28.023  57.116  1.00  0.00     0.036 A 
ENDBRANCH  21  22
ENDBRANCH  18  21
ENDBRANCH  16  17
ENDBRANCH   3  16
BRANCH  11  27
HETATM   27  C   UNL     1       4.260  35.495  60.617  1.00  0.00     0.176 C 
BRANCH  27  28
HETATM   28  O   UNL     1       3.006  35.885  60.068  1.00  0.00    -0.400 OA
HETATM   29  H   UNL     1       2.415  36.030  60.828  1.00  0.00     0.209 HD
ENDBRANCH  27  28
ENDBRANCH  11  27
BRANCH   7  30
HETATM   30  N   UNL     1       5.253  32.342  56.494  1.00  0.00    -0.305 N 
HETATM   31  C   UNL     1       5.067  33.562  55.881  1.00  0.00     0.227 C 
HETATM   32  O   UNL     1       5.155  34.655  56.444  1.00  0.00    -0.273 OA
HETATM   33  H   UNL     1       5.098  31.487  55.985  1.00  0.00     0.171 HD
BRANCH  31  34
HETATM   34  C   UNL     1       4.679  33.445  54.382  1.00  0.00     0.078 C 
HETATM   35  C   UNL     1       3.429  34.196  53.832  1.00  0.00     0.014 C 
HETATM   36  C   UNL     1       4.224  34.450  52.539  1.00  0.00     0.002 C 
HETATM   37  C   UNL     1       5.502  34.318  53.386  1.00  0.00     0.014 C 
ENDBRANCH  31  34
ENDBRANCH   7  30
BRANCH  13  38
HETATM   38  O   UNL     1       6.364  36.031  62.165  1.00  0.00    -0.395 OA
HETATM   39  H   UNL     1       7.070  36.324  62.770  1.00  0.00     0.210 HD
ENDBRANCH  13  38
TORSDOF 9
ENDMDL
MODEL 7
REMARK VINA RESULT:      -7.0      2.529      7.933
REMARK  9 active torsions:
REMARK  status: ('A' for Active; 'I' for Inactive)
REMARK    1  A    between atoms: C_3  and  C_4 
REMARK    2  A    between atoms: C_4  and  C_5 
REMARK       I    between atoms: C_5  and  N_6 
REMARK    3  A    between atoms: N_6  and  C_7 
REMARK    4  A    between atoms: C_7  and  C_8 
REMARK    5  A    between atoms: C_17  and  N_18 
REMARK       I    between atoms: N_18  and  C_19 
REMARK    6  A    between atoms: C_19  and  C_20 
REMARK    7  A    between atoms: C_28  and  C_29 
REMARK    8  A    between atoms: C_29  and  O_30 
REMARK    9  A    between atoms: C_32  and  O_33 
ROOT
HETATM    1  C   UNL     1       4.166  30.404  47.117  1.00  0.00     0.016 C 
HETATM    2  C   UNL     1       3.176  30.230  48.313  1.00  0.00    -0.030 C 
HETATM    3  C   UNL     1       2.928  28.677  48.588  1.00  0.00     0.056 C 
HETATM    4  C   UNL     1       4.062  28.092  49.406  1.00  0.00     0.056 C 
HETATM    5  C   UNL     1       5.066  28.846  49.983  1.00  0.00     0.012 C 
HETATM    6  S   UNL     1       6.152  27.843  50.827  1.00  0.00    -0.055 SA
HETATM    7  C   UNL     1       5.054  26.553  50.612  1.00  0.00     0.173 C 
HETATM    8  N   UNL     1       4.059  26.760  49.785  1.00  0.00    -0.227 NA
HETATM    9  C   UNL     1       5.176  30.327  49.955  1.00  0.00     0.055 C 
HETATM   10  C   UNL     1       3.804  30.954  49.579  1.00  0.00     0.012 C 
HETATM   11  C   UNL     1       2.806  31.201  50.801  1.00  0.00     0.008 C 
HETATM   12  C   UNL     1       3.296  32.494  51.520  1.00  0.00     0.020 C 
HETATM   13  C   UNL     1       1.358  31.481  50.288  1.00  0.00     0.128 C 
HETATM   14  C   UNL     1       1.339  31.989  48.853  1.00  0.00     0.033 C 
HETATM   15  C   UNL     1       1.843  30.921  47.883  1.00  0.00     0.013 C 
ENDROOT
BRANCH   3  16
HETATM   16  C   UNL     1       2.693  27.880  47.292  1.00  0.00     0.114 C 
BRANCH  16  17
HETATM   17  C   UNL     1       1.236  27.548  47.042  1.00  0.00     0.218 C 
HETATM   18  N   UNL     1       0.749  28.006  45.847  1.00  0.00    -0.355 N 
HETATM   19  H   UNL     1       1.417  28.035  45.076  1.00  0.00     0.162 HD
HETATM   20  O   UNL     1       0.559  26.963  47.884  1.00  0.00    -0.274 OA
BRANCH  18  21
HETATM   21  C   UNL     1      -0.635  27.817  45.485  1.00  0.00     0.187 C 
BRANCH  21  22
HETATM   22  C   UNL     1      -1.384  29.061  45.799  1.00  0.00     0.070 A 
HETATM   23  O   UNL     1      -2.667  28.914  46.248  1.00  0.00    -0.325 OA
HETATM   24  C   UNL     1      -3.157  30.160  46.469  1.00  0.00     0.142 A 
HETATM   25  C   UNL     1      -2.212  31.112  46.167  1.00  0.00     0.027 A 
HETATM   26  C   UNL     1      -1.070  30.403  45.727  1.00  0.00     0.036 A 
ENDBRANCH  21  22
ENDBRANCH  18  21
ENDBRANCH  16  17
ENDBRANCH   3  16
BRANCH  11  27
HETATM   27  C   UNL     1       2.739  30.081  51.875  1.00  0.00     0.176 C 
BRANCH  27  28
HETATM   28  O   UNL     1       2.855  30.583  53.202  1.00  0.00    -0.400 OA
HETATM   29  H   UNL     1       3.546  31.267  53.169  1.00  0.00     0.209 HD
ENDBRANCH  27  28
ENDBRANCH  11  27
BRANCH   7  30
HETATM   30  N   UNL     1       5.320  25.491  51.428  1.00  0.00    -0.305 N 
HETATM   31  C   UNL     1       5.208  25.583  52.798  1.00  0.00     0.227 C 
HETATM   32  O   UNL     1       4.627  26.490  53.399  1.00  0.00    -0.273 OA
HETATM   33  H   UNL     1       5.867  24.756  51.009  1.00  0.00     0.171 HD
BRANCH  31  34
HETATM   34  C   UNL     1       5.935  24.439  53.554  1.00  0.00     0.078 C 
HETATM   35  C   UNL     1       7.287  23.876  53.019  1.00  0.00     0.014 C 
HETATM   36  C   UNL     1       7.739  23.733  54.482  1.00  0.00     0.002 C 
HETATM   37  C   UNL     1       6.740  24.852  54.824  1.00  0.00     0.014 C 
ENDBRANCH  31  34
ENDBRANCH   7  30
BRANCH  13  38
HETATM   38  O   UNL     1       0.554  30.303  50.362  1.00  0.00    -0.395 OA
HETATM   39  H   UNL     1      -0.320  30.553  50.714  1.00  0.00     0.210 HD
ENDBRANCH  13  38
TORSDOF 9
ENDMDL
MODEL 8
REMARK VINA RESULT:      -7.0      1.875      2.351
REMARK  9 active torsions:
REMARK  status: ('A' for Active; 'I' for Inactive)
REMARK    1  A    between atoms: C_3  and  C_4 
REMARK    2  A    between atoms: C_4  and  C_5 
REMARK       I    between atoms: C_5  and  N_6 
REMARK    3  A    between atoms: N_6  and  C_7 
REMARK    4  A    between atoms: C_7  and  C_8 
REMARK    5  A    between atoms: C_17  and  N_18 
REMARK       I    between atoms: N_18  and  C_19 
REMARK    6  A    between atoms: C_19  and  C_20 
REMARK    7  A    between atoms: C_28  and  C_29 
REMARK    8  A    between atoms: C_29  and  O_30 
REMARK    9  A    between atoms: C_32  and  O_33 
ROOT
HETATM    1  C   UNL     1       5.423  27.304  47.247  1.00  0.00     0.016 C 
HETATM    2  C   UNL     1       4.158  27.715  48.068  1.00  0.00    -0.030 C 
HETATM    3  C   UNL     1       4.592  28.197  49.526  1.00  0.00     0.056 C 
HETATM    4  C   UNL     1       5.070  29.635  49.492  1.00  0.00     0.056 C 
HETATM    5  C   UNL     1       4.965  30.457  48.387  1.00  0.00     0.012 C 
HETATM    6  S   UNL     1       5.602  31.999  48.730  1.00  0.00    -0.055 SA
HETATM    7  C   UNL     1       5.687  31.545  50.374  1.00  0.00     0.173 C 
HETATM    8  N   UNL     1       5.485  30.280  50.646  1.00  0.00    -0.227 NA
HETATM    9  C   UNL     1       4.328  30.107  47.092  1.00  0.00     0.055 C 
HETATM   10  C   UNL     1       3.409  28.866  47.271  1.00  0.00     0.012 C 
HETATM   11  C   UNL     1       1.918  29.181  47.748  1.00  0.00     0.008 C 
HETATM   12  C   UNL     1       1.145  29.678  46.489  1.00  0.00     0.020 C 
HETATM   13  C   UNL     1       1.206  27.882  48.241  1.00  0.00     0.128 C 
HETATM   14  C   UNL     1       1.834  26.622  47.663  1.00  0.00     0.033 C 
HETATM   15  C   UNL     1       3.265  26.437  48.166  1.00  0.00     0.013 C 
ENDROOT
BRANCH   3  16
HETATM   16  C   UNL     1       5.637  27.266  50.167  1.00  0.00     0.114 C 
BRANCH  16  17
HETATM   17  C   UNL     1       5.260  26.802  51.559  1.00  0.00     0.218 C 
HETATM   18  N   UNL     1       4.336  27.593  52.187  1.00  0.00    -0.355 N 
HETATM   19  H   UNL     1       3.646  28.039  51.581  1.00  0.00     0.162 HD
HETATM   20  O   UNL     1       5.796  25.825  52.076  1.00  0.00    -0.274 OA
BRANCH  18  21
HETATM   21  C   UNL     1       3.912  27.316  53.538  1.00  0.00     0.187 C 
BRANCH  21  22
HETATM   22  C   UNL     1       4.657  28.207  54.464  1.00  0.00     0.070 A 
HETATM   23  O   UNL     1       5.409  27.603  55.433  1.00  0.00    -0.325 OA
HETATM   24  C   UNL     1       5.995  28.591  56.156  1.00  0.00     0.142 A 
HETATM   25  C   UNL     1       5.631  29.825  55.672  1.00  0.00     0.027 A 
HETATM   26  C   UNL     1       4.761  29.578  54.584  1.00  0.00     0.036 A 
ENDBRANCH  21  22
ENDBRANCH  18  21
ENDBRANCH  16  17
ENDBRANCH   3  16
BRANCH  11  27
HETATM   27  C   UNL     1       1.759  30.274  48.841  1.00  0.00     0.176 C 
BRANCH  27  28
HETATM   28  O   UNL     1       0.950  31.365  48.414  1.00  0.00    -0.400 OA
HETATM   29  H   UNL     1       0.420  31.030  47.670  1.00  0.00     0.209 HD
ENDBRANCH  27  28
ENDBRANCH  11  27
BRANCH   7  30
HETATM   30  N   UNL     1       5.864  32.613  51.208  1.00  0.00    -0.305 N 
HETATM   31  C   UNL     1       4.810  33.402  51.609  1.00  0.00     0.227 C 
HETATM   32  O   UNL     1       3.619  33.100  51.496  1.00  0.00    -0.273 OA
HETATM   33  H   UNL     1       6.810  32.954  51.270  1.00  0.00     0.171 HD
BRANCH  31  34
HETATM   34  C   UNL     1       5.252  34.771  52.193  1.00  0.00     0.078 C 
HETATM   35  C   UNL     1       5.871  34.853  53.621  1.00  0.00     0.014 C 
HETATM   36  C   UNL     1       6.812  35.947  53.086  1.00  0.00     0.002 C 
HETATM   37  C   UNL     1       6.620  35.326  51.691  1.00  0.00     0.014 C 
ENDBRANCH  31  34
ENDBRANCH   7  30
BRANCH  13  38
HETATM   38  O   UNL     1       1.239  27.792  49.666  1.00  0.00    -0.395 OA
HETATM   39  H   UNL     1       0.527  27.190  49.949  1.00  0.00     0.210 HD
ENDBRANCH  13  38
TORSDOF 9
ENDMDL
MODEL 9
REMARK VINA RESULT:      -6.8      4.052      8.613
REMARK  9 active torsions:
REMARK  status: ('A' for Active; 'I' for Inactive)
REMARK    1  A    between atoms: C_3  and  C_4 
REMARK    2  A    between atoms: C_4  and  C_5 
REMARK       I    between atoms: C_5  and  N_6 
REMARK    3  A    between atoms: N_6  and  C_7 
REMARK    4  A    between atoms: C_7  and  C_8 
REMARK    5  A    between atoms: C_17  and  N_18 
REMARK       I    between atoms: N_18  and  C_19 
REMARK    6  A    between atoms: C_19  and  C_20 
REMARK    7  A    between atoms: C_28  and  C_29 
REMARK    8  A    between atoms: C_29  and  O_30 
REMARK    9  A    between atoms: C_32  and  O_33 
ROOT
HETATM    1  C   UNL     1       5.742  24.095  52.925  1.00  0.00     0.016 C 
HETATM    2  C   UNL     1       7.110  23.869  53.645  1.00  0.00    -0.030 C 
HETATM    3  C   UNL     1       7.858  25.266  53.837  1.00  0.00     0.056 C 
HETATM    4  C   UNL     1       7.313  26.002  55.045  1.00  0.00     0.056 C 
HETATM    5  C   UNL     1       6.427  25.450  55.950  1.00  0.00     0.012 C 
HETATM    6  S   UNL     1       6.049  26.572  57.172  1.00  0.00    -0.055 SA
HETATM    7  C   UNL     1       7.299  27.571  56.576  1.00  0.00     0.173 C 
HETATM    8  N   UNL     1       7.821  27.234  55.423  1.00  0.00    -0.227 NA
HETATM    9  C   UNL     1       5.912  24.057  55.933  1.00  0.00     0.055 C 
HETATM   10  C   UNL     1       6.820  23.166  55.040  1.00  0.00     0.012 C 
HETATM   11  C   UNL     1       8.088  22.529  55.771  1.00  0.00     0.008 C 
HETATM   12  C   UNL     1       7.563  21.315  56.594  1.00  0.00     0.020 C 
HETATM   13  C   UNL     1       9.109  21.971  54.729  1.00  0.00     0.128 C 
HETATM   14  C   UNL     1       8.458  21.660  53.389  1.00  0.00     0.033 C 
HETATM   15  C   UNL     1       7.946  22.932  52.715  1.00  0.00     0.013 C 
ENDROOT
BRANCH   3  16
HETATM   16  C   UNL     1       7.808  26.139  52.570  1.00  0.00     0.114 C 
BRANCH  16  17
HETATM   17  C   UNL     1       6.414  26.617  52.219  1.00  0.00     0.218 C 
HETATM   18  N   UNL     1       5.955  26.178  51.006  1.00  0.00    -0.355 N 
HETATM   19  H   UNL     1       6.278  25.254  50.715  1.00  0.00     0.162 HD
HETATM   20  O   UNL     1       5.793  27.379  52.956  1.00  0.00    -0.274 OA
BRANCH  18  21
HETATM   21  C   UNL     1       4.667  26.590  50.503  1.00  0.00     0.187 C 
BRANCH  21  22
HETATM   22  C   UNL     1       4.874  27.496  49.344  1.00  0.00     0.070 A 
HETATM   23  O   UNL     1       5.103  28.814  49.623  1.00  0.00    -0.325 OA
HETATM   24  C   UNL     1       5.262  29.451  48.435  1.00  0.00     0.142 A 
HETATM   25  C   UNL     1       5.135  28.565  47.392  1.00  0.00     0.027 A 
HETATM   26  C   UNL     1       4.877  27.303  47.978  1.00  0.00     0.036 A 
ENDBRANCH  21  22
ENDBRANCH  18  21
ENDBRANCH  16  17
ENDBRANCH   3  16
BRANCH  11  27
HETATM   27  C   UNL     1       8.852  23.454  56.759  1.00  0.00     0.176 C 
BRANCH  27  28
HETATM   28  O   UNL     1       8.522  23.196  58.120  1.00  0.00    -0.400 OA
HETATM   29  H   UNL     1       9.292  23.482  58.641  1.00  0.00     0.209 HD
ENDBRANCH  27  28
ENDBRANCH  11  27
BRANCH   7  30
HETATM   30  N   UNL     1       7.655  28.554  57.455  1.00  0.00    -0.305 N 
HETATM   31  C   UNL     1       7.190  29.844  57.328  1.00  0.00     0.227 C 
HETATM   32  O   UNL     1       6.241  30.185  56.617  1.00  0.00    -0.273 OA
HETATM   33  H   UNL     1       8.478  28.360  58.003  1.00  0.00     0.171 HD
BRANCH  31  34
HETATM   34  C   UNL     1       8.011  30.878  58.144  1.00  0.00     0.078 C 
HETATM   35  C   UNL     1       8.019  30.825  59.702  1.00  0.00     0.014 C 
HETATM   36  C   UNL     1       9.500  31.236  59.650  1.00  0.00     0.002 C 
HETATM   37  C   UNL     1       9.545  30.620  58.240  1.00  0.00     0.014 C 
ENDBRANCH  31  34
ENDBRANCH   7  30
BRANCH  13  38
HETATM   38  O   UNL     1      10.174  22.897  54.511  1.00  0.00    -0.395 OA
HETATM   39  H   UNL     1       9.787  23.785  54.404  1.00  0.00     0.210 HD
ENDBRANCH  13  38
TORSDOF 9
ENDMDL
MODEL 10
REMARK VINA RESULT:      -6.8      4.679      8.418
REMARK  9 active torsions:
REMARK  status: ('A' for Active; 'I' for Inactive)
REMARK    1  A    between atoms: C_3  and  C_4 
REMARK    2  A    between atoms: C_4  and  C_5 
REMARK       I    between atoms: C_5  and  N_6 
REMARK    3  A    between atoms: N_6  and  C_7 
REMARK    4  A    between atoms: C_7  and  C_8 
REMARK    5  A    between atoms: C_17  and  N_18 
REMARK       I    between atoms: N_18  and  C_19 
REMARK    6  A    between atoms: C_19  and  C_20 
REMARK    7  A    between atoms: C_28  and  C_29 
REMARK    8  A    between atoms: C_29  and  O_30 
REMARK    9  A    between atoms: C_32  and  O_33 
ROOT
HETATM    1  C   UNL     1       1.137  32.671  55.150  1.00  0.00     0.016 C 
HETATM    2  C   UNL     1       2.605  33.207  55.164  1.00  0.00    -0.030 C 
HETATM    3  C   UNL     1       3.597  32.053  55.644  1.00  0.00     0.056 C 
HETATM    4  C   UNL     1       3.922  31.117  54.497  1.00  0.00     0.056 C 
HETATM    5  C   UNL     1       3.554  31.347  53.185  1.00  0.00     0.012 C 
HETATM    6  S   UNL     1       4.099  30.083  52.184  1.00  0.00    -0.055 SA
HETATM    7  C   UNL     1       5.018  29.501  53.501  1.00  0.00     0.173 C 
HETATM    8  N   UNL     1       4.780  30.044  54.669  1.00  0.00    -0.227 NA
HETATM    9  C   UNL     1       2.847  32.547  52.672  1.00  0.00     0.055 C 
HETATM   10  C   UNL     1       2.958  33.709  53.699  1.00  0.00     0.012 C 
HETATM   11  C   UNL     1       4.269  34.611  53.574  1.00  0.00     0.008 C 
HETATM   12  C   UNL     1       4.028  35.580  52.377  1.00  0.00     0.020 C 
HETATM   13  C   UNL     1       4.460  35.494  54.848  1.00  0.00     0.128 C 
HETATM   14  C   UNL     1       3.158  35.709  55.605  1.00  0.00     0.033 C 
HETATM   15  C   UNL     1       2.628  34.395  56.178  1.00  0.00     0.013 C 
ENDROOT
BRANCH   3  16
HETATM   16  C   UNL     1       3.062  31.288  56.868  1.00  0.00     0.114 C 
BRANCH  16  17
HETATM   17  C   UNL     1       3.778  31.634  58.158  1.00  0.00     0.218 C 
HETATM   18  N   UNL     1       5.140  31.716  58.043  1.00  0.00    -0.355 N 
HETATM   19  H   UNL     1       5.492  32.052  57.145  1.00  0.00     0.162 HD
HETATM   20  O   UNL     1       3.166  31.769  59.214  1.00  0.00    -0.274 OA
BRANCH  18  21
HETATM   21  C   UNL     1       5.970  31.985  59.192  1.00  0.00     0.187 C 
BRANCH  21  22
HETATM   22  C   UNL     1       7.324  31.426  58.944  1.00  0.00     0.070 A 
HETATM   23  O   UNL     1       8.383  32.272  59.119  1.00  0.00    -0.325 OA
HETATM   24  C   UNL     1       9.508  31.564  58.843  1.00  0.00     0.142 A 
HETATM   25  C   UNL     1       9.193  30.275  58.488  1.00  0.00     0.027 A 
HETATM   26  C   UNL     1       7.782  30.187  58.546  1.00  0.00     0.036 A 
ENDBRANCH  21  22
ENDBRANCH  18  21
ENDBRANCH  16  17
ENDBRANCH   3  16
BRANCH  11  27
HETATM   27  C   UNL     1       5.600  33.861  53.292  1.00  0.00     0.176 C 
BRANCH  27  28
HETATM   28  O   UNL     1       5.987  33.924  51.924  1.00  0.00    -0.400 OA
HETATM   29  H   UNL     1       6.035  34.871  51.703  1.00  0.00     0.209 HD
ENDBRANCH  27  28
ENDBRANCH  11  27
BRANCH   7  30
HETATM   30  N   UNL     1       5.965  28.592  53.123  1.00  0.00    -0.305 N 
HETATM   31  C   UNL     1       5.736  27.235  53.189  1.00  0.00     0.227 C 
HETATM   32  O   UNL     1       4.627  26.713  53.326  1.00  0.00    -0.273 OA
HETATM   33  H   UNL     1       6.906  28.949  53.078  1.00  0.00     0.171 HD
BRANCH  31  34
HETATM   34  C   UNL     1       7.035  26.387  53.122  1.00  0.00     0.078 C 
HETATM   35  C   UNL     1       7.215  25.148  54.051  1.00  0.00     0.014 C 
HETATM   36  C   UNL     1       7.930  24.449  52.881  1.00  0.00     0.002 C 
HETATM   37  C   UNL     1       7.138  25.375  51.941  1.00  0.00     0.014 C 
ENDBRANCH  31  34
ENDBRANCH   7  30
BRANCH  13  38
HETATM   38  O   UNL     1       5.409  34.905  55.738  1.00  0.00    -0.395 OA
HETATM   39  H   UNL     1       6.066  35.585  55.976  1.00  0.00     0.210 HD
ENDBRANCH  13  38
TORSDOF 9
ENDMDL
