MODEL 1
REMARK VINA RESULT:     -10.5      0.000      0.000
REMARK  6 active torsions:
REMARK  status: ('A' for Active; 'I' for Inactive)
REMARK    1  A    between atoms: C_9  and  C_10 
REMARK       I    between atoms: C_10  and  N_11 
REMARK    2  A    between atoms: N_11  and  N_12 
REMARK       I    between atoms: N_12  and  C_13 
REMARK    3  A    between atoms: C_13  and  C_14 
REMARK    4  A    between atoms: C_14  and  O_15 
REMARK    5  A    between atoms: O_15  and  C_16 
REMARK    6  A    between atoms: C_17  and  C_18 
ROOT
HETATM    1  N   UNL     1       7.130  26.259  56.225  1.00  0.00    -0.265 N 
HETATM    2  C   UNL     1       7.812  25.506  57.165  1.00  0.00     0.260 C 
HETATM    3  O   UNL     1       7.952  25.844  58.340  1.00  0.00    -0.269 OA
HETATM    4  H   UNL     1       7.198  26.063  55.230  1.00  0.00     0.190 HD
ENDROOT
BRANCH   1   5
HETATM    5  N   UNL     1       6.664  27.524  56.594  1.00  0.00    -0.262 N 
HETATM    6  C   UNL     1       7.460  28.642  56.404  1.00  0.00     0.291 C 
HETATM    7  O   UNL     1       8.490  28.635  55.732  1.00  0.00    -0.264 OA
HETATM    8  H   UNL     1       5.963  27.579  57.334  1.00  0.00     0.190 HD
BRANCH   6   9
HETATM    9  C   UNL     1       6.927  29.832  57.085  1.00  0.00     0.158 A 
HETATM   10  C   UNL     1       7.338  30.391  58.332  1.00  0.00     0.029 A 
HETATM   11  C   UNL     1       8.289  30.079  59.326  1.00  0.00     0.023 A 
HETATM   12  C   UNL     1       6.536  31.514  58.506  1.00  0.00     0.063 A 
HETATM   13  C   UNL     1       8.407  30.908  60.456  1.00  0.00    -0.061 A 
HETATM   14  C   UNL     1       9.389  30.581  61.543  1.00  0.00     0.048 C 
HETATM   15  C   UNL     1       7.578  32.029  60.589  1.00  0.00     0.009 A 
HETATM   16  C   UNL     1       6.628  32.357  59.616  1.00  0.00     0.032 A 
HETATM   17  N   UNL     1       5.722  31.551  57.410  1.00  0.00    -0.277 N 
HETATM   18  H   UNL     1       5.005  32.237  57.201  1.00  0.00     0.189 HD
HETATM   19  N   UNL     1       5.923  30.553  56.534  1.00  0.00    -0.168 NA
ENDBRANCH   6   9
ENDBRANCH   1   5
BRANCH   2  20
HETATM   20  C   UNL     1       8.365  24.198  56.609  1.00  0.00     0.280 C 
BRANCH  20  21
HETATM   21  O   UNL     1       7.361  23.375  56.038  1.00  0.00    -0.341 OA
BRANCH  21  22
HETATM   22  C   UNL     1       7.731  22.338  55.216  1.00  0.00     0.080 A 
HETATM   23  C   UNL     1       7.634  22.578  53.824  1.00  0.00     0.007 A 
HETATM   24  C   UNL     1       8.018  21.552  52.936  1.00  0.00     0.015 A 
HETATM   25  C   UNL     1       8.477  20.321  53.402  1.00  0.00     0.001 A 
HETATM   26  C   UNL     1       8.556  20.093  54.769  1.00  0.00     0.003 A 
HETATM   27  C   UNL     1       8.186  21.093  55.671  1.00  0.00     0.037 A 
BRANCH  23  28
HETATM   28  C   UNL     1       7.130  23.849  53.265  1.00  0.00    -0.023 A 
HETATM   29  C   UNL     1       5.755  24.096  53.133  1.00  0.00     0.012 A 
HETATM   30  C   UNL     1       5.289  25.311  52.621  1.00  0.00     0.001 A 
HETATM   31  C   UNL     1       6.191  26.300  52.238  1.00  0.00     0.000 A 
HETATM   32  C   UNL     1       7.560  26.075  52.363  1.00  0.00     0.001 A 
HETATM   33  C   UNL     1       8.024  24.861  52.872  1.00  0.00     0.012 A 
ENDBRANCH  23  28
ENDBRANCH  21  22
ENDBRANCH  20  21
ENDBRANCH   2  20
TORSDOF 6
ENDMDL
MODEL 2
REMARK VINA RESULT:     -10.2      2.394      8.848
REMARK  6 active torsions:
REMARK  status: ('A' for Active; 'I' for Inactive)
REMARK    1  A    between atoms: C_9  and  C_10 
REMARK       I    between atoms: C_10  and  N_11 
REMARK    2  A    between atoms: N_11  and  N_12 
REMARK       I    between atoms: N_12  and  C_13 
REMARK    3  A    between atoms: C_13  and  C_14 
REMARK    4  A    between atoms: C_14  and  O_15 
REMARK    5  A    between atoms: O_15  and  C_16 
REMARK    6  A    between atoms: C_17  and  C_18 
ROOT
HETATM    1  N   UNL     1       4.471  29.814  57.788  1.00  0.00    -0.265 N 
HETATM    2  C   UNL     1       5.008  31.067  57.554  1.00  0.00     0.260 C 
HETATM    3  O   UNL     1       5.242  31.511  56.431  1.00  0.00    -0.269 OA
HETATM    4  H   UNL     1       4.473  29.394  58.714  1.00  0.00     0.190 HD
ENDROOT
BRANCH   1   5
HETATM    5  N   UNL     1       4.279  28.956  56.702  1.00  0.00    -0.262 N 
HETATM    6  C   UNL     1       5.165  27.914  56.473  1.00  0.00     0.291 C 
HETATM    7  O   UNL     1       6.012  27.553  57.288  1.00  0.00    -0.264 OA
HETATM    8  H   UNL     1       3.773  29.314  55.891  1.00  0.00     0.190 HD
BRANCH   6   9
HETATM    9  C   UNL     1       4.967  27.290  55.156  1.00  0.00     0.158 A 
HETATM   10  C   UNL     1       5.620  26.139  54.619  1.00  0.00     0.029 A 
HETATM   11  C   UNL     1       6.615  25.238  55.050  1.00  0.00     0.023 A 
HETATM   12  C   UNL     1       5.057  25.959  53.361  1.00  0.00     0.063 A 
HETATM   13  C   UNL     1       7.006  24.183  54.206  1.00  0.00    -0.061 A 
HETATM   14  C   UNL     1       8.085  23.228  54.628  1.00  0.00     0.048 C 
HETATM   15  C   UNL     1       6.410  24.039  52.946  1.00  0.00     0.009 A 
HETATM   16  C   UNL     1       5.422  24.922  52.499  1.00  0.00     0.032 A 
HETATM   17  N   UNL     1       4.151  26.972  53.220  1.00  0.00    -0.277 N 
HETATM   18  H   UNL     1       3.553  27.154  52.422  1.00  0.00     0.189 HD
HETATM   19  N   UNL     1       4.071  27.797  54.278  1.00  0.00    -0.168 NA
ENDBRANCH   6   9
ENDBRANCH   1   5
BRANCH   2  20
HETATM   20  C   UNL     1       5.271  31.863  58.829  1.00  0.00     0.280 C 
BRANCH  20  21
HETATM   21  O   UNL     1       6.617  32.293  58.941  1.00  0.00    -0.341 OA
BRANCH  21  22
HETATM   22  C   UNL     1       7.231  32.261  60.169  1.00  0.00     0.080 A 
HETATM   23  C   UNL     1       8.461  31.563  60.238  1.00  0.00     0.007 A 
HETATM   24  C   UNL     1       9.140  31.516  61.473  1.00  0.00     0.015 A 
HETATM   25  C   UNL     1       8.621  32.129  62.611  1.00  0.00     0.001 A 
HETATM   26  C   UNL     1       7.408  32.799  62.536  1.00  0.00     0.003 A 
HETATM   27  C   UNL     1       6.717  32.866  61.324  1.00  0.00     0.037 A 
BRANCH  23  28
HETATM   28  C   UNL     1       9.052  30.870  59.075  1.00  0.00    -0.023 A 
HETATM   29  C   UNL     1       8.482  29.697  58.555  1.00  0.00     0.012 A 
HETATM   30  C   UNL     1       9.038  29.060  57.442  1.00  0.00     0.001 A 
HETATM   31  C   UNL     1      10.171  29.587  56.828  1.00  0.00     0.000 A 
HETATM   32  C   UNL     1      10.751  30.751  57.327  1.00  0.00     0.001 A 
HETATM   33  C   UNL     1      10.196  31.385  58.440  1.00  0.00     0.012 A 
ENDBRANCH  23  28
ENDBRANCH  21  22
ENDBRANCH  20  21
ENDBRANCH   2  20
TORSDOF 6
ENDMDL
MODEL 3
REMARK VINA RESULT:     -10.1      2.489      4.410
REMARK  6 active torsions:
REMARK  status: ('A' for Active; 'I' for Inactive)
REMARK    1  A    between atoms: C_9  and  C_10 
REMARK       I    between atoms: C_10  and  N_11 
REMARK    2  A    between atoms: N_11  and  N_12 
REMARK       I    between atoms: N_12  and  C_13 
REMARK    3  A    between atoms: C_13  and  C_14 
REMARK    4  A    between atoms: C_14  and  O_15 
REMARK    5  A    between atoms: O_15  and  C_16 
REMARK    6  A    between atoms: C_17  and  C_18 
ROOT
HETATM    1  N   UNL     1       7.514  29.069  57.573  1.00  0.00    -0.265 N 
HETATM    2  C   UNL     1       7.760  27.737  57.291  1.00  0.00     0.260 C 
HETATM    3  O   UNL     1       7.953  26.879  58.151  1.00  0.00    -0.269 OA
HETATM    4  H   UNL     1       7.558  29.786  56.855  1.00  0.00     0.190 HD
ENDROOT
BRANCH   1   5
HETATM    5  N   UNL     1       7.593  29.494  58.902  1.00  0.00    -0.262 N 
HETATM    6  C   UNL     1       7.708  30.844  59.195  1.00  0.00     0.291 C 
HETATM    7  O   UNL     1       7.538  31.735  58.364  1.00  0.00    -0.264 OA
HETATM    8  H   UNL     1       7.963  28.841  59.594  1.00  0.00     0.190 HD
BRANCH   6   9
HETATM    9  C   UNL     1       8.045  31.085  60.607  1.00  0.00     0.158 A 
HETATM   10  C   UNL     1       7.534  32.097  61.474  1.00  0.00     0.029 A 
HETATM   11  C   UNL     1       6.626  33.170  61.365  1.00  0.00     0.023 A 
HETATM   12  C   UNL     1       8.155  31.870  62.697  1.00  0.00     0.063 A 
HETATM   13  C   UNL     1       6.367  33.975  62.490  1.00  0.00    -0.061 A 
HETATM   14  C   UNL     1       5.428  35.143  62.392  1.00  0.00     0.048 C 
HETATM   15  C   UNL     1       7.015  33.709  63.702  1.00  0.00     0.009 A 
HETATM   16  C   UNL     1       7.919  32.650  63.832  1.00  0.00     0.032 A 
HETATM   17  N   UNL     1       8.971  30.794  62.496  1.00  0.00    -0.277 N 
HETATM   18  H   UNL     1       9.579  30.349  63.174  1.00  0.00     0.189 HD
HETATM   19  N   UNL     1       8.936  30.295  61.249  1.00  0.00    -0.168 NA
ENDBRANCH   6   9
ENDBRANCH   1   5
BRANCH   2  20
HETATM   20  C   UNL     1       7.754  27.423  55.797  1.00  0.00     0.280 C 
BRANCH  20  21
HETATM   21  O   UNL     1       7.240  26.133  55.509  1.00  0.00    -0.341 OA
BRANCH  21  22
HETATM   22  C   UNL     1       6.437  25.963  54.407  1.00  0.00     0.080 A 
HETATM   23  C   UNL     1       6.482  24.689  53.790  1.00  0.00     0.007 A 
HETATM   24  C   UNL     1       5.664  24.457  52.665  1.00  0.00     0.015 A 
HETATM   25  C   UNL     1       4.832  25.452  52.154  1.00  0.00     0.001 A 
HETATM   26  C   UNL     1       4.806  26.701  52.758  1.00  0.00     0.003 A 
HETATM   27  C   UNL     1       5.603  26.956  53.877  1.00  0.00     0.037 A 
BRANCH  23  28
HETATM   28  C   UNL     1       7.361  23.602  54.265  1.00  0.00    -0.023 A 
HETATM   29  C   UNL     1       7.263  23.100  55.572  1.00  0.00     0.012 A 
HETATM   30  C   UNL     1       8.086  22.056  56.005  1.00  0.00     0.001 A 
HETATM   31  C   UNL     1       9.018  21.494  55.136  1.00  0.00     0.000 A 
HETATM   32  C   UNL     1       9.129  21.975  53.833  1.00  0.00     0.001 A 
HETATM   33  C   UNL     1       8.308  23.020  53.404  1.00  0.00     0.012 A 
ENDBRANCH  23  28
ENDBRANCH  21  22
ENDBRANCH  20  21
ENDBRANCH   2  20
TORSDOF 6
ENDMDL
MODEL 4
REMARK VINA RESULT:     -10.0      1.513      3.032
REMARK  6 active torsions:
REMARK  status: ('A' for Active; 'I' for Inactive)
REMARK    1  A    between atoms: C_9  and  C_10 
REMARK       I    between atoms: C_10  and  N_11 
REMARK    2  A    between atoms: N_11  and  N_12 
REMARK       I    between atoms: N_12  and  C_13 
REMARK    3  A    between atoms: C_13  and  C_14 
REMARK    4  A    between atoms: C_14  and  O_15 
REMARK    5  A    between atoms: O_15  and  C_16 
REMARK    6  A    between atoms: C_17  and  C_18 
ROOT
HETATM    1  N   UNL     1       6.821  26.774  53.950  1.00  0.00    -0.265 N 
HETATM    2  C   UNL     1       5.963  26.100  53.099  1.00  0.00     0.260 C 
HETATM    3  O   UNL     1       4.840  26.504  52.801  1.00  0.00    -0.269 OA
HETATM    4  H   UNL     1       7.650  26.330  54.337  1.00  0.00     0.190 HD
ENDROOT
BRANCH   1   5
HETATM    5  N   UNL     1       6.357  27.923  54.595  1.00  0.00    -0.262 N 
HETATM    6  C   UNL     1       7.229  28.709  55.331  1.00  0.00     0.291 C 
HETATM    7  O   UNL     1       8.452  28.583  55.294  1.00  0.00    -0.264 OA
HETATM    8  H   UNL     1       5.371  27.960  54.859  1.00  0.00     0.190 HD
BRANCH   6   9
HETATM    9  C   UNL     1       6.527  29.711  56.148  1.00  0.00     0.158 A 
HETATM   10  C   UNL     1       6.913  30.241  57.416  1.00  0.00     0.029 A 
HETATM   11  C   UNL     1       7.976  30.046  58.322  1.00  0.00     0.023 A 
HETATM   12  C   UNL     1       5.923  31.163  57.738  1.00  0.00     0.063 A 
HETATM   13  C   UNL     1       8.013  30.790  59.516  1.00  0.00    -0.061 A 
HETATM   14  C   UNL     1       9.118  30.579  60.512  1.00  0.00     0.048 C 
HETATM   15  C   UNL     1       6.995  31.709  59.798  1.00  0.00     0.009 A 
HETATM   16  C   UNL     1       5.931  31.917  58.914  1.00  0.00     0.032 A 
HETATM   17  N   UNL     1       5.040  31.125  56.697  1.00  0.00    -0.277 N 
HETATM   18  H   UNL     1       4.190  31.668  56.593  1.00  0.00     0.189 HD
HETATM   19  N   UNL     1       5.366  30.260  55.723  1.00  0.00    -0.168 NA
ENDBRANCH   6   9
ENDBRANCH   1   5
BRANCH   2  20
HETATM   20  C   UNL     1       6.549  24.804  52.547  1.00  0.00     0.280 C 
BRANCH  20  21
HETATM   21  O   UNL     1       7.701  24.377  53.255  1.00  0.00    -0.341 OA
BRANCH  21  22
HETATM   22  C   UNL     1       7.778  23.075  53.687  1.00  0.00     0.080 A 
HETATM   23  C   UNL     1       7.681  22.871  55.084  1.00  0.00     0.007 A 
HETATM   24  C   UNL     1       7.737  21.551  55.578  1.00  0.00     0.015 A 
HETATM   25  C   UNL     1       7.892  20.462  54.723  1.00  0.00     0.001 A 
HETATM   26  C   UNL     1       8.000  20.674  53.355  1.00  0.00     0.003 A 
HETATM   27  C   UNL     1       7.943  21.971  52.839  1.00  0.00     0.037 A 
BRANCH  23  28
HETATM   28  C   UNL     1       7.542  23.983  56.046  1.00  0.00    -0.023 A 
HETATM   29  C   UNL     1       8.666  24.618  56.599  1.00  0.00     0.012 A 
HETATM   30  C   UNL     1       8.523  25.683  57.493  1.00  0.00     0.001 A 
HETATM   31  C   UNL     1       7.253  26.134  57.846  1.00  0.00     0.000 A 
HETATM   32  C   UNL     1       6.125  25.520  57.307  1.00  0.00     0.001 A 
HETATM   33  C   UNL     1       6.270  24.455  56.416  1.00  0.00     0.012 A 
ENDBRANCH  23  28
ENDBRANCH  21  22
ENDBRANCH  20  21
ENDBRANCH   2  20
TORSDOF 6
ENDMDL
MODEL 5
REMARK VINA RESULT:      -9.8      5.312      9.077
REMARK  6 active torsions:
REMARK  status: ('A' for Active; 'I' for Inactive)
REMARK    1  A    between atoms: C_9  and  C_10 
REMARK       I    between atoms: C_10  and  N_11 
REMARK    2  A    between atoms: N_11  and  N_12 
REMARK       I    between atoms: N_12  and  C_13 
REMARK    3  A    between atoms: C_13  and  C_14 
REMARK    4  A    between atoms: C_14  and  O_15 
REMARK    5  A    between atoms: O_15  and  C_16 
REMARK    6  A    between atoms: C_17  and  C_18 
ROOT
HETATM    1  N   UNL     1       5.525  26.269  50.950  1.00  0.00    -0.265 N 
HETATM    2  C   UNL     1       5.336  25.462  52.059  1.00  0.00     0.260 C 
HETATM    3  O   UNL     1       4.521  24.542  52.104  1.00  0.00    -0.269 OA
HETATM    4  H   UNL     1       6.051  27.137  51.003  1.00  0.00     0.190 HD
ENDROOT
BRANCH   1   5
HETATM    5  N   UNL     1       4.674  26.107  49.854  1.00  0.00    -0.262 N 
HETATM    6  C   UNL     1       4.577  27.103  48.895  1.00  0.00     0.291 C 
HETATM    7  O   UNL     1       5.353  28.055  48.825  1.00  0.00    -0.264 OA
HETATM    8  H   UNL     1       3.866  25.492  49.961  1.00  0.00     0.190 HD
BRANCH   6   9
HETATM    9  C   UNL     1       3.452  26.884  47.972  1.00  0.00     0.158 A 
HETATM   10  C   UNL     1       2.358  27.757  47.695  1.00  0.00     0.029 A 
HETATM   11  C   UNL     1       1.926  29.024  48.138  1.00  0.00     0.023 A 
HETATM   12  C   UNL     1       1.597  27.090  46.741  1.00  0.00     0.063 A 
HETATM   13  C   UNL     1       0.750  29.581  47.603  1.00  0.00    -0.061 A 
HETATM   14  C   UNL     1       0.252  30.915  48.081  1.00  0.00     0.048 C 
HETATM   15  C   UNL     1       0.016  28.873  46.644  1.00  0.00     0.009 A 
HETATM   16  C   UNL     1       0.426  27.615  46.190  1.00  0.00     0.032 A 
HETATM   17  N   UNL     1       2.245  25.908  46.523  1.00  0.00    -0.277 N 
HETATM   18  H   UNL     1       1.973  25.166  45.887  1.00  0.00     0.189 HD
HETATM   19  N   UNL     1       3.364  25.744  47.248  1.00  0.00    -0.168 NA
ENDBRANCH   6   9
ENDBRANCH   1   5
BRANCH   2  20
HETATM   20  C   UNL     1       6.253  25.813  53.227  1.00  0.00     0.280 C 
BRANCH  20  21
HETATM   21  O   UNL     1       6.115  24.920  54.321  1.00  0.00    -0.341 OA
BRANCH  21  22
HETATM   22  C   UNL     1       6.897  25.101  55.436  1.00  0.00     0.080 A 
HETATM   23  C   UNL     1       7.811  24.062  55.736  1.00  0.00     0.007 A 
HETATM   24  C   UNL     1       8.649  24.207  56.861  1.00  0.00     0.015 A 
HETATM   25  C   UNL     1       8.584  25.337  57.674  1.00  0.00     0.001 A 
HETATM   26  C   UNL     1       7.675  26.343  57.379  1.00  0.00     0.003 A 
HETATM   27  C   UNL     1       6.837  26.228  56.267  1.00  0.00     0.037 A 
BRANCH  23  28
HETATM   28  C   UNL     1       7.910  22.828  54.931  1.00  0.00    -0.023 A 
HETATM   29  C   UNL     1       8.202  22.871  53.558  1.00  0.00     0.012 A 
HETATM   30  C   UNL     1       8.314  21.696  52.810  1.00  0.00     0.001 A 
HETATM   31  C   UNL     1       8.140  20.457  53.423  1.00  0.00     0.000 A 
HETATM   32  C   UNL     1       7.853  20.392  54.784  1.00  0.00     0.001 A 
HETATM   33  C   UNL     1       7.739  21.568  55.530  1.00  0.00     0.012 A 
ENDBRANCH  23  28
ENDBRANCH  21  22
ENDBRANCH  20  21
ENDBRANCH   2  20
TORSDOF 6
ENDMDL
MODEL 6
REMARK VINA RESULT:      -9.5      1.709      2.183
REMARK  6 active torsions:
REMARK  status: ('A' for Active; 'I' for Inactive)
REMARK    1  A    between atoms: C_9  and  C_10 
REMARK       I    between atoms: C_10  and  N_11 
REMARK    2  A    between atoms: N_11  and  N_12 
REMARK       I    between atoms: N_12  and  C_13 
REMARK    3  A    between atoms: C_13  and  C_14 
REMARK    4  A    between atoms: C_14  and  O_15 
REMARK    5  A    between atoms: O_15  and  C_16 
REMARK    6  A    between atoms: C_17  and  C_18 
ROOT
HETATM    1  N   UNL     1       7.079  26.253  55.760  1.00  0.00    -0.265 N 
HETATM    2  C   UNL     1       7.836  25.808  56.830  1.00  0.00     0.260 C 
HETATM    3  O   UNL     1       8.140  26.511  57.792  1.00  0.00    -0.269 OA
HETATM    4  H   UNL     1       7.012  25.725  54.895  1.00  0.00     0.190 HD
ENDROOT
BRANCH   1   5
HETATM    5  N   UNL     1       6.725  27.604  55.710  1.00  0.00    -0.262 N 
HETATM    6  C   UNL     1       5.442  28.000  56.055  1.00  0.00     0.291 C 
HETATM    7  O   UNL     1       4.631  27.262  56.611  1.00  0.00    -0.264 OA
HETATM    8  H   UNL     1       7.235  28.210  55.066  1.00  0.00     0.190 HD
BRANCH   6   9
HETATM    9  C   UNL     1       5.171  29.400  55.691  1.00  0.00     0.158 A 
HETATM   10  C   UNL     1       5.217  30.553  56.530  1.00  0.00     0.029 A 
HETATM   11  C   UNL     1       5.485  30.815  57.890  1.00  0.00     0.023 A 
HETATM   12  C   UNL     1       4.903  31.619  55.695  1.00  0.00     0.063 A 
HETATM   13  C   UNL     1       5.437  32.139  58.362  1.00  0.00    -0.061 A 
HETATM   14  C   UNL     1       5.688  32.442  59.812  1.00  0.00     0.048 C 
HETATM   15  C   UNL     1       5.117  33.182  57.484  1.00  0.00     0.009 A 
HETATM   16  C   UNL     1       4.846  32.945  56.133  1.00  0.00     0.032 A 
HETATM   17  N   UNL     1       4.686  31.066  54.466  1.00  0.00    -0.277 N 
HETATM   18  H   UNL     1       4.433  31.548  53.611  1.00  0.00     0.189 HD
HETATM   19  N   UNL     1       4.833  29.731  54.423  1.00  0.00    -0.168 NA
ENDBRANCH   6   9
ENDBRANCH   1   5
BRANCH   2  20
HETATM   20  C   UNL     1       8.251  24.344  56.711  1.00  0.00     0.280 C 
BRANCH  20  21
HETATM   21  O   UNL     1       7.258  23.539  56.096  1.00  0.00    -0.341 OA
BRANCH  21  22
HETATM   22  C   UNL     1       7.642  22.432  55.379  1.00  0.00     0.080 A 
HETATM   23  C   UNL     1       7.590  22.550  53.970  1.00  0.00     0.007 A 
HETATM   24  C   UNL     1       7.991  21.447  53.187  1.00  0.00     0.015 A 
HETATM   25  C   UNL     1       8.421  20.259  53.773  1.00  0.00     0.001 A 
HETATM   26  C   UNL     1       8.455  20.150  55.156  1.00  0.00     0.003 A 
HETATM   27  C   UNL     1       8.069  21.228  55.956  1.00  0.00     0.037 A 
BRANCH  23  28
HETATM   28  C   UNL     1       7.119  23.772  53.286  1.00  0.00    -0.023 A 
HETATM   29  C   UNL     1       5.750  24.054  53.154  1.00  0.00     0.012 A 
HETATM   30  C   UNL     1       5.315  25.223  52.524  1.00  0.00     0.001 A 
HETATM   31  C   UNL     1       6.242  26.132  52.019  1.00  0.00     0.000 A 
HETATM   32  C   UNL     1       7.604  25.872  52.141  1.00  0.00     0.001 A 
HETATM   33  C   UNL     1       8.037  24.702  52.769  1.00  0.00     0.012 A 
ENDBRANCH  23  28
ENDBRANCH  21  22
ENDBRANCH  20  21
ENDBRANCH   2  20
TORSDOF 6
ENDMDL
MODEL 7
REMARK VINA RESULT:      -9.4      3.165      5.564
REMARK  6 active torsions:
REMARK  status: ('A' for Active; 'I' for Inactive)
REMARK    1  A    between atoms: C_9  and  C_10 
REMARK       I    between atoms: C_10  and  N_11 
REMARK    2  A    between atoms: N_11  and  N_12 
REMARK       I    between atoms: N_12  and  C_13 
REMARK    3  A    between atoms: C_13  and  C_14 
REMARK    4  A    between atoms: C_14  and  O_15 
REMARK    5  A    between atoms: O_15  and  C_16 
REMARK    6  A    between atoms: C_17  and  C_18 
ROOT
HETATM    1  N   UNL     1       4.482  29.498  57.766  1.00  0.00    -0.265 N 
HETATM    2  C   UNL     1       4.066  29.557  56.448  1.00  0.00     0.260 C 
HETATM    3  O   UNL     1       3.323  30.430  56.003  1.00  0.00    -0.269 OA
HETATM    4  H   UNL     1       4.924  28.669  58.153  1.00  0.00     0.190 HD
ENDROOT
BRANCH   1   5
HETATM    5  N   UNL     1       3.949  30.416  58.675  1.00  0.00    -0.262 N 
HETATM    6  C   UNL     1       4.615  31.604  58.936  1.00  0.00     0.291 C 
HETATM    7  O   UNL     1       5.557  32.015  58.261  1.00  0.00    -0.264 OA
HETATM    8  H   UNL     1       3.337  30.062  59.411  1.00  0.00     0.190 HD
BRANCH   6   9
HETATM    9  C   UNL     1       4.059  32.314  60.099  1.00  0.00     0.158 A 
HETATM   10  C   UNL     1       4.721  32.671  61.312  1.00  0.00     0.029 A 
HETATM   11  C   UNL     1       6.011  32.504  61.857  1.00  0.00     0.023 A 
HETATM   12  C   UNL     1       3.762  33.342  62.062  1.00  0.00     0.063 A 
HETATM   13  C   UNL     1       6.295  33.023  63.133  1.00  0.00    -0.061 A 
HETATM   14  C   UNL     1       7.651  32.831  63.750  1.00  0.00     0.048 C 
HETATM   15  C   UNL     1       5.298  33.693  63.853  1.00  0.00     0.009 A 
HETATM   16  C   UNL     1       4.012  33.869  63.331  1.00  0.00     0.032 A 
HETATM   17  N   UNL     1       2.633  33.337  61.294  1.00  0.00    -0.277 N 
HETATM   18  H   UNL     1       1.731  33.739  61.526  1.00  0.00     0.189 HD
HETATM   19  N   UNL     1       2.770  32.724  60.107  1.00  0.00    -0.168 NA
ENDBRANCH   6   9
ENDBRANCH   1   5
BRANCH   2  20
HETATM   20  C   UNL     1       4.633  28.434  55.583  1.00  0.00     0.280 C 
BRANCH  20  21
HETATM   21  O   UNL     1       6.035  28.279  55.734  1.00  0.00    -0.341 OA
BRANCH  21  22
HETATM   22  C   UNL     1       6.537  27.055  56.105  1.00  0.00     0.080 A 
HETATM   23  C   UNL     1       7.685  27.074  56.933  1.00  0.00     0.007 A 
HETATM   24  C   UNL     1       8.230  25.844  57.356  1.00  0.00     0.015 A 
HETATM   25  C   UNL     1       7.668  24.629  56.969  1.00  0.00     0.001 A 
HETATM   26  C   UNL     1       6.550  24.622  56.146  1.00  0.00     0.003 A 
HETATM   27  C   UNL     1       5.987  25.826  55.716  1.00  0.00     0.037 A 
BRANCH  23  28
HETATM   28  C   UNL     1       8.344  28.326  57.357  1.00  0.00    -0.023 A 
HETATM   29  C   UNL     1       7.849  29.088  58.426  1.00  0.00     0.012 A 
HETATM   30  C   UNL     1       8.493  30.261  58.832  1.00  0.00     0.001 A 
HETATM   31  C   UNL     1       9.646  30.688  58.177  1.00  0.00     0.000 A 
HETATM   32  C   UNL     1      10.155  29.945  57.115  1.00  0.00     0.001 A 
HETATM   33  C   UNL     1       9.509  28.775  56.709  1.00  0.00     0.012 A 
ENDBRANCH  23  28
ENDBRANCH  21  22
ENDBRANCH  20  21
ENDBRANCH   2  20
TORSDOF 6
ENDMDL
MODEL 8
REMARK VINA RESULT:      -9.3      4.409     10.259
REMARK  6 active torsions:
REMARK  status: ('A' for Active; 'I' for Inactive)
REMARK    1  A    between atoms: C_9  and  C_10 
REMARK       I    between atoms: C_10  and  N_11 
REMARK    2  A    between atoms: N_11  and  N_12 
REMARK       I    between atoms: N_12  and  C_13 
REMARK    3  A    between atoms: C_13  and  C_14 
REMARK    4  A    between atoms: C_14  and  O_15 
REMARK    5  A    between atoms: O_15  and  C_16 
REMARK    6  A    between atoms: C_17  and  C_18 
ROOT
HETATM    1  N   UNL     1       4.776  31.599  59.991  1.00  0.00    -0.265 N 
HETATM    2  C   UNL     1       3.740  32.402  60.435  1.00  0.00     0.260 C 
HETATM    3  O   UNL     1       2.739  32.659  59.768  1.00  0.00    -0.269 OA
HETATM    4  H   UNL     1       5.671  31.564  60.471  1.00  0.00     0.190 HD
ENDROOT
BRANCH   1   5
HETATM    5  N   UNL     1       4.743  31.136  58.673  1.00  0.00    -0.262 N 
HETATM    6  C   UNL     1       5.384  31.846  57.670  1.00  0.00     0.291 C 
HETATM    7  O   UNL     1       6.170  32.766  57.886  1.00  0.00    -0.264 OA
HETATM    8  H   UNL     1       3.957  30.549  58.390  1.00  0.00     0.190 HD
BRANCH   6   9
HETATM    9  C   UNL     1       5.024  31.366  56.326  1.00  0.00     0.158 A 
HETATM   10  C   UNL     1       4.997  30.021  55.849  1.00  0.00     0.029 A 
HETATM   11  C   UNL     1       5.284  28.746  56.377  1.00  0.00     0.023 A 
HETATM   12  C   UNL     1       4.570  30.116  54.529  1.00  0.00     0.063 A 
HETATM   13  C   UNL     1       5.125  27.608  55.565  1.00  0.00    -0.061 A 
HETATM   14  C   UNL     1       5.453  26.241  56.093  1.00  0.00     0.048 C 
HETATM   15  C   UNL     1       4.691  27.751  54.241  1.00  0.00     0.009 A 
HETATM   16  C   UNL     1       4.402  29.007  53.696  1.00  0.00     0.032 A 
HETATM   17  N   UNL     1       4.387  31.450  54.302  1.00  0.00    -0.277 N 
HETATM   18  H   UNL     1       4.078  31.890  53.442  1.00  0.00     0.189 HD
HETATM   19  N   UNL     1       4.654  32.236  55.358  1.00  0.00    -0.168 NA
ENDBRANCH   6   9
ENDBRANCH   1   5
BRANCH   2  20
HETATM   20  C   UNL     1       3.948  32.932  61.851  1.00  0.00     0.280 C 
BRANCH  20  21
HETATM   21  O   UNL     1       4.922  32.198  62.575  1.00  0.00    -0.341 OA
BRANCH  21  22
HETATM   22  C   UNL     1       5.540  32.786  63.652  1.00  0.00     0.080 A 
HETATM   23  C   UNL     1       6.954  32.820  63.622  1.00  0.00     0.007 A 
HETATM   24  C   UNL     1       7.637  33.428  64.696  1.00  0.00     0.015 A 
HETATM   25  C   UNL     1       6.948  33.980  65.775  1.00  0.00     0.001 A 
HETATM   26  C   UNL     1       5.561  33.929  65.801  1.00  0.00     0.003 A 
HETATM   27  C   UNL     1       4.860  33.337  64.747  1.00  0.00     0.037 A 
BRANCH  23  28
HETATM   28  C   UNL     1       7.745  32.230  62.523  1.00  0.00    -0.023 A 
HETATM   29  C   UNL     1       7.890  32.887  61.291  1.00  0.00     0.012 A 
HETATM   30  C   UNL     1       8.657  32.329  60.264  1.00  0.00     0.001 A 
HETATM   31  C   UNL     1       9.296  31.106  60.454  1.00  0.00     0.000 A 
HETATM   32  C   UNL     1       9.166  30.439  61.670  1.00  0.00     0.001 A 
HETATM   33  C   UNL     1       8.398  30.996  62.693  1.00  0.00     0.012 A 
ENDBRANCH  23  28
ENDBRANCH  21  22
ENDBRANCH  20  21
ENDBRANCH   2  20
TORSDOF 6
ENDMDL
MODEL 9
REMARK VINA RESULT:      -9.3      3.162      4.771
REMARK  6 active torsions:
REMARK  status: ('A' for Active; 'I' for Inactive)
REMARK    1  A    between atoms: C_9  and  C_10 
REMARK       I    between atoms: C_10  and  N_11 
REMARK    2  A    between atoms: N_11  and  N_12 
REMARK       I    between atoms: N_12  and  C_13 
REMARK    3  A    between atoms: C_13  and  C_14 
REMARK    4  A    between atoms: C_14  and  O_15 
REMARK    5  A    between atoms: O_15  and  C_16 
REMARK    6  A    between atoms: C_17  and  C_18 
ROOT
HETATM    1  N   UNL     1       5.323  25.386  52.363  1.00  0.00    -0.265 N 
HETATM    2  C   UNL     1       6.620  25.363  52.844  1.00  0.00     0.260 C 
HETATM    3  O   UNL     1       7.103  26.246  53.552  1.00  0.00    -0.269 OA
HETATM    4  H   UNL     1       5.013  24.759  51.626  1.00  0.00     0.190 HD
ENDROOT
BRANCH   1   5
HETATM    5  N   UNL     1       4.543  26.521  52.601  1.00  0.00    -0.262 N 
HETATM    6  C   UNL     1       4.684  27.643  51.799  1.00  0.00     0.291 C 
HETATM    7  O   UNL     1       5.312  27.646  50.741  1.00  0.00    -0.264 OA
HETATM    8  H   UNL     1       4.197  26.675  53.549  1.00  0.00     0.190 HD
BRANCH   6   9
HETATM    9  C   UNL     1       3.990  28.817  52.351  1.00  0.00     0.158 A 
HETATM   10  C   UNL     1       4.042  29.325  53.684  1.00  0.00     0.029 A 
HETATM   11  C   UNL     1       4.676  28.961  54.890  1.00  0.00     0.023 A 
HETATM   12  C   UNL     1       3.232  30.454  53.672  1.00  0.00     0.063 A 
HETATM   13  C   UNL     1       4.480  29.747  56.040  1.00  0.00    -0.061 A 
HETATM   14  C   UNL     1       5.118  29.363  57.344  1.00  0.00     0.048 C 
HETATM   15  C   UNL     1       3.655  30.877  55.980  1.00  0.00     0.009 A 
HETATM   16  C   UNL     1       3.016  31.256  54.795  1.00  0.00     0.032 A 
HETATM   17  N   UNL     1       2.756  30.545  52.395  1.00  0.00    -0.277 N 
HETATM   18  H   UNL     1       2.131  31.250  52.021  1.00  0.00     0.189 HD
HETATM   19  N   UNL     1       3.186  29.575  51.570  1.00  0.00    -0.168 NA
ENDBRANCH   6   9
ENDBRANCH   1   5
BRANCH   2  20
HETATM   20  C   UNL     1       7.401  24.121  52.423  1.00  0.00     0.280 C 
BRANCH  20  21
HETATM   21  O   UNL     1       8.427  23.781  53.341  1.00  0.00    -0.341 OA
BRANCH  21  22
HETATM   22  C   UNL     1       8.401  22.549  53.950  1.00  0.00     0.080 A 
HETATM   23  C   UNL     1       8.049  22.536  55.321  1.00  0.00     0.007 A 
HETATM   24  C   UNL     1       7.991  21.295  55.988  1.00  0.00     0.015 A 
HETATM   25  C   UNL     1       8.278  20.101  55.329  1.00  0.00     0.001 A 
HETATM   26  C   UNL     1       8.634  20.127  53.988  1.00  0.00     0.003 A 
HETATM   27  C   UNL     1       8.695  21.342  53.301  1.00  0.00     0.037 A 
BRANCH  23  28
HETATM   28  C   UNL     1       7.760  23.767  56.084  1.00  0.00    -0.023 A 
HETATM   29  C   UNL     1       8.783  24.506  56.696  1.00  0.00     0.012 A 
HETATM   30  C   UNL     1       8.500  25.681  57.399  1.00  0.00     0.001 A 
HETATM   31  C   UNL     1       7.189  26.138  57.497  1.00  0.00     0.000 A 
HETATM   32  C   UNL     1       6.158  25.420  56.895  1.00  0.00     0.001 A 
HETATM   33  C   UNL     1       6.442  24.246  56.195  1.00  0.00     0.012 A 
ENDBRANCH  23  28
ENDBRANCH  21  22
ENDBRANCH  20  21
ENDBRANCH   2  20
TORSDOF 6
ENDMDL
MODEL 10
REMARK VINA RESULT:      -9.3      2.207      9.911
REMARK  6 active torsions:
REMARK  status: ('A' for Active; 'I' for Inactive)
REMARK    1  A    between atoms: C_9  and  C_10 
REMARK       I    between atoms: C_10  and  N_11 
REMARK    2  A    between atoms: N_11  and  N_12 
REMARK       I    between atoms: N_12  and  C_13 
REMARK    3  A    between atoms: C_13  and  C_14 
REMARK    4  A    between atoms: C_14  and  O_15 
REMARK    5  A    between atoms: O_15  and  C_16 
REMARK    6  A    between atoms: C_17  and  C_18 
ROOT
HETATM    1  N   UNL     1       6.787  30.072  58.132  1.00  0.00    -0.265 N 
HETATM    2  C   UNL     1       5.567  30.501  57.640  1.00  0.00     0.260 C 
HETATM    3  O   UNL     1       4.679  29.740  57.257  1.00  0.00    -0.269 OA
HETATM    4  H   UNL     1       7.570  30.710  58.251  1.00  0.00     0.190 HD
ENDROOT
BRANCH   1   5
HETATM    5  N   UNL     1       7.080  28.707  58.095  1.00  0.00    -0.262 N 
HETATM    6  C   UNL     1       7.787  28.175  57.028  1.00  0.00     0.291 C 
HETATM    7  O   UNL     1       8.369  28.862  56.190  1.00  0.00    -0.264 OA
HETATM    8  H   UNL     1       6.460  28.070  58.598  1.00  0.00     0.190 HD
BRANCH   6   9
HETATM    9  C   UNL     1       7.770  26.703  57.022  1.00  0.00     0.158 A 
HETATM   10  C   UNL     1       7.688  25.828  55.898  1.00  0.00     0.029 A 
HETATM   11  C   UNL     1       7.583  25.972  54.499  1.00  0.00     0.023 A 
HETATM   12  C   UNL     1       7.732  24.546  56.435  1.00  0.00     0.063 A 
HETATM   13  C   UNL     1       7.532  24.824  53.687  1.00  0.00    -0.061 A 
HETATM   14  C   UNL     1       7.388  24.950  52.197  1.00  0.00     0.048 C 
HETATM   15  C   UNL     1       7.579  23.553  54.272  1.00  0.00     0.009 A 
HETATM   16  C   UNL     1       7.683  23.387  55.657  1.00  0.00     0.032 A 
HETATM   17  N   UNL     1       7.821  24.722  57.786  1.00  0.00    -0.277 N 
HETATM   18  H   UNL     1       7.871  24.001  58.497  1.00  0.00     0.189 HD
HETATM   19  N   UNL     1       7.842  26.007  58.180  1.00  0.00    -0.168 NA
ENDBRANCH   6   9
ENDBRANCH   1   5
BRANCH   2  20
HETATM   20  C   UNL     1       5.414  32.019  57.633  1.00  0.00     0.280 C 
BRANCH  20  21
HETATM   21  O   UNL     1       6.129  32.648  58.684  1.00  0.00    -0.341 OA
BRANCH  21  22
HETATM   22  C   UNL     1       5.431  33.211  59.725  1.00  0.00     0.080 A 
HETATM   23  C   UNL     1       6.007  33.077  61.011  1.00  0.00     0.007 A 
HETATM   24  C   UNL     1       5.339  33.652  62.112  1.00  0.00     0.015 A 
HETATM   25  C   UNL     1       4.133  34.334  61.954  1.00  0.00     0.001 A 
HETATM   26  C   UNL     1       3.571  34.448  60.691  1.00  0.00     0.003 A 
HETATM   27  C   UNL     1       4.214  33.892  59.582  1.00  0.00     0.037 A 
BRANCH  23  28
HETATM   28  C   UNL     1       7.267  32.345  61.250  1.00  0.00    -0.023 A 
HETATM   29  C   UNL     1       8.426  32.620  60.507  1.00  0.00     0.012 A 
HETATM   30  C   UNL     1       9.619  31.935  60.755  1.00  0.00     0.001 A 
HETATM   31  C   UNL     1       9.674  30.966  61.753  1.00  0.00     0.000 A 
HETATM   32  C   UNL     1       8.537  30.679  62.504  1.00  0.00     0.001 A 
HETATM   33  C   UNL     1       7.345  31.362  62.253  1.00  0.00     0.012 A 
ENDBRANCH  23  28
ENDBRANCH  21  22
ENDBRANCH  20  21
ENDBRANCH   2  20
TORSDOF 6
ENDMDL
