MODEL 1
REMARK VINA RESULT:      -8.9      0.000      0.000
REMARK  7 active torsions:
REMARK  status: ('A' for Active; 'I' for Inactive)
REMARK    1  A    between atoms: C_7  and  C_8 
REMARK    2  A    between atoms: C_8  and  C_9 
REMARK    3  A    between atoms: C_9  and  C_10 
REMARK    4  A    between atoms: C_10  and  O_11 
REMARK    5  A    between atoms: C_13  and  C_14 
REMARK    6  A    between atoms: C_21  and  C_22 
REMARK       I    between atoms: C_22  and  N_23 
REMARK    7  A    between atoms: N_23  and  C_24 
ROOT
HETATM    1  C   UNL     1       3.484  29.095  53.903  1.00  0.00     0.070 C 
HETATM    2  C   UNL     1       4.945  28.742  54.037  1.00  0.00     0.037 A 
HETATM    3  N   UNL     1       5.613  29.339  55.100  1.00  0.00    -0.192 N 
HETATM    4  C   UNL     1       6.930  29.186  55.329  1.00  0.00     0.726 A 
HETATM    5  N   UNL     1       7.656  28.361  54.518  1.00  0.00    -0.083 N 
HETATM    6  N   UNL     1       8.975  28.430  54.800  1.00  0.00    -0.140 NA
HETATM    7  C   UNL     1       8.954  29.226  55.881  1.00  0.00     0.166 A 
HETATM    8  N   UNL     1       7.720  29.725  56.221  1.00  0.00    -0.046 NA
HETATM    9  C   UNL     1       7.091  27.596  53.400  1.00  0.00     0.202 A 
HETATM   10  C   UNL     1       5.616  27.916  53.194  1.00  0.00     0.062 A 
HETATM   11  H   UNL     1       5.080  29.956  55.709  1.00  0.00     0.184 HD
ENDROOT
BRANCH  10  12
HETATM   12  C   UNL     1       4.893  27.215  52.097  1.00  0.00     0.256 C 
HETATM   13  N   UNL     1       4.864  27.921  50.913  1.00  0.00    -0.323 N 
HETATM   14  H   UNL     1       5.339  28.811  50.871  1.00  0.00     0.169 HD
HETATM   15  O   UNL     1       4.402  26.114  52.312  1.00  0.00    -0.267 OA
BRANCH  13  16
HETATM   16  C   UNL     1       4.214  27.543  49.717  1.00  0.00     0.035 A 
HETATM   17  C   UNL     1       4.642  26.504  48.888  1.00  0.00     0.029 A 
HETATM   18  C   UNL     1       3.927  26.177  47.732  1.00  0.00     0.002 A 
HETATM   19  C   UNL     1       2.783  26.893  47.387  1.00  0.00     0.000 A 
HETATM   20  C   UNL     1       2.349  27.934  48.203  1.00  0.00     0.002 A 
HETATM   21  C   UNL     1       3.058  28.253  49.365  1.00  0.00     0.029 A 
ENDBRANCH  13  16
ENDBRANCH  10  12
BRANCH   9  22
HETATM   22  C   UNL     1       7.398  26.112  53.590  1.00  0.00    -0.028 A 
HETATM   23  C   UNL     1       7.901  25.318  52.545  1.00  0.00     0.011 A 
HETATM   24  C   UNL     1       8.140  23.955  52.738  1.00  0.00     0.019 A 
HETATM   25  C   UNL     1       7.866  23.370  53.972  1.00  0.00     0.011 A 
HETATM   26 BR   UNL     1       8.177  21.524  54.229  1.00  0.00    -0.051 Br
HETATM   27  C   UNL     1       7.354  24.136  55.016  1.00  0.00     0.019 A 
HETATM   28  C   UNL     1       7.121  25.499  54.826  1.00  0.00     0.011 A 
ENDBRANCH   9  22
BRANCH   7  29
HETATM   29  C   UNL     1      10.178  29.536  56.660  1.00  0.00     0.085 C 
BRANCH  29  30
HETATM   30  C   UNL     1       9.876  30.079  58.056  1.00  0.00     0.034 C 
BRANCH  30  31
HETATM   31  C   UNL     1      10.331  31.522  58.249  1.00  0.00     0.164 C 
BRANCH  31  32
HETATM   32  O   UNL     1       9.313  32.255  58.924  1.00  0.00    -0.401 OA
HETATM   33  H   UNL     1       8.599  32.418  58.286  1.00  0.00     0.209 HD
ENDBRANCH  31  32
ENDBRANCH  30  31
ENDBRANCH  29  30
ENDBRANCH   7  29
TORSDOF 7
ENDMDL
MODEL 2
REMARK VINA RESULT:      -8.8      5.002      7.471
REMARK  7 active torsions:
REMARK  status: ('A' for Active; 'I' for Inactive)
REMARK    1  A    between atoms: C_7  and  C_8 
REMARK    2  A    between atoms: C_8  and  C_9 
REMARK    3  A    between atoms: C_9  and  C_10 
REMARK    4  A    between atoms: C_10  and  O_11 
REMARK    5  A    between atoms: C_13  and  C_14 
REMARK    6  A    between atoms: C_21  and  C_22 
REMARK       I    between atoms: C_22  and  N_23 
REMARK    7  A    between atoms: N_23  and  C_24 
ROOT
HETATM    1  C   UNL     1      10.963  29.709  56.985  1.00  0.00     0.070 C 
HETATM    2  C   UNL     1       9.749  30.109  57.787  1.00  0.00     0.037 A 
HETATM    3  N   UNL     1       9.927  31.182  58.653  1.00  0.00    -0.192 N 
HETATM    4  C   UNL     1       8.970  31.628  59.488  1.00  0.00     0.726 A 
HETATM    5  N   UNL     1       7.736  31.045  59.460  1.00  0.00    -0.083 N 
HETATM    6  N   UNL     1       6.947  31.517  60.449  1.00  0.00    -0.140 NA
HETATM    7  C   UNL     1       7.735  32.477  60.957  1.00  0.00     0.166 A 
HETATM    8  N   UNL     1       8.992  32.559  60.406  1.00  0.00    -0.046 NA
HETATM    9  C   UNL     1       7.358  29.955  58.553  1.00  0.00     0.202 A 
HETATM   10  C   UNL     1       8.545  29.486  57.720  1.00  0.00     0.062 A 
HETATM   11  H   UNL     1      10.843  31.621  58.681  1.00  0.00     0.184 HD
ENDROOT
BRANCH  10  12
HETATM   12  C   UNL     1       8.323  28.383  56.743  1.00  0.00     0.256 C 
HETATM   13  N   UNL     1       8.090  27.159  57.334  1.00  0.00    -0.323 N 
HETATM   14  H   UNL     1       8.060  27.108  58.342  1.00  0.00     0.169 HD
HETATM   15  O   UNL     1       8.359  28.630  55.544  1.00  0.00    -0.267 OA
BRANCH  13  16
HETATM   16  C   UNL     1       7.897  25.924  56.675  1.00  0.00     0.035 A 
HETATM   17  C   UNL     1       6.949  25.712  55.672  1.00  0.00     0.029 A 
HETATM   18  C   UNL     1       6.839  24.463  55.053  1.00  0.00     0.002 A 
HETATM   19  C   UNL     1       7.668  23.412  55.437  1.00  0.00     0.000 A 
HETATM   20  C   UNL     1       8.613  23.610  56.439  1.00  0.00     0.002 A 
HETATM   21  C   UNL     1       8.731  24.862  57.050  1.00  0.00     0.029 A 
ENDBRANCH  13  16
ENDBRANCH  10  12
BRANCH   9  22
HETATM   22  C   UNL     1       6.134  30.368  57.739  1.00  0.00    -0.028 A 
HETATM   23  C   UNL     1       5.104  29.461  57.433  1.00  0.00     0.011 A 
HETATM   24  C   UNL     1       4.012  29.859  56.657  1.00  0.00     0.019 A 
HETATM   25  C   UNL     1       3.947  31.161  56.167  1.00  0.00     0.011 A 
HETATM   26 BR   UNL     1       2.477  31.695  55.106  1.00  0.00    -0.051 Br
HETATM   27  C   UNL     1       4.964  32.071  56.446  1.00  0.00     0.019 A 
HETATM   28  C   UNL     1       6.051  31.676  57.227  1.00  0.00     0.011 A 
ENDBRANCH   9  22
BRANCH   7  29
HETATM   29  C   UNL     1       7.278  33.393  62.030  1.00  0.00     0.085 C 
BRANCH  29  30
HETATM   30  C   UNL     1       6.938  32.668  63.331  1.00  0.00     0.034 C 
BRANCH  30  31
HETATM   31  C   UNL     1       5.440  32.464  63.531  1.00  0.00     0.164 C 
BRANCH  31  32
HETATM   32  O   UNL     1       5.084  31.142  63.138  1.00  0.00    -0.401 OA
HETATM   33  H   UNL     1       4.650  31.201  62.271  1.00  0.00     0.209 HD
ENDBRANCH  31  32
ENDBRANCH  30  31
ENDBRANCH  29  30
ENDBRANCH   7  29
TORSDOF 7
ENDMDL
MODEL 3
REMARK VINA RESULT:      -8.7      3.618      7.172
REMARK  7 active torsions:
REMARK  status: ('A' for Active; 'I' for Inactive)
REMARK    1  A    between atoms: C_7  and  C_8 
REMARK    2  A    between atoms: C_8  and  C_9 
REMARK    3  A    between atoms: C_9  and  C_10 
REMARK    4  A    between atoms: C_10  and  O_11 
REMARK    5  A    between atoms: C_13  and  C_14 
REMARK    6  A    between atoms: C_21  and  C_22 
REMARK       I    between atoms: C_22  and  N_23 
REMARK    7  A    between atoms: N_23  and  C_24 
ROOT
HETATM    1  C   UNL     1       3.453  28.449  52.887  1.00  0.00     0.070 C 
HETATM    2  C   UNL     1       4.399  27.670  53.767  1.00  0.00     0.037 A 
HETATM    3  N   UNL     1       4.883  26.483  53.228  1.00  0.00    -0.192 N 
HETATM    4  C   UNL     1       5.684  25.635  53.899  1.00  0.00     0.726 A 
HETATM    5  N   UNL     1       6.098  25.965  55.158  1.00  0.00    -0.083 N 
HETATM    6  N   UNL     1       6.775  24.949  55.734  1.00  0.00    -0.140 NA
HETATM    7  C   UNL     1       6.838  24.082  54.711  1.00  0.00     0.166 A 
HETATM    8  N   UNL     1       6.161  24.461  53.576  1.00  0.00    -0.046 NA
HETATM    9  C   UNL     1       5.744  27.213  55.843  1.00  0.00     0.202 A 
HETATM   10  C   UNL     1       4.773  28.047  55.017  1.00  0.00     0.062 A 
HETATM   11  H   UNL     1       4.579  26.230  52.291  1.00  0.00     0.184 HD
ENDROOT
BRANCH  10  12
HETATM   12  C   UNL     1       4.318  29.351  55.575  1.00  0.00     0.256 C 
HETATM   13  N   UNL     1       5.071  30.426  55.153  1.00  0.00    -0.323 N 
HETATM   14  H   UNL     1       5.826  30.261  54.503  1.00  0.00     0.169 HD
HETATM   15  O   UNL     1       3.353  29.376  56.328  1.00  0.00    -0.267 OA
BRANCH  13  16
HETATM   16  C   UNL     1       4.918  31.775  55.548  1.00  0.00     0.035 A 
HETATM   17  C   UNL     1       4.579  32.811  54.676  1.00  0.00     0.029 A 
HETATM   18  C   UNL     1       4.424  34.117  55.152  1.00  0.00     0.002 A 
HETATM   19  C   UNL     1       4.616  34.400  56.502  1.00  0.00     0.000 A 
HETATM   20  C   UNL     1       4.958  33.376  57.380  1.00  0.00     0.002 A 
HETATM   21  C   UNL     1       5.102  32.069  56.906  1.00  0.00     0.029 A 
ENDBRANCH  13  16
ENDBRANCH  10  12
BRANCH   9  22
HETATM   22  C   UNL     1       7.016  27.947  56.259  1.00  0.00    -0.028 A 
HETATM   23  C   UNL     1       7.282  28.273  57.600  1.00  0.00     0.011 A 
HETATM   24  C   UNL     1       8.439  28.976  57.947  1.00  0.00     0.019 A 
HETATM   25  C   UNL     1       9.333  29.371  56.956  1.00  0.00     0.011 A 
HETATM   26 BR   UNL     1      10.892  30.333  57.424  1.00  0.00    -0.051 Br
HETATM   27  C   UNL     1       9.083  29.071  55.619  1.00  0.00     0.019 A 
HETATM   28  C   UNL     1       7.931  28.363  55.273  1.00  0.00     0.011 A 
ENDBRANCH   9  22
BRANCH   7  29
HETATM   29  C   UNL     1       7.595  22.809  54.795  1.00  0.00     0.085 C 
BRANCH  29  30
HETATM   30  C   UNL     1       7.887  22.195  53.427  1.00  0.00     0.034 C 
BRANCH  30  31
HETATM   31  C   UNL     1       8.627  20.864  53.513  1.00  0.00     0.164 C 
BRANCH  31  32
HETATM   32  O   UNL     1       8.108  19.968  52.535  1.00  0.00    -0.401 OA
HETATM   33  H   UNL     1       8.690  20.012  51.759  1.00  0.00     0.209 HD
ENDBRANCH  31  32
ENDBRANCH  30  31
ENDBRANCH  29  30
ENDBRANCH   7  29
TORSDOF 7
ENDMDL
MODEL 4
REMARK VINA RESULT:      -8.5      7.377     11.007
REMARK  7 active torsions:
REMARK  status: ('A' for Active; 'I' for Inactive)
REMARK    1  A    between atoms: C_7  and  C_8 
REMARK    2  A    between atoms: C_8  and  C_9 
REMARK    3  A    between atoms: C_9  and  C_10 
REMARK    4  A    between atoms: C_10  and  O_11 
REMARK    5  A    between atoms: C_13  and  C_14 
REMARK    6  A    between atoms: C_21  and  C_22 
REMARK       I    between atoms: C_22  and  N_23 
REMARK    7  A    between atoms: N_23  and  C_24 
ROOT
HETATM    1  C   UNL     1       9.564  32.136  61.507  1.00  0.00     0.070 C 
HETATM    2  C   UNL     1       8.177  32.405  62.037  1.00  0.00     0.037 A 
HETATM    3  N   UNL     1       8.113  32.864  63.348  1.00  0.00    -0.192 N 
HETATM    4  C   UNL     1       6.957  33.092  63.998  1.00  0.00     0.726 A 
HETATM    5  N   UNL     1       5.774  32.921  63.336  1.00  0.00    -0.083 N 
HETATM    6  N   UNL     1       4.721  33.056  64.169  1.00  0.00    -0.140 NA
HETATM    7  C   UNL     1       5.344  33.434  65.296  1.00  0.00     0.166 A 
HETATM    8  N   UNL     1       6.717  33.446  65.234  1.00  0.00    -0.046 NA
HETATM    9  C   UNL     1       5.667  32.517  61.929  1.00  0.00     0.202 A 
HETATM   10  C   UNL     1       7.034  32.211  61.331  1.00  0.00     0.062 A 
HETATM   11  H   UNL     1       8.988  32.993  63.848  1.00  0.00     0.184 HD
ENDROOT
BRANCH  10  12
HETATM   12  C   UNL     1       7.096  31.790  59.903  1.00  0.00     0.256 C 
HETATM   13  N   UNL     1       7.478  30.476  59.730  1.00  0.00    -0.323 N 
HETATM   14  H   UNL     1       7.653  29.913  60.550  1.00  0.00     0.169 HD
HETATM   15  O   UNL     1       6.815  32.598  59.027  1.00  0.00    -0.267 OA
BRANCH  13  16
HETATM   16  C   UNL     1       7.677  29.806  58.501  1.00  0.00     0.035 A 
HETATM   17  C   UNL     1       6.643  29.295  57.714  1.00  0.00     0.029 A 
HETATM   18  C   UNL     1       6.923  28.666  56.497  1.00  0.00     0.002 A 
HETATM   19  C   UNL     1       8.239  28.532  56.061  1.00  0.00     0.000 A 
HETATM   20  C   UNL     1       9.278  29.034  56.840  1.00  0.00     0.002 A 
HETATM   21  C   UNL     1       8.997  29.673  58.051  1.00  0.00     0.029 A 
ENDBRANCH  13  16
ENDBRANCH  10  12
BRANCH   9  22
HETATM   22  C   UNL     1       4.854  33.555  61.160  1.00  0.00    -0.028 A 
HETATM   23  C   UNL     1       5.115  34.932  61.269  1.00  0.00     0.011 A 
HETATM   24  C   UNL     1       4.333  35.862  60.579  1.00  0.00     0.019 A 
HETATM   25  C   UNL     1       3.274  35.426  59.786  1.00  0.00     0.011 A 
HETATM   26 BR   UNL     1       2.207  36.685  58.864  1.00  0.00    -0.051 Br
HETATM   27  C   UNL     1       2.989  34.067  59.676  1.00  0.00     0.019 A 
HETATM   28  C   UNL     1       3.775  33.138  60.359  1.00  0.00     0.011 A 
ENDBRANCH   9  22
BRANCH   7  29
HETATM   29  C   UNL     1       4.602  33.823  66.520  1.00  0.00     0.085 C 
BRANCH  29  30
HETATM   30  C   UNL     1       5.045  35.170  67.087  1.00  0.00     0.034 C 
BRANCH  30  31
HETATM   31  C   UNL     1       5.893  35.042  68.348  1.00  0.00     0.164 C 
BRANCH  31  32
HETATM   32  O   UNL     1       7.237  34.738  67.988  1.00  0.00    -0.401 OA
HETATM   33  H   UNL     1       7.210  34.030  67.324  1.00  0.00     0.209 HD
ENDBRANCH  31  32
ENDBRANCH  30  31
ENDBRANCH  29  30
ENDBRANCH   7  29
TORSDOF 7
ENDMDL
MODEL 5
REMARK VINA RESULT:      -8.3      3.361      6.456
REMARK  7 active torsions:
REMARK  status: ('A' for Active; 'I' for Inactive)
REMARK    1  A    between atoms: C_7  and  C_8 
REMARK    2  A    between atoms: C_8  and  C_9 
REMARK    3  A    between atoms: C_9  and  C_10 
REMARK    4  A    between atoms: C_10  and  O_11 
REMARK    5  A    between atoms: C_13  and  C_14 
REMARK    6  A    between atoms: C_21  and  C_22 
REMARK       I    between atoms: C_22  and  N_23 
REMARK    7  A    between atoms: N_23  and  C_24 
ROOT
HETATM    1  C   UNL     1       5.021  27.764  50.227  1.00  0.00     0.070 C 
HETATM    2  C   UNL     1       5.518  27.013  51.438  1.00  0.00     0.037 A 
HETATM    3  N   UNL     1       6.465  26.027  51.187  1.00  0.00    -0.192 N 
HETATM    4  C   UNL     1       6.966  25.220  52.140  1.00  0.00     0.726 A 
HETATM    5  N   UNL     1       6.577  25.399  53.438  1.00  0.00    -0.083 N 
HETATM    6  N   UNL     1       7.064  24.424  54.235  1.00  0.00    -0.140 NA
HETATM    7  C   UNL     1       7.844  23.761  53.368  1.00  0.00     0.166 A 
HETATM    8  N   UNL     1       7.792  24.208  52.069  1.00  0.00    -0.046 NA
HETATM    9  C   UNL     1       5.646  26.442  53.884  1.00  0.00     0.202 A 
HETATM   10  C   UNL     1       5.089  27.233  52.707  1.00  0.00     0.062 A 
HETATM   11  H   UNL     1       6.759  25.886  50.224  1.00  0.00     0.184 HD
ENDROOT
BRANCH  10  12
HETATM   12  C   UNL     1       4.130  28.335  52.994  1.00  0.00     0.256 C 
HETATM   13  N   UNL     1       4.739  29.541  53.271  1.00  0.00    -0.323 N 
HETATM   14  H   UNL     1       5.747  29.592  53.233  1.00  0.00     0.169 HD
HETATM   15  O   UNL     1       2.927  28.106  52.964  1.00  0.00    -0.267 OA
BRANCH  13  16
HETATM   16  C   UNL     1       4.101  30.750  53.630  1.00  0.00     0.035 A 
HETATM   17  C   UNL     1       3.821  31.783  52.733  1.00  0.00     0.029 A 
HETATM   18  C   UNL     1       3.164  32.939  53.166  1.00  0.00     0.002 A 
HETATM   19  C   UNL     1       2.790  33.078  54.500  1.00  0.00     0.000 A 
HETATM   20  C   UNL     1       3.067  32.057  55.404  1.00  0.00     0.002 A 
HETATM   21  C   UNL     1       3.714  30.896  54.969  1.00  0.00     0.029 A 
ENDBRANCH  13  16
ENDBRANCH  10  12
BRANCH   9  22
HETATM   22  C   UNL     1       6.312  27.293  54.963  1.00  0.00    -0.028 A 
HETATM   23  C   UNL     1       7.550  27.923  54.753  1.00  0.00     0.011 A 
HETATM   24  C   UNL     1       8.152  28.668  55.771  1.00  0.00     0.019 A 
HETATM   25  C   UNL     1       7.529  28.777  57.011  1.00  0.00     0.011 A 
HETATM   26 BR   UNL     1       8.350  29.774  58.392  1.00  0.00    -0.051 Br
HETATM   27  C   UNL     1       6.309  28.149  57.245  1.00  0.00     0.019 A 
HETATM   28  C   UNL     1       5.704  27.411  56.227  1.00  0.00     0.011 A 
ENDBRANCH   9  22
BRANCH   7  29
HETATM   29  C   UNL     1       8.711  22.631  53.784  1.00  0.00     0.085 C 
BRANCH  29  30
HETATM   30  C   UNL     1       8.095  21.265  53.488  1.00  0.00     0.034 C 
BRANCH  30  31
HETATM   31  C   UNL     1       8.078  20.340  54.701  1.00  0.00     0.164 C 
BRANCH  31  32
HETATM   32  O   UNL     1       9.091  19.349  54.558  1.00  0.00    -0.401 OA
HETATM   33  H   UNL     1       9.947  19.780  54.716  1.00  0.00     0.209 HD
ENDBRANCH  31  32
ENDBRANCH  30  31
ENDBRANCH  29  30
ENDBRANCH   7  29
TORSDOF 7
ENDMDL
MODEL 6
REMARK VINA RESULT:      -8.1      3.429      6.319
REMARK  7 active torsions:
REMARK  status: ('A' for Active; 'I' for Inactive)
REMARK    1  A    between atoms: C_7  and  C_8 
REMARK    2  A    between atoms: C_8  and  C_9 
REMARK    3  A    between atoms: C_9  and  C_10 
REMARK    4  A    between atoms: C_10  and  O_11 
REMARK    5  A    between atoms: C_13  and  C_14 
REMARK    6  A    between atoms: C_21  and  C_22 
REMARK       I    between atoms: C_22  and  N_23 
REMARK    7  A    between atoms: N_23  and  C_24 
ROOT
HETATM    1  C   UNL     1       8.808  26.364  57.016  1.00  0.00     0.070 C 
HETATM    2  C   UNL     1       7.490  26.857  56.470  1.00  0.00     0.037 A 
HETATM    3  N   UNL     1       6.974  27.994  57.081  1.00  0.00    -0.192 N 
HETATM    4  C   UNL     1       5.781  28.531  56.764  1.00  0.00     0.726 A 
HETATM    5  N   UNL     1       5.047  27.974  55.755  1.00  0.00    -0.083 N 
HETATM    6  N   UNL     1       3.827  28.545  55.663  1.00  0.00    -0.140 NA
HETATM    7  C   UNL     1       3.944  29.526  56.571  1.00  0.00     0.166 A 
HETATM    8  N   UNL     1       5.121  29.534  57.281  1.00  0.00    -0.046 NA
HETATM    9  C   UNL     1       5.480  26.820  54.958  1.00  0.00     0.202 A 
HETATM   10  C   UNL     1       6.803  26.258  55.465  1.00  0.00     0.062 A 
HETATM   11  H   UNL     1       7.514  28.415  57.833  1.00  0.00     0.184 HD
ENDROOT
BRANCH  10  12
HETATM   12  C   UNL     1       7.382  25.082  54.757  1.00  0.00     0.256 C 
HETATM   13  N   UNL     1       7.078  23.874  55.349  1.00  0.00    -0.323 N 
HETATM   14  H   UNL     1       6.488  23.874  56.168  1.00  0.00     0.169 HD
HETATM   15  O   UNL     1       8.050  25.262  53.746  1.00  0.00    -0.267 OA
BRANCH  13  16
HETATM   16  C   UNL     1       7.523  22.596  54.942  1.00  0.00     0.035 A 
HETATM   17  C   UNL     1       7.867  21.570  55.824  1.00  0.00     0.029 A 
HETATM   18  C   UNL     1       8.276  20.324  55.338  1.00  0.00     0.002 A 
HETATM   19  C   UNL     1       8.354  20.095  53.967  1.00  0.00     0.000 A 
HETATM   20  C   UNL     1       8.018  21.112  53.078  1.00  0.00     0.002 A 
HETATM   21  C   UNL     1       7.598  22.354  53.563  1.00  0.00     0.029 A 
ENDBRANCH  13  16
ENDBRANCH  10  12
BRANCH   9  22
HETATM   22  C   UNL     1       5.474  27.191  53.477  1.00  0.00    -0.028 A 
HETATM   23  C   UNL     1       5.876  28.461  53.028  1.00  0.00     0.011 A 
HETATM   24  C   UNL     1       5.827  28.783  51.669  1.00  0.00     0.019 A 
HETATM   25  C   UNL     1       5.362  27.846  50.750  1.00  0.00     0.011 A 
HETATM   26 BR   UNL     1       5.283  28.287  48.913  1.00  0.00    -0.051 Br
HETATM   27  C   UNL     1       4.946  26.587  51.176  1.00  0.00     0.019 A 
HETATM   28  C   UNL     1       5.001  26.262  52.532  1.00  0.00     0.011 A 
ENDBRANCH   9  22
BRANCH   7  29
HETATM   29  C   UNL     1       2.881  30.539  56.786  1.00  0.00     0.085 C 
BRANCH  29  30
HETATM   30  C   UNL     1       2.772  31.543  55.640  1.00  0.00     0.034 C 
BRANCH  30  31
HETATM   31  C   UNL     1       4.109  32.173  55.265  1.00  0.00     0.164 C 
BRANCH  31  32
HETATM   32  O   UNL     1       4.507  31.711  53.978  1.00  0.00    -0.401 OA
HETATM   33  H   UNL     1       4.678  32.492  53.425  1.00  0.00     0.209 HD
ENDBRANCH  31  32
ENDBRANCH  30  31
ENDBRANCH  29  30
ENDBRANCH   7  29
TORSDOF 7
ENDMDL
MODEL 7
REMARK VINA RESULT:      -7.6      3.768      6.817
REMARK  7 active torsions:
REMARK  status: ('A' for Active; 'I' for Inactive)
REMARK    1  A    between atoms: C_7  and  C_8 
REMARK    2  A    between atoms: C_8  and  C_9 
REMARK    3  A    between atoms: C_9  and  C_10 
REMARK    4  A    between atoms: C_10  and  O_11 
REMARK    5  A    between atoms: C_13  and  C_14 
REMARK    6  A    between atoms: C_21  and  C_22 
REMARK       I    between atoms: C_22  and  N_23 
REMARK    7  A    between atoms: N_23  and  C_24 
ROOT
HETATM    1  C   UNL     1       4.189  25.572  49.361  1.00  0.00     0.070 C 
HETATM    2  C   UNL     1       4.711  26.893  49.870  1.00  0.00     0.037 A 
HETATM    3  N   UNL     1       4.576  27.968  48.999  1.00  0.00    -0.192 N 
HETATM    4  C   UNL     1       5.044  29.202  49.265  1.00  0.00     0.726 A 
HETATM    5  N   UNL     1       5.638  29.444  50.472  1.00  0.00    -0.083 N 
HETATM    6  N   UNL     1       6.170  30.684  50.518  1.00  0.00    -0.140 NA
HETATM    7  C   UNL     1       5.746  31.178  49.344  1.00  0.00     0.166 A 
HETATM    8  N   UNL     1       5.071  30.290  48.541  1.00  0.00    -0.046 NA
HETATM    9  C   UNL     1       5.790  28.441  51.533  1.00  0.00     0.202 A 
HETATM   10  C   UNL     1       5.297  27.072  51.081  1.00  0.00     0.062 A 
HETATM   11  H   UNL     1       4.136  27.797  48.099  1.00  0.00     0.184 HD
ENDROOT
BRANCH  10  12
HETATM   12  C   UNL     1       5.380  25.943  52.049  1.00  0.00     0.256 C 
HETATM   13  N   UNL     1       6.670  25.528  52.307  1.00  0.00    -0.323 N 
HETATM   14  H   UNL     1       7.432  26.017  51.860  1.00  0.00     0.169 HD
HETATM   15  O   UNL     1       4.349  25.488  52.528  1.00  0.00    -0.267 OA
BRANCH  13  16
HETATM   16  C   UNL     1       7.064  24.453  53.135  1.00  0.00     0.035 A 
HETATM   17  C   UNL     1       6.858  24.414  54.516  1.00  0.00     0.029 A 
HETATM   18  C   UNL     1       7.258  23.300  55.261  1.00  0.00     0.002 A 
HETATM   19  C   UNL     1       7.876  22.221  54.636  1.00  0.00     0.000 A 
HETATM   20  C   UNL     1       8.091  22.250  53.261  1.00  0.00     0.002 A 
HETATM   21  C   UNL     1       7.681  23.359  52.514  1.00  0.00     0.029 A 
ENDBRANCH  13  16
ENDBRANCH  10  12
BRANCH   9  22
HETATM   22  C   UNL     1       5.147  28.956  52.818  1.00  0.00    -0.028 A 
HETATM   23  C   UNL     1       3.963  29.714  52.804  1.00  0.00     0.011 A 
HETATM   24  C   UNL     1       3.416  30.201  53.994  1.00  0.00     0.019 A 
HETATM   25  C   UNL     1       4.053  29.948  55.206  1.00  0.00     0.011 A 
HETATM   26 BR   UNL     1       3.319  30.618  56.814  1.00  0.00    -0.051 Br
HETATM   27  C   UNL     1       5.234  29.211  55.240  1.00  0.00     0.019 A 
HETATM   28  C   UNL     1       5.778  28.719  54.053  1.00  0.00     0.011 A 
ENDBRANCH   9  22
BRANCH   7  29
HETATM   29  C   UNL     1       5.979  32.588  48.946  1.00  0.00     0.085 C 
BRANCH  29  30
HETATM   30  C   UNL     1       5.053  33.572  49.658  1.00  0.00     0.034 C 
BRANCH  30  31
HETATM   31  C   UNL     1       5.732  34.313  50.805  1.00  0.00     0.164 C 
BRANCH  31  32
HETATM   32  O   UNL     1       5.806  33.461  51.944  1.00  0.00    -0.401 OA
HETATM   33  H   UNL     1       6.747  33.314  52.139  1.00  0.00     0.209 HD
ENDBRANCH  31  32
ENDBRANCH  30  31
ENDBRANCH  29  30
ENDBRANCH   7  29
TORSDOF 7
ENDMDL
MODEL 8
REMARK VINA RESULT:      -7.6      1.894      2.750
REMARK  7 active torsions:
REMARK  status: ('A' for Active; 'I' for Inactive)
REMARK    1  A    between atoms: C_7  and  C_8 
REMARK    2  A    between atoms: C_8  and  C_9 
REMARK    3  A    between atoms: C_9  and  C_10 
REMARK    4  A    between atoms: C_10  and  O_11 
REMARK    5  A    between atoms: C_13  and  C_14 
REMARK    6  A    between atoms: C_21  and  C_22 
REMARK       I    between atoms: C_22  and  N_23 
REMARK    7  A    between atoms: N_23  and  C_24 
ROOT
HETATM    1  C   UNL     1       3.235  30.667  55.559  1.00  0.00     0.070 C 
HETATM    2  C   UNL     1       4.645  30.224  55.865  1.00  0.00     0.037 A 
HETATM    3  N   UNL     1       5.195  30.733  57.036  1.00  0.00    -0.192 N 
HETATM    4  C   UNL     1       6.460  30.493  57.428  1.00  0.00     0.726 A 
HETATM    5  N   UNL     1       7.244  29.664  56.677  1.00  0.00    -0.083 N 
HETATM    6  N   UNL     1       8.515  29.644  57.133  1.00  0.00    -0.140 NA
HETATM    7  C   UNL     1       8.391  30.391  58.241  1.00  0.00     0.166 A 
HETATM    8  N   UNL     1       7.150  30.946  58.442  1.00  0.00    -0.046 NA
HETATM    9  C   UNL     1       6.795  28.984  55.456  1.00  0.00     0.202 A 
HETATM   10  C   UNL     1       5.379  29.399  55.076  1.00  0.00     0.062 A 
HETATM   11  H   UNL     1       4.618  31.352  57.601  1.00  0.00     0.184 HD
ENDROOT
BRANCH  10  12
HETATM   12  C   UNL     1       4.774  28.790  53.858  1.00  0.00     0.256 C 
HETATM   13  N   UNL     1       5.397  29.162  52.685  1.00  0.00    -0.323 N 
HETATM   14  H   UNL     1       6.200  29.771  52.739  1.00  0.00     0.169 HD
HETATM   15  O   UNL     1       3.815  28.038  53.978  1.00  0.00    -0.267 OA
BRANCH  13  16
HETATM   16  C   UNL     1       5.023  28.793  51.374  1.00  0.00     0.035 A 
HETATM   17  C   UNL     1       4.484  29.676  50.436  1.00  0.00     0.029 A 
HETATM   18  C   UNL     1       4.162  29.235  49.149  1.00  0.00     0.002 A 
HETATM   19  C   UNL     1       4.365  27.905  48.790  1.00  0.00     0.000 A 
HETATM   20  C   UNL     1       4.898  27.014  49.718  1.00  0.00     0.002 A 
HETATM   21  C   UNL     1       5.230  27.458  51.001  1.00  0.00     0.029 A 
ENDBRANCH  13  16
ENDBRANCH  10  12
BRANCH   9  22
HETATM   22  C   UNL     1       6.996  27.478  55.608  1.00  0.00    -0.028 A 
HETATM   23  C   UNL     1       6.832  26.827  56.842  1.00  0.00     0.011 A 
HETATM   24  C   UNL     1       7.057  25.452  56.958  1.00  0.00     0.019 A 
HETATM   25  C   UNL     1       7.462  24.720  55.845  1.00  0.00     0.011 A 
HETATM   26 BR   UNL     1       7.779  22.863  56.005  1.00  0.00    -0.051 Br
HETATM   27  C   UNL     1       7.644  25.348  54.616  1.00  0.00     0.019 A 
HETATM   28  C   UNL     1       7.413  26.719  54.498  1.00  0.00     0.011 A 
ENDBRANCH   9  22
BRANCH   7  29
HETATM   29  C   UNL     1       9.514  30.594  59.190  1.00  0.00     0.085 C 
BRANCH  29  30
HETATM   30  C   UNL     1       9.074  30.567  60.652  1.00  0.00     0.034 C 
BRANCH  30  31
HETATM   31  C   UNL     1       9.161  31.930  61.330  1.00  0.00     0.164 C 
BRANCH  31  32
HETATM   32  O   UNL     1       8.210  32.814  60.746  1.00  0.00    -0.401 OA
HETATM   33  H   UNL     1       7.981  32.460  59.870  1.00  0.00     0.209 HD
ENDBRANCH  31  32
ENDBRANCH  30  31
ENDBRANCH  29  30
ENDBRANCH   7  29
TORSDOF 7
ENDMDL
MODEL 9
REMARK VINA RESULT:      -7.5      3.751      7.543
REMARK  7 active torsions:
REMARK  status: ('A' for Active; 'I' for Inactive)
REMARK    1  A    between atoms: C_7  and  C_8 
REMARK    2  A    between atoms: C_8  and  C_9 
REMARK    3  A    between atoms: C_9  and  C_10 
REMARK    4  A    between atoms: C_10  and  O_11 
REMARK    5  A    between atoms: C_13  and  C_14 
REMARK    6  A    between atoms: C_21  and  C_22 
REMARK       I    between atoms: C_22  and  N_23 
REMARK    7  A    between atoms: N_23  and  C_24 
ROOT
HETATM    1  C   UNL     1       4.566  24.133  51.770  1.00  0.00     0.070 C 
HETATM    2  C   UNL     1       5.009  25.570  51.902  1.00  0.00     0.037 A 
HETATM    3  N   UNL     1       4.676  26.401  50.839  1.00  0.00    -0.192 N 
HETATM    4  C   UNL     1       5.048  27.693  50.761  1.00  0.00     0.726 A 
HETATM    5  N   UNL     1       5.744  28.249  51.797  1.00  0.00    -0.083 N 
HETATM    6  N   UNL     1       6.153  29.500  51.498  1.00  0.00    -0.140 NA
HETATM    7  C   UNL     1       5.557  29.677  50.309  1.00  0.00     0.166 A 
HETATM    8  N   UNL     1       4.889  28.582  49.816  1.00  0.00    -0.046 NA
HETATM    9  C   UNL     1       6.108  27.533  53.026  1.00  0.00     0.202 A 
HETATM   10  C   UNL     1       5.705  26.066  52.957  1.00  0.00     0.062 A 
HETATM   11  H   UNL     1       4.159  25.995  50.063  1.00  0.00     0.184 HD
ENDROOT
BRANCH  10  12
HETATM   12  C   UNL     1       6.002  25.201  54.133  1.00  0.00     0.256 C 
HETATM   13  N   UNL     1       7.093  24.376  53.952  1.00  0.00    -0.323 N 
HETATM   14  H   UNL     1       7.604  24.437  53.083  1.00  0.00     0.169 HD
HETATM   15  O   UNL     1       5.295  25.281  55.129  1.00  0.00    -0.267 OA
BRANCH  13  16
HETATM   16  C   UNL     1       7.587  23.414  54.860  1.00  0.00     0.035 A 
HETATM   17  C   UNL     1       7.934  23.693  56.184  1.00  0.00     0.029 A 
HETATM   18  C   UNL     1       8.394  22.675  57.026  1.00  0.00     0.002 A 
HETATM   19  C   UNL     1       8.521  21.373  56.551  1.00  0.00     0.000 A 
HETATM   20  C   UNL     1       8.182  21.083  55.232  1.00  0.00     0.002 A 
HETATM   21  C   UNL     1       7.711  22.098  54.393  1.00  0.00     0.029 A 
ENDBRANCH  13  16
ENDBRANCH  10  12
BRANCH   9  22
HETATM   22  C   UNL     1       5.562  28.286  54.236  1.00  0.00    -0.028 A 
HETATM   23  C   UNL     1       4.192  28.564  54.383  1.00  0.00     0.011 A 
HETATM   24  C   UNL     1       3.725  29.285  55.485  1.00  0.00     0.019 A 
HETATM   25  C   UNL     1       4.624  29.747  56.443  1.00  0.00     0.011 A 
HETATM   26 BR   UNL     1       3.993  30.734  57.927  1.00  0.00    -0.051 Br
HETATM   27  C   UNL     1       5.987  29.496  56.310  1.00  0.00     0.019 A 
HETATM   28  C   UNL     1       6.453  28.770  55.213  1.00  0.00     0.011 A 
ENDBRANCH   9  22
BRANCH   7  29
HETATM   29  C   UNL     1       5.607  30.969  49.581  1.00  0.00     0.085 C 
BRANCH  29  30
HETATM   30  C   UNL     1       4.300  31.304  48.866  1.00  0.00     0.034 C 
BRANCH  30  31
HETATM   31  C   UNL     1       4.400  31.193  47.348  1.00  0.00     0.164 C 
BRANCH  31  32
HETATM   32  O   UNL     1       4.421  29.819  46.973  1.00  0.00    -0.401 OA
HETATM   33  H   UNL     1       4.419  29.292  47.789  1.00  0.00     0.209 HD
ENDBRANCH  31  32
ENDBRANCH  30  31
ENDBRANCH  29  30
ENDBRANCH   7  29
TORSDOF 7
ENDMDL
MODEL 10
REMARK VINA RESULT:      -7.5      7.905     10.952
REMARK  7 active torsions:
REMARK  status: ('A' for Active; 'I' for Inactive)
REMARK    1  A    between atoms: C_7  and  C_8 
REMARK    2  A    between atoms: C_8  and  C_9 
REMARK    3  A    between atoms: C_9  and  C_10 
REMARK    4  A    between atoms: C_10  and  O_11 
REMARK    5  A    between atoms: C_13  and  C_14 
REMARK    6  A    between atoms: C_21  and  C_22 
REMARK       I    between atoms: C_22  and  N_23 
REMARK    7  A    between atoms: N_23  and  C_24 
ROOT
HETATM    1  C   UNL     1       8.088  31.742  60.341  1.00  0.00     0.070 C 
HETATM    2  C   UNL     1       6.933  32.298  61.138  1.00  0.00     0.037 A 
HETATM    3  N   UNL     1       7.194  32.548  62.480  1.00  0.00    -0.192 N 
HETATM    4  C   UNL     1       6.263  32.983  63.349  1.00  0.00     0.726 A 
HETATM    5  N   UNL     1       5.002  33.250  62.895  1.00  0.00    -0.083 N 
HETATM    6  N   UNL     1       4.165  33.540  63.915  1.00  0.00    -0.140 NA
HETATM    7  C   UNL     1       5.025  33.552  64.945  1.00  0.00     0.166 A 
HETATM    8  N   UNL     1       6.316  33.194  64.638  1.00  0.00    -0.046 NA
HETATM    9  C   UNL     1       4.581  33.114  61.496  1.00  0.00     0.202 A 
HETATM   10  C   UNL     1       5.697  32.539  60.632  1.00  0.00     0.062 A 
HETATM   11  H   UNL     1       8.130  32.352  62.826  1.00  0.00     0.184 HD
ENDROOT
BRANCH  10  12
HETATM   12  C   UNL     1       5.428  32.343  59.180  1.00  0.00     0.256 C 
HETATM   13  N   UNL     1       4.780  31.161  58.892  1.00  0.00    -0.323 N 
HETATM   14  H   UNL     1       4.521  30.555  59.656  1.00  0.00     0.169 HD
HETATM   15  O   UNL     1       5.782  33.204  58.384  1.00  0.00    -0.267 OA
BRANCH  13  16
HETATM   16  C   UNL     1       4.437  30.674  57.610  1.00  0.00     0.035 A 
HETATM   17  C   UNL     1       3.563  31.321  56.735  1.00  0.00     0.029 A 
HETATM   18  C   UNL     1       3.294  30.783  55.472  1.00  0.00     0.002 A 
HETATM   19  C   UNL     1       3.890  29.587  55.077  1.00  0.00     0.000 A 
HETATM   20  C   UNL     1       4.759  28.931  55.943  1.00  0.00     0.002 A 
HETATM   21  C   UNL     1       5.036  29.475  57.200  1.00  0.00     0.029 A 
ENDBRANCH  13  16
ENDBRANCH  10  12
BRANCH   9  22
HETATM   22  C   UNL     1       4.015  34.442  61.002  1.00  0.00    -0.028 A 
HETATM   23  C   UNL     1       4.734  35.645  61.116  1.00  0.00     0.011 A 
HETATM   24  C   UNL     1       4.176  36.852  60.685  1.00  0.00     0.019 A 
HETATM   25  C   UNL     1       2.890  36.870  60.151  1.00  0.00     0.011 A 
HETATM   26 BR   UNL     1       2.130  38.505  59.581  1.00  0.00    -0.051 Br
HETATM   27  C   UNL     1       2.155  35.692  60.042  1.00  0.00     0.019 A 
HETATM   28  C   UNL     1       2.715  34.486  60.465  1.00  0.00     0.011 A 
ENDBRANCH   9  22
BRANCH   7  29
HETATM   29  C   UNL     1       4.613  33.936  66.318  1.00  0.00     0.085 C 
BRANCH  29  30
HETATM   30  C   UNL     1       5.779  34.417  67.179  1.00  0.00     0.034 C 
BRANCH  30  31
HETATM   31  C   UNL     1       5.687  33.950  68.628  1.00  0.00     0.164 C 
BRANCH  31  32
HETATM   32  O   UNL     1       5.007  34.933  69.403  1.00  0.00    -0.401 OA
HETATM   33  H   UNL     1       4.412  34.467  70.012  1.00  0.00     0.209 HD
ENDBRANCH  31  32
ENDBRANCH  30  31
ENDBRANCH  29  30
ENDBRANCH   7  29
TORSDOF 7
ENDMDL
