MODEL 1
REMARK VINA RESULT:      -8.8      0.000      0.000
REMARK  5 active torsions:
REMARK  status: ('A' for Active; 'I' for Inactive)
REMARK    1  A    between atoms: C_2  and  C_3 
REMARK    2  A    between atoms: C_3  and  N_4 
REMARK    3  A    between atoms: C_7  and  C_8 
REMARK    4  A    between atoms: C_8  and  O_9 
REMARK    5  A    between atoms: N_13  and  C_15 
ROOT
HETATM    1  N   UNL     1       6.713  25.863  53.191  1.00  0.00    -0.067 N 
HETATM    2  H   UNL     1       6.029  25.580  52.475  1.00  0.00     0.280 HD
HETATM    3  C   UNL     1       6.110  25.425  54.500  1.00  0.00     0.242 C 
HETATM    4  C   UNL     1       6.894  25.991  55.709  1.00  0.00     0.044 C 
HETATM    5  C   UNL     1       7.028  27.565  55.682  1.00  0.00    -0.029 C 
HETATM    6  C   UNL     1       5.677  28.322  55.870  1.00  0.00     0.037 C 
HETATM    7  C   UNL     1       5.266  28.629  57.312  1.00  0.00     0.236 C 
HETATM    8  N   UNL     1       6.370  29.346  58.051  1.00  0.00    -0.067 N 
HETATM    9  H   UNL     1       6.039  29.422  59.024  1.00  0.00     0.280 HD
HETATM   10  C   UNL     1       7.571  28.429  58.121  1.00  0.00     0.236 C 
HETATM   11  C   UNL     1       8.079  28.084  56.721  1.00  0.00     0.037 C 
HETATM   12  C   UNL     1       7.615  27.915  54.266  1.00  0.00     0.037 C 
HETATM   13  C   UNL     1       6.836  27.349  53.081  1.00  0.00     0.236 C 
ENDROOT
BRANCH   4  14
HETATM   14  C   UNL     1       6.307  25.370  56.984  1.00  0.00     0.171 C 
BRANCH  14  15
HETATM   15  O   UNL     1       7.380  24.835  57.740  1.00  0.00    -0.400 OA
HETATM   16  H   UNL     1       8.222  25.215  57.418  1.00  0.00     0.209 HD
ENDBRANCH  14  15
ENDBRANCH   4  14
BRANCH   1  17
HETATM   17  C   UNL     1       7.966  25.100  52.775  1.00  0.00     0.273 C 
BRANCH  17  18
HETATM   18  C   UNL     1       8.078  23.748  53.432  1.00  0.00    -0.033 A 
HETATM   19  C   UNL     1       8.715  23.607  54.676  1.00  0.00     0.010 A 
HETATM   20  C   UNL     1       8.868  22.343  55.252  1.00  0.00     0.024 A 
HETATM   21  C   UNL     1       8.384  21.214  54.595  1.00  0.00     0.034 A 
HETATM   22  C   UNL     1       7.739  21.340  53.368  1.00  0.00     0.024 A 
HETATM   23 CL   UNL     1       8.590  19.661  55.298  1.00  0.00    -0.084 Cl
HETATM   24  C   UNL     1       7.585  22.601  52.787  1.00  0.00     0.010 A 
ENDBRANCH  17  18
ENDBRANCH   1  17
BRANCH   8  25
HETATM   25  C   UNL     1       6.657  30.808  57.608  1.00  0.00     0.192 C 
HETATM   26  C   UNL     1       5.370  31.647  57.553  1.00  0.00     0.059 C 
HETATM   27  C   UNL     1       4.830  31.941  58.944  1.00  0.00     0.169 C 
HETATM   28  O   UNL     1       5.829  32.570  59.733  1.00  0.00    -0.391 OA
HETATM   29  C   UNL     1       7.017  31.810  59.905  1.00  0.00     0.169 C 
HETATM   30  C   UNL     1       7.646  31.506  58.554  1.00  0.00     0.059 C 
ENDBRANCH   8  25
TORSDOF 5
ENDMDL
MODEL 2
REMARK VINA RESULT:      -8.6      1.652      1.987
REMARK  5 active torsions:
REMARK  status: ('A' for Active; 'I' for Inactive)
REMARK    1  A    between atoms: C_2  and  C_3 
REMARK    2  A    between atoms: C_3  and  N_4 
REMARK    3  A    between atoms: C_7  and  C_8 
REMARK    4  A    between atoms: C_8  and  O_9 
REMARK    5  A    between atoms: N_13  and  C_15 
ROOT
HETATM    1  N   UNL     1       6.546  25.366  52.863  1.00  0.00    -0.067 N 
HETATM    2  H   UNL     1       6.070  24.797  52.148  1.00  0.00     0.280 HD
HETATM    3  C   UNL     1       5.768  25.126  54.131  1.00  0.00     0.242 C 
HETATM    4  C   UNL     1       6.197  26.096  55.258  1.00  0.00     0.044 C 
HETATM    5  C   UNL     1       6.089  27.617  54.845  1.00  0.00    -0.029 C 
HETATM    6  C   UNL     1       4.627  28.112  54.617  1.00  0.00     0.037 C 
HETATM    7  C   UNL     1       3.894  28.651  55.848  1.00  0.00     0.236 C 
HETATM    8  N   UNL     1       4.704  29.721  56.538  1.00  0.00    -0.067 N 
HETATM    9  H   UNL     1       4.176  29.949  57.394  1.00  0.00     0.280 HD
HETATM   10  C   UNL     1       5.993  29.102  57.030  1.00  0.00     0.236 C 
HETATM   11  C   UNL     1       6.817  28.556  55.865  1.00  0.00     0.037 C 
HETATM   12  C   UNL     1       6.886  27.745  53.496  1.00  0.00     0.037 C 
HETATM   13  C   UNL     1       6.458  26.782  52.392  1.00  0.00     0.236 C 
ENDROOT
BRANCH   4  14
HETATM   14  C   UNL     1       5.470  25.676  56.543  1.00  0.00     0.171 C 
BRANCH  14  15
HETATM   15  O   UNL     1       6.422  25.077  57.405  1.00  0.00    -0.400 OA
HETATM   16  H   UNL     1       6.015  24.306  57.848  1.00  0.00     0.209 HD
ENDBRANCH  14  15
ENDBRANCH   4  14
BRANCH   1  17
HETATM   17  C   UNL     1       7.959  24.793  52.860  1.00  0.00     0.273 C 
BRANCH  17  18
HETATM   18  C   UNL     1       8.073  23.500  53.626  1.00  0.00    -0.033 A 
HETATM   19  C   UNL     1       8.542  23.492  54.951  1.00  0.00     0.010 A 
HETATM   20  C   UNL     1       8.701  22.284  55.636  1.00  0.00     0.024 A 
HETATM   21  C   UNL     1       8.391  21.081  55.009  1.00  0.00     0.034 A 
HETATM   22  C   UNL     1       7.912  21.074  53.701  1.00  0.00     0.024 A 
HETATM   23 CL   UNL     1       8.605  19.598  55.849  1.00  0.00    -0.084 Cl
HETATM   24  C   UNL     1       7.753  22.278  53.011  1.00  0.00     0.010 A 
ENDBRANCH  17  18
ENDBRANCH   1  17
BRANCH   8  25
HETATM   25  C   UNL     1       4.844  31.072  55.781  1.00  0.00     0.192 C 
HETATM   26  C   UNL     1       3.606  31.371  54.921  1.00  0.00     0.059 C 
HETATM   27  C   UNL     1       2.398  31.724  55.776  1.00  0.00     0.169 C 
HETATM   28  O   UNL     1       2.709  32.809  56.638  1.00  0.00    -0.391 OA
HETATM   29  C   UNL     1       3.789  32.569  57.529  1.00  0.00     0.169 C 
HETATM   30  C   UNL     1       5.054  32.247  56.748  1.00  0.00     0.059 C 
ENDBRANCH   8  25
TORSDOF 5
ENDMDL
MODEL 3
REMARK VINA RESULT:      -8.2      3.549      8.427
REMARK  5 active torsions:
REMARK  status: ('A' for Active; 'I' for Inactive)
REMARK    1  A    between atoms: C_2  and  C_3 
REMARK    2  A    between atoms: C_3  and  N_4 
REMARK    3  A    between atoms: C_7  and  C_8 
REMARK    4  A    between atoms: C_8  and  O_9 
REMARK    5  A    between atoms: N_13  and  C_15 
ROOT
HETATM    1  N   UNL     1       6.156  28.419  57.306  1.00  0.00    -0.067 N 
HETATM    2  H   UNL     1       5.595  28.594  58.152  1.00  0.00     0.280 HD
HETATM    3  C   UNL     1       5.196  27.801  56.324  1.00  0.00     0.242 C 
HETATM    4  C   UNL     1       5.929  27.247  55.078  1.00  0.00     0.044 C 
HETATM    5  C   UNL     1       7.068  26.212  55.435  1.00  0.00    -0.029 C 
HETATM    6  C   UNL     1       6.545  24.875  56.046  1.00  0.00     0.037 C 
HETATM    7  C   UNL     1       6.192  23.767  55.050  1.00  0.00     0.236 C 
HETATM    8  N   UNL     1       7.342  23.494  54.111  1.00  0.00    -0.067 N 
HETATM    9  H   UNL     1       6.978  22.811  53.430  1.00  0.00     0.280 HD
HETATM   10  C   UNL     1       7.604  24.745  53.302  1.00  0.00     0.236 C 
HETATM   11  C   UNL     1       7.995  25.912  54.209  1.00  0.00     0.037 C 
HETATM   12  C   UNL     1       7.977  26.935  56.495  1.00  0.00     0.037 C 
HETATM   13  C   UNL     1       7.245  27.480  57.718  1.00  0.00     0.236 C 
ENDROOT
BRANCH   4  14
HETATM   14  C   UNL     1       4.865  26.784  54.073  1.00  0.00     0.171 C 
BRANCH  14  15
HETATM   15  O   UNL     1       3.849  27.771  54.030  1.00  0.00    -0.400 OA
HETATM   16  H   UNL     1       3.874  28.295  54.855  1.00  0.00     0.209 HD
ENDBRANCH  14  15
ENDBRANCH   4  14
BRANCH   1  17
HETATM   17  C   UNL     1       6.643  29.815  56.934  1.00  0.00     0.273 C 
BRANCH  17  18
HETATM   18  C   UNL     1       7.470  30.459  58.017  1.00  0.00    -0.033 A 
HETATM   19  C   UNL     1       8.865  30.294  58.046  1.00  0.00     0.010 A 
HETATM   20  C   UNL     1       9.620  30.844  59.086  1.00  0.00     0.024 A 
HETATM   21  C   UNL     1       8.991  31.564  60.098  1.00  0.00     0.034 A 
HETATM   22  C   UNL     1       7.611  31.747  60.076  1.00  0.00     0.024 A 
HETATM   23 CL   UNL     1       9.921  32.224  61.383  1.00  0.00    -0.084 Cl
HETATM   24  C   UNL     1       6.852  31.198  59.040  1.00  0.00     0.010 A 
ENDBRANCH  17  18
ENDBRANCH   1  17
BRANCH   8  25
HETATM   25  C   UNL     1       8.593  22.814  54.735  1.00  0.00     0.192 C 
HETATM   26  C   UNL     1       8.209  21.858  55.875  1.00  0.00     0.059 C 
HETATM   27  C   UNL     1       7.516  20.609  55.354  1.00  0.00     0.169 C 
HETATM   28  O   UNL     1       8.333  19.965  54.387  1.00  0.00    -0.391 OA
HETATM   29  C   UNL     1       8.653  20.761  53.255  1.00  0.00     0.169 C 
HETATM   30  C   UNL     1       9.389  22.019  53.688  1.00  0.00     0.059 C 
ENDBRANCH   8  25
TORSDOF 5
ENDMDL
MODEL 4
REMARK VINA RESULT:      -8.1      4.246      5.995
REMARK  5 active torsions:
REMARK  status: ('A' for Active; 'I' for Inactive)
REMARK    1  A    between atoms: C_2  and  C_3 
REMARK    2  A    between atoms: C_3  and  N_4 
REMARK    3  A    between atoms: C_7  and  C_8 
REMARK    4  A    between atoms: C_8  and  O_9 
REMARK    5  A    between atoms: N_13  and  C_15 
ROOT
HETATM    1  N   UNL     1       5.655  25.725  55.132  1.00  0.00    -0.067 N 
HETATM    2  H   UNL     1       5.204  25.128  55.839  1.00  0.00     0.280 HD
HETATM    3  C   UNL     1       5.291  27.134  55.524  1.00  0.00     0.242 C 
HETATM    4  C   UNL     1       5.683  28.152  54.425  1.00  0.00     0.044 C 
HETATM    5  C   UNL     1       5.062  27.814  53.013  1.00  0.00    -0.029 C 
HETATM    6  C   UNL     1       3.508  27.948  52.952  1.00  0.00     0.037 C 
HETATM    7  C   UNL     1       2.961  29.330  52.586  1.00  0.00     0.236 C 
HETATM    8  N   UNL     1       3.577  29.837  51.304  1.00  0.00    -0.067 N 
HETATM    9  H   UNL     1       3.222  30.799  51.196  1.00  0.00     0.280 HD
HETATM   10  C   UNL     1       5.066  29.996  51.521  1.00  0.00     0.236 C 
HETATM   11  C   UNL     1       5.715  28.657  51.866  1.00  0.00     0.037 C 
HETATM   12  C   UNL     1       5.455  26.319  52.726  1.00  0.00     0.037 C 
HETATM   13  C   UNL     1       5.068  25.323  53.816  1.00  0.00     0.236 C 
ENDROOT
BRANCH   4  14
HETATM   14  C   UNL     1       5.421  29.561  54.976  1.00  0.00     0.171 C 
BRANCH  14  15
HETATM   15  O   UNL     1       6.607  30.006  55.612  1.00  0.00    -0.400 OA
HETATM   16  H   UNL     1       6.389  30.736  56.225  1.00  0.00     0.209 HD
ENDBRANCH  14  15
ENDBRANCH   4  14
BRANCH   1  17
HETATM   17  C   UNL     1       7.130  25.376  55.290  1.00  0.00     0.273 C 
BRANCH  17  18
HETATM   18  C   UNL     1       7.480  24.025  54.721  1.00  0.00    -0.033 A 
HETATM   19  C   UNL     1       7.374  22.867  55.510  1.00  0.00     0.010 A 
HETATM   20  C   UNL     1       7.756  21.625  54.996  1.00  0.00     0.024 A 
HETATM   21  C   UNL     1       8.241  21.528  53.695  1.00  0.00     0.034 A 
HETATM   22  C   UNL     1       8.339  22.665  52.896  1.00  0.00     0.024 A 
HETATM   23 CL   UNL     1       8.726  20.002  53.073  1.00  0.00    -0.084 Cl
HETATM   24  C   UNL     1       7.960  23.909  53.406  1.00  0.00     0.010 A 
ENDBRANCH  17  18
ENDBRANCH   1  17
BRANCH   8  25
HETATM   25  C   UNL     1       3.155  29.102  50.001  1.00  0.00     0.192 C 
HETATM   26  C   UNL     1       1.628  29.086  49.829  1.00  0.00     0.059 C 
HETATM   27  C   UNL     1       1.085  30.465  49.488  1.00  0.00     0.169 C 
HETATM   28  O   UNL     1       1.735  30.975  48.333  1.00  0.00    -0.391 OA
HETATM   29  C   UNL     1       3.145  31.105  48.453  1.00  0.00     0.169 C 
HETATM   30  C   UNL     1       3.774  29.754  48.755  1.00  0.00     0.059 C 
ENDBRANCH   8  25
TORSDOF 5
ENDMDL
MODEL 5
REMARK VINA RESULT:      -7.9      5.428      7.512
REMARK  5 active torsions:
REMARK  status: ('A' for Active; 'I' for Inactive)
REMARK    1  A    between atoms: C_2  and  C_3 
REMARK    2  A    between atoms: C_3  and  N_4 
REMARK    3  A    between atoms: C_7  and  C_8 
REMARK    4  A    between atoms: C_8  and  O_9 
REMARK    5  A    between atoms: N_13  and  C_15 
ROOT
HETATM    1  N   UNL     1       5.228  25.977  52.817  1.00  0.00    -0.067 N 
HETATM    2  H   UNL     1       4.777  25.167  53.264  1.00  0.00     0.280 HD
HETATM    3  C   UNL     1       4.380  27.159  53.207  1.00  0.00     0.242 C 
HETATM    4  C   UNL     1       4.775  28.432  52.418  1.00  0.00     0.044 C 
HETATM    5  C   UNL     1       4.726  28.233  50.852  1.00  0.00    -0.029 C 
HETATM    6  C   UNL     1       3.290  28.007  50.283  1.00  0.00     0.037 C 
HETATM    7  C   UNL     1       2.508  29.266  49.899  1.00  0.00     0.236 C 
HETATM    8  N   UNL     1       3.307  30.138  48.962  1.00  0.00    -0.067 N 
HETATM    9  H   UNL     1       2.742  30.992  48.839  1.00  0.00     0.280 HD
HETATM   10  C   UNL     1       4.554  30.599  49.684  1.00  0.00     0.236 C 
HETATM   11  C   UNL     1       5.423  29.409  50.088  1.00  0.00     0.037 C 
HETATM   12  C   UNL     1       5.595  26.955  50.562  1.00  0.00     0.037 C 
HETATM   13  C   UNL     1       5.200  25.707  51.346  1.00  0.00     0.236 C 
ENDROOT
BRANCH   4  14
HETATM   14  C   UNL     1       3.972  29.608  52.991  1.00  0.00     0.171 C 
BRANCH  14  15
HETATM   15  O   UNL     1       4.888  30.512  53.585  1.00  0.00    -0.400 OA
HETATM   16  H   UNL     1       5.800  30.229  53.375  1.00  0.00     0.209 HD
ENDBRANCH  14  15
ENDBRANCH   4  14
BRANCH   1  17
HETATM   17  C   UNL     1       6.625  25.961  53.428  1.00  0.00     0.273 C 
BRANCH  17  18
HETATM   18  C   UNL     1       7.095  24.575  53.788  1.00  0.00    -0.033 A 
HETATM   19  C   UNL     1       7.635  23.725  52.808  1.00  0.00     0.010 A 
HETATM   20  C   UNL     1       8.014  22.420  53.135  1.00  0.00     0.024 A 
HETATM   21  C   UNL     1       7.862  21.957  54.439  1.00  0.00     0.034 A 
HETATM   22  C   UNL     1       7.341  22.792  55.424  1.00  0.00     0.024 A 
HETATM   23 CL   UNL     1       8.313  20.347  54.833  1.00  0.00    -0.084 Cl
HETATM   24  C   UNL     1       6.958  24.096  55.102  1.00  0.00     0.010 A 
ENDBRANCH  17  18
ENDBRANCH   1  17
BRANCH   8  25
HETATM   25  C   UNL     1       3.520  29.587  47.524  1.00  0.00     0.192 C 
HETATM   26  C   UNL     1       2.189  29.189  46.866  1.00  0.00     0.059 C 
HETATM   27  C   UNL     1       1.350  30.408  46.512  1.00  0.00     0.169 C 
HETATM   28  O   UNL     1       2.095  31.292  45.688  1.00  0.00    -0.391 OA
HETATM   29  C   UNL     1       3.298  31.775  46.270  1.00  0.00     0.169 C 
HETATM   30  C   UNL     1       4.217  30.614  46.618  1.00  0.00     0.059 C 
ENDBRANCH   8  25
TORSDOF 5
ENDMDL
MODEL 6
REMARK VINA RESULT:      -7.6      3.685      8.781
REMARK  5 active torsions:
REMARK  status: ('A' for Active; 'I' for Inactive)
REMARK    1  A    between atoms: C_2  and  C_3 
REMARK    2  A    between atoms: C_3  and  N_4 
REMARK    3  A    between atoms: C_7  and  C_8 
REMARK    4  A    between atoms: C_8  and  O_9 
REMARK    5  A    between atoms: N_13  and  C_15 
ROOT
HETATM    1  N   UNL     1       6.743  29.703  58.217  1.00  0.00    -0.067 N 
HETATM    2  H   UNL     1       6.563  29.792  59.228  1.00  0.00     0.280 HD
HETATM    3  C   UNL     1       5.487  29.094  57.651  1.00  0.00     0.242 C 
HETATM    4  C   UNL     1       5.675  28.661  56.176  1.00  0.00     0.044 C 
HETATM    5  C   UNL     1       6.889  27.672  55.968  1.00  0.00    -0.029 C 
HETATM    6  C   UNL     1       6.690  26.272  56.628  1.00  0.00     0.037 C 
HETATM    7  C   UNL     1       5.999  25.210  55.769  1.00  0.00     0.236 C 
HETATM    8  N   UNL     1       6.683  25.062  54.432  1.00  0.00    -0.067 N 
HETATM    9  H   UNL     1       6.096  24.404  53.899  1.00  0.00     0.280 HD
HETATM   10  C   UNL     1       6.566  26.374  53.688  1.00  0.00     0.236 C 
HETATM   11  C   UNL     1       7.256  27.502  54.455  1.00  0.00     0.037 C 
HETATM   12  C   UNL     1       8.127  28.377  56.635  1.00  0.00     0.037 C 
HETATM   13  C   UNL     1       7.930  28.803  58.087  1.00  0.00     0.236 C 
ENDROOT
BRANCH   4  14
HETATM   14  C   UNL     1       4.311  28.203  55.643  1.00  0.00     0.171 C 
BRANCH  14  15
HETATM   15  O   UNL     1       3.307  28.818  56.431  1.00  0.00    -0.400 OA
HETATM   16  H   UNL     1       2.779  29.419  55.868  1.00  0.00     0.209 HD
ENDBRANCH  14  15
ENDBRANCH   4  14
BRANCH   1  17
HETATM   17  C   UNL     1       7.003  31.145  57.795  1.00  0.00     0.273 C 
BRANCH  17  18
HETATM   18  C   UNL     1       5.895  32.085  58.195  1.00  0.00    -0.033 A 
HETATM   19  C   UNL     1       5.630  32.343  59.550  1.00  0.00     0.010 A 
HETATM   20  C   UNL     1       4.564  33.169  59.916  1.00  0.00     0.024 A 
HETATM   21  C   UNL     1       3.761  33.746  58.936  1.00  0.00     0.034 A 
HETATM   22  C   UNL     1       4.020  33.511  57.588  1.00  0.00     0.024 A 
HETATM   23 CL   UNL     1       2.441  34.747  59.391  1.00  0.00    -0.084 Cl
HETATM   24  C   UNL     1       5.083  32.684  57.217  1.00  0.00     0.010 A 
ENDBRANCH  17  18
ENDBRANCH   1  17
BRANCH   8  25
HETATM   25  C   UNL     1       8.097  24.416  54.451  1.00  0.00     0.192 C 
HETATM   26  C   UNL     1       8.260  23.444  55.630  1.00  0.00     0.059 C 
HETATM   27  C   UNL     1       7.442  22.177  55.432  1.00  0.00     0.169 C 
HETATM   28  O   UNL     1       7.784  21.562  54.198  1.00  0.00    -0.391 OA
HETATM   29  C   UNL     1       7.571  22.373  53.051  1.00  0.00     0.169 C 
HETATM   30  C   UNL     1       8.390  23.650  53.152  1.00  0.00     0.059 C 
ENDBRANCH   8  25
TORSDOF 5
ENDMDL
MODEL 7
REMARK VINA RESULT:      -7.6      2.279      3.510
REMARK  5 active torsions:
REMARK  status: ('A' for Active; 'I' for Inactive)
REMARK    1  A    between atoms: C_2  and  C_3 
REMARK    2  A    between atoms: C_3  and  N_4 
REMARK    3  A    between atoms: C_7  and  C_8 
REMARK    4  A    between atoms: C_8  and  O_9 
REMARK    5  A    between atoms: N_13  and  C_15 
ROOT
HETATM    1  N   UNL     1       6.503  27.051  54.638  1.00  0.00    -0.067 N 
HETATM    2  H   UNL     1       7.425  26.846  54.226  1.00  0.00     0.280 HD
HETATM    3  C   UNL     1       6.036  28.302  53.941  1.00  0.00     0.242 C 
HETATM    4  C   UNL     1       4.773  28.894  54.613  1.00  0.00     0.044 C 
HETATM    5  C   UNL     1       4.965  29.181  56.154  1.00  0.00    -0.029 C 
HETATM    6  C   UNL     1       5.985  30.320  56.468  1.00  0.00     0.037 C 
HETATM    7  C   UNL     1       5.418  31.741  56.526  1.00  0.00     0.236 C 
HETATM    8  N   UNL     1       4.244  31.819  57.472  1.00  0.00    -0.067 N 
HETATM    9  H   UNL     1       3.880  32.778  57.371  1.00  0.00     0.280 HD
HETATM   10  C   UNL     1       3.143  30.928  56.942  1.00  0.00     0.236 C 
HETATM   11  C   UNL     1       3.604  29.472  56.872  1.00  0.00     0.037 C 
HETATM   12  C   UNL     1       5.498  27.836  56.771  1.00  0.00     0.037 C 
HETATM   13  C   UNL     1       6.741  27.260  56.100  1.00  0.00     0.236 C 
ENDROOT
BRANCH   4  14
HETATM   14  C   UNL     1       4.283  30.063  53.748  1.00  0.00     0.171 C 
BRANCH  14  15
HETATM   15  O   UNL     1       5.044  30.067  52.552  1.00  0.00    -0.400 OA
HETATM   16  H   UNL     1       5.995  30.040  52.775  1.00  0.00     0.209 HD
ENDBRANCH  14  15
ENDBRANCH   4  14
BRANCH   1  17
HETATM   17  C   UNL     1       5.703  25.796  54.309  1.00  0.00     0.273 C 
BRANCH  17  18
HETATM   18  C   UNL     1       6.568  24.576  54.127  1.00  0.00    -0.033 A 
HETATM   19  C   UNL     1       7.087  24.248  52.863  1.00  0.00     0.010 A 
HETATM   20  C   UNL     1       7.840  23.083  52.689  1.00  0.00     0.024 A 
HETATM   21  C   UNL     1       8.082  22.242  53.772  1.00  0.00     0.034 A 
HETATM   22  C   UNL     1       7.586  22.561  55.033  1.00  0.00     0.024 A 
HETATM   23 CL   UNL     1       8.993  20.803  53.550  1.00  0.00    -0.084 Cl
HETATM   24  C   UNL     1       6.831  23.723  55.212  1.00  0.00     0.010 A 
ENDBRANCH  17  18
ENDBRANCH   1  17
BRANCH   8  25
HETATM   25  C   UNL     1       4.570  31.670  58.985  1.00  0.00     0.192 C 
HETATM   26  C   UNL     1       5.604  32.709  59.447  1.00  0.00     0.059 C 
HETATM   27  C   UNL     1       5.014  34.111  59.487  1.00  0.00     0.169 C 
HETATM   28  O   UNL     1       3.853  34.130  60.305  1.00  0.00    -0.391 OA
HETATM   29  C   UNL     1       2.814  33.258  59.883  1.00  0.00     0.169 C 
HETATM   30  C   UNL     1       3.313  31.821  59.855  1.00  0.00     0.059 C 
ENDBRANCH   8  25
TORSDOF 5
ENDMDL
MODEL 8
REMARK VINA RESULT:      -7.6      4.591      5.878
REMARK  5 active torsions:
REMARK  status: ('A' for Active; 'I' for Inactive)
REMARK    1  A    between atoms: C_2  and  C_3 
REMARK    2  A    between atoms: C_3  and  N_4 
REMARK    3  A    between atoms: C_7  and  C_8 
REMARK    4  A    between atoms: C_8  and  O_9 
REMARK    5  A    between atoms: N_13  and  C_15 
ROOT
HETATM    1  N   UNL     1       6.535  25.919  52.573  1.00  0.00    -0.067 N 
HETATM    2  H   UNL     1       7.506  25.585  52.498  1.00  0.00     0.280 HD
HETATM    3  C   UNL     1       6.094  26.155  51.153  1.00  0.00     0.242 C 
HETATM    4  C   UNL     1       4.734  26.894  51.091  1.00  0.00     0.044 C 
HETATM    5  C   UNL     1       4.732  28.259  51.885  1.00  0.00    -0.029 C 
HETATM    6  C   UNL     1       5.654  29.357  51.268  1.00  0.00     0.037 C 
HETATM    7  C   UNL     1       5.018  30.258  50.206  1.00  0.00     0.236 C 
HETATM    8  N   UNL     1       3.740  30.879  50.716  1.00  0.00    -0.067 N 
HETATM    9  H   UNL     1       3.345  31.384  49.908  1.00  0.00     0.280 HD
HETATM   10  C   UNL     1       2.751  29.771  51.001  1.00  0.00     0.236 C 
HETATM   11  C   UNL     1       3.284  28.825  52.077  1.00  0.00     0.037 C 
HETATM   12  C   UNL     1       5.252  27.909  53.327  1.00  0.00     0.037 C 
HETATM   13  C   UNL     1       6.591  27.178  53.377  1.00  0.00     0.236 C 
ENDROOT
BRANCH   4  14
HETATM   14  C   UNL     1       4.295  26.949  49.621  1.00  0.00     0.171 C 
BRANCH  14  15
HETATM   15  O   UNL     1       5.449  26.780  48.816  1.00  0.00    -0.400 OA
HETATM   16  H   UNL     1       5.176  26.609  47.893  1.00  0.00     0.209 HD
ENDBRANCH  14  15
ENDBRANCH   4  14
BRANCH   1  17
HETATM   17  C   UNL     1       5.837  24.760  53.277  1.00  0.00     0.273 C 
BRANCH  17  18
HETATM   18  C   UNL     1       6.801  23.773  53.884  1.00  0.00    -0.033 A 
HETATM   19  C   UNL     1       7.524  22.884  53.069  1.00  0.00     0.010 A 
HETATM   20  C   UNL     1       8.372  21.932  53.642  1.00  0.00     0.024 A 
HETATM   21  C   UNL     1       8.508  21.862  55.026  1.00  0.00     0.034 A 
HETATM   22  C   UNL     1       7.809  22.745  55.845  1.00  0.00     0.024 A 
HETATM   23 CL   UNL     1       9.538  20.679  55.726  1.00  0.00    -0.084 Cl
HETATM   24  C   UNL     1       6.958  23.697  55.278  1.00  0.00     0.010 A 
ENDBRANCH  17  18
ENDBRANCH   1  17
BRANCH   8  25
HETATM   25  C   UNL     1       3.894  31.955  51.827  1.00  0.00     0.192 C 
HETATM   26  C   UNL     1       4.882  33.058  51.416  1.00  0.00     0.059 C 
HETATM   27  C   UNL     1       4.309  33.950  50.326  1.00  0.00     0.169 C 
HETATM   28  O   UNL     1       3.065  34.493  50.742  1.00  0.00    -0.391 OA
HETATM   29  C   UNL     1       2.068  33.529  51.051  1.00  0.00     0.169 C 
HETATM   30  C   UNL     1       2.549  32.616  52.169  1.00  0.00     0.059 C 
ENDBRANCH   8  25
TORSDOF 5
ENDMDL
MODEL 9
REMARK VINA RESULT:      -7.5      6.769      8.802
REMARK  5 active torsions:
REMARK  status: ('A' for Active; 'I' for Inactive)
REMARK    1  A    between atoms: C_2  and  C_3 
REMARK    2  A    between atoms: C_3  and  N_4 
REMARK    3  A    between atoms: C_7  and  C_8 
REMARK    4  A    between atoms: C_8  and  O_9 
REMARK    5  A    between atoms: N_13  and  C_15 
ROOT
HETATM    1  N   UNL     1       5.407  27.138  51.294  1.00  0.00    -0.067 N 
HETATM    2  H   UNL     1       6.401  27.194  51.557  1.00  0.00     0.280 HD
HETATM    3  C   UNL     1       5.410  26.748  49.840  1.00  0.00     0.242 C 
HETATM    4  C   UNL     1       3.998  26.858  49.214  1.00  0.00     0.044 C 
HETATM    5  C   UNL     1       3.353  28.290  49.381  1.00  0.00    -0.029 C 
HETATM    6  C   UNL     1       4.082  29.414  48.581  1.00  0.00     0.037 C 
HETATM    7  C   UNL     1       3.606  29.640  47.143  1.00  0.00     0.236 C 
HETATM    8  N   UNL     1       2.112  29.850  47.092  1.00  0.00    -0.067 N 
HETATM    9  H   UNL     1       1.881  29.897  46.088  1.00  0.00     0.280 HD
HETATM   10  C   UNL     1       1.436  28.591  47.586  1.00  0.00     0.236 C 
HETATM   11  C   UNL     1       1.826  28.292  49.033  1.00  0.00     0.037 C 
HETATM   12  C   UNL     1       3.445  28.618  50.917  1.00  0.00     0.037 C 
HETATM   13  C   UNL     1       4.841  28.503  51.525  1.00  0.00     0.236 C 
ENDROOT
BRANCH   4  14
HETATM   14  C   UNL     1       4.070  26.295  47.788  1.00  0.00     0.171 C 
BRANCH  14  15
HETATM   15  O   UNL     1       5.395  26.474  47.317  1.00  0.00    -0.400 OA
HETATM   16  H   UNL     1       6.024  26.193  48.011  1.00  0.00     0.209 HD
ENDBRANCH  14  15
ENDBRANCH   4  14
BRANCH   1  17
HETATM   17  C   UNL     1       4.869  26.072  52.243  1.00  0.00     0.273 C 
BRANCH  17  18
HETATM   18  C   UNL     1       5.960  25.273  52.910  1.00  0.00    -0.033 A 
HETATM   19  C   UNL     1       7.087  24.855  52.183  1.00  0.00     0.010 A 
HETATM   20  C   UNL     1       8.067  24.065  52.791  1.00  0.00     0.024 A 
HETATM   21  C   UNL     1       7.931  23.691  54.125  1.00  0.00     0.034 A 
HETATM   22  C   UNL     1       6.825  24.109  54.862  1.00  0.00     0.024 A 
HETATM   23 CL   UNL     1       9.128  22.705  54.865  1.00  0.00    -0.084 Cl
HETATM   24  C   UNL     1       5.843  24.897  54.258  1.00  0.00     0.010 A 
ENDBRANCH  17  18
ENDBRANCH   1  17
BRANCH   8  25
HETATM   25  C   UNL     1       1.585  31.184  47.690  1.00  0.00     0.192 C 
HETATM   26  C   UNL     1       2.226  32.403  47.009  1.00  0.00     0.059 C 
HETATM   27  C   UNL     1       1.719  32.585  45.586  1.00  0.00     0.169 C 
HETATM   28  O   UNL     1       0.301  32.670  45.580  1.00  0.00    -0.391 OA
HETATM   29  C   UNL     1      -0.364  31.533  46.112  1.00  0.00     0.169 C 
HETATM   30  C   UNL     1       0.059  31.304  47.555  1.00  0.00     0.059 C 
ENDBRANCH   8  25
TORSDOF 5
ENDMDL
MODEL 10
REMARK VINA RESULT:      -7.1      7.318      9.578
REMARK  5 active torsions:
REMARK  status: ('A' for Active; 'I' for Inactive)
REMARK    1  A    between atoms: C_2  and  C_3 
REMARK    2  A    between atoms: C_3  and  N_4 
REMARK    3  A    between atoms: C_7  and  C_8 
REMARK    4  A    between atoms: C_8  and  O_9 
REMARK    5  A    between atoms: N_13  and  C_15 
ROOT
HETATM    1  N   UNL     1       4.523  28.583  51.749  1.00  0.00    -0.067 N 
HETATM    2  H   UNL     1       5.325  29.047  52.198  1.00  0.00     0.280 HD
HETATM    3  C   UNL     1       5.049  28.093  50.425  1.00  0.00     0.242 C 
HETATM    4  C   UNL     1       3.909  27.584  49.509  1.00  0.00     0.044 C 
HETATM    5  C   UNL     1       2.777  28.659  49.269  1.00  0.00    -0.029 C 
HETATM    6  C   UNL     1       3.241  29.899  48.443  1.00  0.00     0.037 C 
HETATM    7  C   UNL     1       3.114  29.786  46.921  1.00  0.00     0.236 C 
HETATM    8  N   UNL     1       1.713  29.390  46.521  1.00  0.00    -0.067 N 
HETATM    9  H   UNL     1       1.754  29.250  45.500  1.00  0.00     0.280 HD
HETATM   10  C   UNL     1       1.425  28.018  47.089  1.00  0.00     0.236 C 
HETATM   11  C   UNL     1       1.499  28.031  48.615  1.00  0.00     0.037 C 
HETATM   12  C   UNL     1       2.338  29.137  50.701  1.00  0.00     0.037 C 
HETATM   13  C   UNL     1       3.469  29.634  51.597  1.00  0.00     0.236 C 
ENDROOT
BRANCH   4  14
HETATM   14  C   UNL     1       4.550  26.964  48.260  1.00  0.00     0.171 C 
BRANCH  14  15
HETATM   15  O   UNL     1       5.791  27.613  48.042  1.00  0.00    -0.400 OA
HETATM   16  H   UNL     1       6.495  26.940  47.951  1.00  0.00     0.209 HD
ENDBRANCH  14  15
ENDBRANCH   4  14
BRANCH   1  17
HETATM   17  C   UNL     1       4.170  27.485  52.745  1.00  0.00     0.273 C 
BRANCH  17  18
HETATM   18  C   UNL     1       5.266  26.463  52.909  1.00  0.00    -0.033 A 
HETATM   19  C   UNL     1       5.046  25.118  52.569  1.00  0.00     0.010 A 
HETATM   20  C   UNL     1       6.047  24.164  52.778  1.00  0.00     0.024 A 
HETATM   21  C   UNL     1       7.271  24.545  53.321  1.00  0.00     0.034 A 
HETATM   22  C   UNL     1       7.508  25.878  53.650  1.00  0.00     0.024 A 
HETATM   23 CL   UNL     1       8.491  23.367  53.593  1.00  0.00    -0.084 Cl
HETATM   24  C   UNL     1       6.511  26.834  53.445  1.00  0.00     0.010 A 
ENDBRANCH  17  18
ENDBRANCH   1  17
BRANCH   8  25
HETATM   25  C   UNL     1       0.608  30.461  46.737  1.00  0.00     0.192 C 
HETATM   26  C   UNL     1       0.957  31.785  46.039  1.00  0.00     0.059 C 
HETATM   27  C   UNL     1       0.857  31.668  44.526  1.00  0.00     0.169 C 
HETATM   28  O   UNL     1      -0.435  31.209  44.156  1.00  0.00    -0.391 OA
HETATM   29  C   UNL     1      -0.791  29.943  44.692  1.00  0.00     0.169 C 
HETATM   30  C   UNL     1      -0.755  29.986  46.212  1.00  0.00     0.059 C 
ENDBRANCH   8  25
TORSDOF 5
ENDMDL
