MODEL 1
REMARK VINA RESULT:     -11.0      0.000      0.000
REMARK  10 active torsions:
REMARK  status: ('A' for Active; 'I' for Inactive)
REMARK    1  A    between atoms: C_8  and  C_9 
REMARK    2  A    between atoms: N_14  and  C_15 
REMARK    3  A    between atoms: C_15  and  C_16 
REMARK    4  A    between atoms: C_16  and  C_17 
REMARK    5  A    between atoms: C_20  and  O_21 
REMARK    6  A    between atoms: C_27  and  N_28 
REMARK    7  A    between atoms: N_28  and  C_29 
REMARK    8  A    between atoms: C_29  and  C_30 
REMARK    9  A    between atoms: C_30  and  O_31 
REMARK   10  A    between atoms: C_30  and  C_32 
ROOT
HETATM    1  C   UNL     1       7.719  22.857  52.859  1.00  0.00     0.052 C 
HETATM    2  C   UNL     1       7.981  22.940  54.330  1.00  0.00    -0.015 A 
HETATM    3  C   UNL     1       7.808  24.278  54.995  1.00  0.00     0.144 A 
HETATM    4  N   UNL     1       7.558  25.319  54.267  1.00  0.00    -0.217 NA
HETATM    5  N   UNL     1       7.924  24.317  56.375  1.00  0.00    -0.272 N 
HETATM    6  C   UNL     1       7.701  25.509  57.046  1.00  0.00     0.266 C 
HETATM    7  O   UNL     1       7.825  25.651  58.265  1.00  0.00    -0.267 OA
HETATM    8  C   UNL     1       7.288  26.672  56.208  1.00  0.00     0.074 C 
HETATM    9  C   UNL     1       7.324  26.526  54.863  1.00  0.00     0.121 C 
HETATM   10  C   UNL     1       8.290  23.188  57.097  1.00  0.00     0.102 A 
HETATM   11  C   UNL     1       8.504  22.010  56.503  1.00  0.00     0.018 A 
HETATM   12  C   UNL     1       8.320  21.880  55.083  1.00  0.00     0.012 A 
ENDROOT
BRANCH   8  13
HETATM   13  C   UNL     1       6.862  27.887  56.896  1.00  0.00     0.045 C 
HETATM   14  C   UNL     1       7.660  28.913  57.226  1.00  0.00     0.077 A 
HETATM   15  S   UNL     1       9.338  29.087  56.895  1.00  0.00    -0.055 SA
HETATM   16  C   UNL     1       7.176  30.074  58.018  1.00  0.00     0.266 A 
HETATM   17  C   UNL     1       9.490  30.501  57.923  1.00  0.00     0.148 A 
HETATM   18  S   UNL     1      10.967  31.214  58.231  1.00  0.00    -0.052 SA
HETATM   19  N   UNL     1       8.245  30.870  58.394  1.00  0.00    -0.298 N 
HETATM   20  O   UNL     1       6.003  30.251  58.313  1.00  0.00    -0.266 OA
BRANCH  19  21
HETATM   21  C   UNL     1       8.002  32.035  59.246  1.00  0.00     0.138 C 
BRANCH  21  22
HETATM   22  C   UNL     1       8.618  31.862  60.641  1.00  0.00     0.059 C 
BRANCH  22  23
HETATM   23  C   UNL     1       7.628  32.156  61.740  1.00  0.00    -0.057 A 
HETATM   24  C   UNL     1       6.252  32.042  61.504  1.00  0.00     0.010 A 
HETATM   25  C   UNL     1       5.336  32.313  62.521  1.00  0.00     0.037 A 
HETATM   26  C   UNL     1       5.774  32.683  63.793  1.00  0.00     0.068 A 
HETATM   27  C   UNL     1       7.142  32.801  64.033  1.00  0.00     0.037 A 
HETATM   28  C   UNL     1       8.064  32.541  63.012  1.00  0.00     0.010 A 
BRANCH  26  29
HETATM   29  O   UNL     1       4.775  32.907  64.700  1.00  0.00    -0.356 OA
HETATM   30  C   UNL     1       5.070  33.806  65.762  1.00  0.00     0.210 C 
ENDBRANCH  26  29
ENDBRANCH  22  23
ENDBRANCH  21  22
ENDBRANCH  19  21
ENDBRANCH   8  13
BRANCH   9  31
HETATM   31  N   UNL     1       7.057  27.565  53.978  1.00  0.00    -0.274 NA
HETATM   32  H   UNL     1       7.569  28.389  54.305  1.00  0.00     0.129 HD
BRANCH  31  33
HETATM   33  C   UNL     1       5.717  27.902  53.483  1.00  0.00     0.130 C 
BRANCH  33  34
HETATM   34  C   UNL     1       5.187  26.814  52.514  1.00  0.00     0.164 C 
BRANCH  34  35
HETATM   35  O   UNL     1       3.882  26.382  52.930  1.00  0.00    -0.390 OA
HETATM   36  H   UNL     1       3.520  27.059  53.530  1.00  0.00     0.210 HD
ENDBRANCH  34  35
BRANCH  34  37
HETATM   37  C   UNL     1       5.117  27.157  51.037  1.00  0.00    -0.029 A 
HETATM   38  C   UNL     1       4.742  26.243  50.042  1.00  0.00     0.010 A 
HETATM   39  C   UNL     1       4.686  26.626  48.698  1.00  0.00     0.001 A 
HETATM   40  C   UNL     1       5.005  27.930  48.327  1.00  0.00     0.000 A 
HETATM   41  C   UNL     1       5.384  28.852  49.298  1.00  0.00     0.001 A 
HETATM   42  C   UNL     1       5.440  28.468  50.640  1.00  0.00     0.010 A 
ENDBRANCH  34  37
ENDBRANCH  33  34
ENDBRANCH  31  33
ENDBRANCH   9  31
TORSDOF 10
ENDMDL
MODEL 2
REMARK VINA RESULT:     -10.9      1.536      4.758
REMARK  10 active torsions:
REMARK  status: ('A' for Active; 'I' for Inactive)
REMARK    1  A    between atoms: C_8  and  C_9 
REMARK    2  A    between atoms: N_14  and  C_15 
REMARK    3  A    between atoms: C_15  and  C_16 
REMARK    4  A    between atoms: C_16  and  C_17 
REMARK    5  A    between atoms: C_20  and  O_21 
REMARK    6  A    between atoms: C_27  and  N_28 
REMARK    7  A    between atoms: N_28  and  C_29 
REMARK    8  A    between atoms: C_29  and  C_30 
REMARK    9  A    between atoms: C_30  and  O_31 
REMARK   10  A    between atoms: C_30  and  C_32 
ROOT
HETATM    1  C   UNL     1       5.844  24.085  52.346  1.00  0.00     0.052 C 
HETATM    2  C   UNL     1       5.370  25.482  52.093  1.00  0.00    -0.015 A 
HETATM    3  C   UNL     1       5.357  26.435  53.257  1.00  0.00     0.144 A 
HETATM    4  N   UNL     1       5.637  25.992  54.441  1.00  0.00    -0.217 NA
HETATM    5  N   UNL     1       5.044  27.757  52.987  1.00  0.00    -0.272 N 
HETATM    6  C   UNL     1       5.089  28.692  54.008  1.00  0.00     0.266 C 
HETATM    7  O   UNL     1       4.784  29.880  53.873  1.00  0.00    -0.267 OA
HETATM    8  C   UNL     1       5.537  28.195  55.341  1.00  0.00     0.074 C 
HETATM    9  C   UNL     1       5.702  26.860  55.495  1.00  0.00     0.121 C 
HETATM   10  C   UNL     1       4.656  28.158  51.714  1.00  0.00     0.102 A 
HETATM   11  C   UNL     1       4.608  27.301  50.689  1.00  0.00     0.018 A 
HETATM   12  C   UNL     1       5.000  25.930  50.883  1.00  0.00     0.012 A 
ENDROOT
BRANCH   8  13
HETATM   13  C   UNL     1       5.779  29.183  56.388  1.00  0.00     0.045 C 
HETATM   14  C   UNL     1       6.980  29.662  56.743  1.00  0.00     0.077 A 
HETATM   15  S   UNL     1       8.507  29.286  56.047  1.00  0.00    -0.055 SA
HETATM   16  C   UNL     1       7.159  30.590  57.889  1.00  0.00     0.266 A 
HETATM   17  C   UNL     1       9.392  30.117  57.314  1.00  0.00     0.148 A 
HETATM   18  S   UNL     1      11.059  30.075  57.399  1.00  0.00    -0.052 SA
HETATM   19  N   UNL     1       8.507  30.753  58.161  1.00  0.00    -0.298 N 
HETATM   20  O   UNL     1       6.230  31.091  58.507  1.00  0.00    -0.266 OA
BRANCH  19  21
HETATM   21  C   UNL     1       8.910  31.574  59.304  1.00  0.00     0.138 C 
BRANCH  21  22
HETATM   22  C   UNL     1       8.608  30.885  60.641  1.00  0.00     0.059 C 
BRANCH  22  23
HETATM   23  C   UNL     1       7.972  31.824  61.634  1.00  0.00    -0.057 A 
HETATM   24  C   UNL     1       7.036  32.776  61.210  1.00  0.00     0.010 A 
HETATM   25  C   UNL     1       6.447  33.645  62.130  1.00  0.00     0.037 A 
HETATM   26  C   UNL     1       6.764  33.566  63.487  1.00  0.00     0.068 A 
HETATM   27  C   UNL     1       7.696  32.622  63.914  1.00  0.00     0.037 A 
HETATM   28  C   UNL     1       8.298  31.757  62.993  1.00  0.00     0.010 A 
BRANCH  26  29
HETATM   29  O   UNL     1       6.106  34.465  64.281  1.00  0.00    -0.356 OA
HETATM   30  C   UNL     1       6.109  34.200  65.678  1.00  0.00     0.210 C 
ENDBRANCH  26  29
ENDBRANCH  22  23
ENDBRANCH  21  22
ENDBRANCH  19  21
ENDBRANCH   8  13
BRANCH   9  31
HETATM   31  N   UNL     1       6.021  26.269  56.711  1.00  0.00    -0.274 NA
HETATM   32  H   UNL     1       6.758  26.831  57.146  1.00  0.00     0.129 HD
BRANCH  31  33
HETATM   33  C   UNL     1       6.240  24.828  56.896  1.00  0.00     0.130 C 
BRANCH  33  34
HETATM   34  C   UNL     1       7.712  24.442  56.598  1.00  0.00     0.164 C 
BRANCH  34  35
HETATM   35  O   UNL     1       8.420  24.228  57.829  1.00  0.00    -0.390 OA
HETATM   36  H   UNL     1       8.932  23.404  57.740  1.00  0.00     0.210 HD
ENDBRANCH  34  35
BRANCH  34  37
HETATM   37  C   UNL     1       7.959  23.243  55.702  1.00  0.00    -0.029 A 
HETATM   38  C   UNL     1       8.523  23.331  54.421  1.00  0.00     0.010 A 
HETATM   39  C   UNL     1       8.736  22.184  53.649  1.00  0.00     0.001 A 
HETATM   40  C   UNL     1       8.388  20.930  54.145  1.00  0.00     0.000 A 
HETATM   41  C   UNL     1       7.824  20.821  55.412  1.00  0.00     0.001 A 
HETATM   42  C   UNL     1       7.611  21.966  56.182  1.00  0.00     0.010 A 
ENDBRANCH  34  37
ENDBRANCH  33  34
ENDBRANCH  31  33
ENDBRANCH   9  31
TORSDOF 10
ENDMDL
MODEL 3
REMARK VINA RESULT:     -10.5      1.768      5.110
REMARK  10 active torsions:
REMARK  status: ('A' for Active; 'I' for Inactive)
REMARK    1  A    between atoms: C_8  and  C_9 
REMARK    2  A    between atoms: N_14  and  C_15 
REMARK    3  A    between atoms: C_15  and  C_16 
REMARK    4  A    between atoms: C_16  and  C_17 
REMARK    5  A    between atoms: C_20  and  O_21 
REMARK    6  A    between atoms: C_27  and  N_28 
REMARK    7  A    between atoms: N_28  and  C_29 
REMARK    8  A    between atoms: C_29  and  C_30 
REMARK    9  A    between atoms: C_30  and  O_31 
REMARK   10  A    between atoms: C_30  and  C_32 
ROOT
HETATM    1  C   UNL     1       4.959  25.945  50.238  1.00  0.00     0.052 C 
HETATM    2  C   UNL     1       4.586  27.369  50.512  1.00  0.00    -0.015 A 
HETATM    3  C   UNL     1       4.638  27.840  51.940  1.00  0.00     0.144 A 
HETATM    4  N   UNL     1       4.884  26.985  52.881  1.00  0.00    -0.217 NA
HETATM    5  N   UNL     1       4.421  29.189  52.167  1.00  0.00    -0.272 N 
HETATM    6  C   UNL     1       4.529  29.692  53.454  1.00  0.00     0.266 C 
HETATM    7  O   UNL     1       4.310  30.867  53.759  1.00  0.00    -0.267 OA
HETATM    8  C   UNL     1       4.939  28.721  54.510  1.00  0.00     0.074 C 
HETATM    9  C   UNL     1       5.008  27.412  54.173  1.00  0.00     0.121 C 
HETATM   10  C   UNL     1       4.065  30.044  51.131  1.00  0.00     0.102 A 
HETATM   11  C   UNL     1       3.959  29.616  49.869  1.00  0.00     0.018 A 
HETATM   12  C   UNL     1       4.252  28.245  49.551  1.00  0.00     0.012 A 
ENDROOT
BRANCH   8  13
HETATM   13  C   UNL     1       5.247  29.250  55.835  1.00  0.00     0.045 C 
HETATM   14  C   UNL     1       6.478  29.496  56.307  1.00  0.00     0.077 A 
HETATM   15  S   UNL     1       7.975  29.303  55.483  1.00  0.00    -0.055 SA
HETATM   16  C   UNL     1       6.721  29.938  57.705  1.00  0.00     0.266 A 
HETATM   17  C   UNL     1       8.917  29.568  56.940  1.00  0.00     0.148 A 
HETATM   18  S   UNL     1      10.577  29.398  56.961  1.00  0.00    -0.052 SA
HETATM   19  N   UNL     1       8.077  29.909  57.982  1.00  0.00    -0.298 N 
HETATM   20  O   UNL     1       5.829  30.238  58.485  1.00  0.00    -0.266 OA
BRANCH  19  21
HETATM   21  C   UNL     1       8.537  30.240  59.332  1.00  0.00     0.138 C 
BRANCH  21  22
HETATM   22  C   UNL     1       8.599  31.755  59.561  1.00  0.00     0.059 C 
BRANCH  22  23
HETATM   23  C   UNL     1       7.991  32.157  60.881  1.00  0.00    -0.057 A 
HETATM   24  C   UNL     1       6.700  32.701  60.930  1.00  0.00     0.010 A 
HETATM   25  C   UNL     1       6.137  33.071  62.151  1.00  0.00     0.037 A 
HETATM   26  C   UNL     1       6.839  32.890  63.344  1.00  0.00     0.068 A 
HETATM   27  C   UNL     1       8.125  32.352  63.300  1.00  0.00     0.037 A 
HETATM   28  C   UNL     1       8.698  31.989  62.076  1.00  0.00     0.010 A 
BRANCH  26  29
HETATM   29  O   UNL     1       6.168  33.282  64.469  1.00  0.00    -0.356 OA
HETATM   30  C   UNL     1       6.960  33.777  65.541  1.00  0.00     0.210 C 
ENDBRANCH  26  29
ENDBRANCH  22  23
ENDBRANCH  21  22
ENDBRANCH  19  21
ENDBRANCH   8  13
BRANCH   9  31
HETATM   31  N   UNL     1       5.282  26.405  55.090  1.00  0.00    -0.274 NA
HETATM   32  H   UNL     1       4.943  26.717  56.004  1.00  0.00     0.129 HD
BRANCH  31  33
HETATM   33  C   UNL     1       6.568  25.701  55.183  1.00  0.00     0.130 C 
BRANCH  33  34
HETATM   34  C   UNL     1       6.868  24.907  53.887  1.00  0.00     0.164 C 
BRANCH  34  35
HETATM   35  O   UNL     1       7.852  25.602  53.104  1.00  0.00    -0.390 OA
HETATM   36  H   UNL     1       7.976  26.485  53.496  1.00  0.00     0.210 HD
ENDBRANCH  34  35
BRANCH  34  37
HETATM   37  C   UNL     1       7.319  23.465  54.031  1.00  0.00    -0.029 A 
HETATM   38  C   UNL     1       7.707  22.659  52.951  1.00  0.00     0.010 A 
HETATM   39  C   UNL     1       8.123  21.339  53.153  1.00  0.00     0.001 A 
HETATM   40  C   UNL     1       8.160  20.804  54.438  1.00  0.00     0.000 A 
HETATM   41  C   UNL     1       7.776  21.586  55.523  1.00  0.00     0.001 A 
HETATM   42  C   UNL     1       7.359  22.903  55.320  1.00  0.00     0.010 A 
ENDBRANCH  34  37
ENDBRANCH  33  34
ENDBRANCH  31  33
ENDBRANCH   9  31
TORSDOF 10
ENDMDL
MODEL 4
REMARK VINA RESULT:     -10.5      2.514      6.201
REMARK  10 active torsions:
REMARK  status: ('A' for Active; 'I' for Inactive)
REMARK    1  A    between atoms: C_8  and  C_9 
REMARK    2  A    between atoms: N_14  and  C_15 
REMARK    3  A    between atoms: C_15  and  C_16 
REMARK    4  A    between atoms: C_16  and  C_17 
REMARK    5  A    between atoms: C_20  and  O_21 
REMARK    6  A    between atoms: C_27  and  N_28 
REMARK    7  A    between atoms: N_28  and  C_29 
REMARK    8  A    between atoms: C_29  and  C_30 
REMARK    9  A    between atoms: C_30  and  O_31 
REMARK   10  A    between atoms: C_30  and  C_32 
ROOT
HETATM    1  C   UNL     1       3.617  25.597  47.949  1.00  0.00     0.052 C 
HETATM    2  C   UNL     1       3.981  26.999  48.325  1.00  0.00    -0.015 A 
HETATM    3  C   UNL     1       4.559  27.227  49.695  1.00  0.00     0.144 A 
HETATM    4  N   UNL     1       4.611  26.240  50.532  1.00  0.00    -0.217 NA
HETATM    5  N   UNL     1       5.014  28.503  49.984  1.00  0.00    -0.272 N 
HETATM    6  C   UNL     1       5.623  28.751  51.203  1.00  0.00     0.266 C 
HETATM    7  O   UNL     1       6.018  29.862  51.567  1.00  0.00    -0.267 OA
HETATM    8  C   UNL     1       5.793  27.578  52.109  1.00  0.00     0.074 C 
HETATM    9  C   UNL     1       5.202  26.414  51.752  1.00  0.00     0.121 C 
HETATM   10  C   UNL     1       4.844  29.547  49.083  1.00  0.00     0.102 A 
HETATM   11  C   UNL     1       4.277  29.362  47.887  1.00  0.00     0.018 A 
HETATM   12  C   UNL     1       3.857  28.044  47.491  1.00  0.00     0.012 A 
ENDROOT
BRANCH   8  13
HETATM   13  C   UNL     1       6.596  27.761  53.314  1.00  0.00     0.045 C 
HETATM   14  C   UNL     1       6.135  28.199  54.495  1.00  0.00     0.077 A 
HETATM   15  S   UNL     1       4.515  28.605  54.905  1.00  0.00    -0.055 SA
HETATM   16  C   UNL     1       7.031  28.460  55.652  1.00  0.00     0.266 A 
HETATM   17  C   UNL     1       4.981  29.300  56.447  1.00  0.00     0.148 A 
HETATM   18  S   UNL     1       3.881  30.075  57.434  1.00  0.00    -0.052 SA
HETATM   19  N   UNL     1       6.331  29.100  56.659  1.00  0.00    -0.298 N 
HETATM   20  O   UNL     1       8.220  28.173  55.665  1.00  0.00    -0.266 OA
BRANCH  19  21
HETATM   21  C   UNL     1       7.042  29.518  57.869  1.00  0.00     0.138 C 
BRANCH  21  22
HETATM   22  C   UNL     1       7.040  31.043  58.037  1.00  0.00     0.059 C 
BRANCH  22  23
HETATM   23  C   UNL     1       7.353  31.459  59.452  1.00  0.00    -0.057 A 
HETATM   24  C   UNL     1       8.532  31.028  60.073  1.00  0.00     0.010 A 
HETATM   25  C   UNL     1       8.822  31.415  61.382  1.00  0.00     0.037 A 
HETATM   26  C   UNL     1       7.954  32.251  62.087  1.00  0.00     0.068 A 
HETATM   27  C   UNL     1       6.778  32.681  61.474  1.00  0.00     0.037 A 
HETATM   28  C   UNL     1       6.478  32.285  60.166  1.00  0.00     0.010 A 
BRANCH  26  29
HETATM   29  O   UNL     1       8.363  32.564  63.354  1.00  0.00    -0.356 OA
HETATM   30  C   UNL     1       7.449  33.305  64.152  1.00  0.00     0.210 C 
ENDBRANCH  26  29
ENDBRANCH  22  23
ENDBRANCH  21  22
ENDBRANCH  19  21
ENDBRANCH   8  13
BRANCH   9  31
HETATM   31  N   UNL     1       5.206  25.281  52.557  1.00  0.00    -0.274 NA
HETATM   32  H   UNL     1       5.041  25.585  53.521  1.00  0.00     0.129 HD
BRANCH  31  33
HETATM   33  C   UNL     1       6.211  24.214  52.475  1.00  0.00     0.130 C 
BRANCH  33  34
HETATM   34  C   UNL     1       6.990  24.073  53.808  1.00  0.00     0.164 C 
BRANCH  34  35
HETATM   35  O   UNL     1       6.181  24.540  54.899  1.00  0.00    -0.390 OA
HETATM   36  H   UNL     1       6.095  25.507  54.815  1.00  0.00     0.210 HD
ENDBRANCH  34  35
BRANCH  34  37
HETATM   37  C   UNL     1       7.518  22.698  54.174  1.00  0.00    -0.029 A 
HETATM   38  C   UNL     1       7.625  22.230  55.492  1.00  0.00     0.010 A 
HETATM   39  C   UNL     1       8.110  20.946  55.762  1.00  0.00     0.001 A 
HETATM   40  C   UNL     1       8.498  20.110  54.718  1.00  0.00     0.000 A 
HETATM   41  C   UNL     1       8.404  20.556  53.403  1.00  0.00     0.001 A 
HETATM   42  C   UNL     1       7.920  21.838  53.135  1.00  0.00     0.010 A 
ENDBRANCH  34  37
ENDBRANCH  33  34
ENDBRANCH  31  33
ENDBRANCH   9  31
TORSDOF 10
ENDMDL
MODEL 5
REMARK VINA RESULT:     -10.0      1.412      1.700
REMARK  10 active torsions:
REMARK  status: ('A' for Active; 'I' for Inactive)
REMARK    1  A    between atoms: C_8  and  C_9 
REMARK    2  A    between atoms: N_14  and  C_15 
REMARK    3  A    between atoms: C_15  and  C_16 
REMARK    4  A    between atoms: C_16  and  C_17 
REMARK    5  A    between atoms: C_20  and  O_21 
REMARK    6  A    between atoms: C_27  and  N_28 
REMARK    7  A    between atoms: N_28  and  C_29 
REMARK    8  A    between atoms: C_29  and  C_30 
REMARK    9  A    between atoms: C_30  and  O_31 
REMARK   10  A    between atoms: C_30  and  C_32 
ROOT
HETATM    1  C   UNL     1       7.387  24.079  51.936  1.00  0.00     0.052 C 
HETATM    2  C   UNL     1       7.806  24.038  53.372  1.00  0.00    -0.015 A 
HETATM    3  C   UNL     1       7.556  25.264  54.207  1.00  0.00     0.144 A 
HETATM    4  N   UNL     1       7.105  26.336  53.638  1.00  0.00    -0.217 NA
HETATM    5  N   UNL     1       7.824  25.170  55.563  1.00  0.00    -0.272 N 
HETATM    6  C   UNL     1       7.544  26.245  56.391  1.00  0.00     0.266 C 
HETATM    7  O   UNL     1       7.789  26.271  57.599  1.00  0.00    -0.267 OA
HETATM    8  C   UNL     1       6.905  27.428  55.744  1.00  0.00     0.074 C 
HETATM    9  C   UNL     1       6.803  27.432  54.395  1.00  0.00     0.121 C 
HETATM   10  C   UNL     1       8.400  24.027  56.104  1.00  0.00     0.102 A 
HETATM   11  C   UNL     1       8.679  22.955  55.354  1.00  0.00     0.018 A 
HETATM   12  C   UNL     1       8.348  22.956  53.954  1.00  0.00     0.012 A 
ENDROOT
BRANCH   8  13
HETATM   13  C   UNL     1       6.423  28.498  56.613  1.00  0.00     0.045 C 
HETATM   14  C   UNL     1       7.184  29.456  57.161  1.00  0.00     0.077 A 
HETATM   15  S   UNL     1       8.874  29.700  56.956  1.00  0.00    -0.055 SA
HETATM   16  C   UNL     1       6.641  30.454  58.119  1.00  0.00     0.266 A 
HETATM   17  C   UNL     1       8.948  30.910  58.224  1.00  0.00     0.148 A 
HETATM   18  S   UNL     1      10.395  31.570  58.731  1.00  0.00    -0.052 SA
HETATM   19  N   UNL     1       7.675  31.179  58.686  1.00  0.00    -0.298 N 
HETATM   20  O   UNL     1       5.451  30.566  58.378  1.00  0.00    -0.266 OA
BRANCH  19  21
HETATM   21  C   UNL     1       7.369  32.172  59.717  1.00  0.00     0.138 C 
BRANCH  21  22
HETATM   22  C   UNL     1       8.045  31.838  61.053  1.00  0.00     0.059 C 
BRANCH  22  23
HETATM   23  C   UNL     1       7.216  32.275  62.235  1.00  0.00    -0.057 A 
HETATM   24  C   UNL     1       7.837  32.697  63.418  1.00  0.00     0.010 A 
HETATM   25  C   UNL     1       7.071  33.103  64.511  1.00  0.00     0.037 A 
HETATM   26  C   UNL     1       5.677  33.114  64.438  1.00  0.00     0.068 A 
HETATM   27  C   UNL     1       5.054  32.693  63.264  1.00  0.00     0.037 A 
HETATM   28  C   UNL     1       5.819  32.274  62.170  1.00  0.00     0.010 A 
BRANCH  26  29
HETATM   29  O   UNL     1       5.048  33.546  65.573  1.00  0.00    -0.356 OA
HETATM   30  C   UNL     1       5.841  34.275  66.502  1.00  0.00     0.210 C 
ENDBRANCH  26  29
ENDBRANCH  22  23
ENDBRANCH  21  22
ENDBRANCH  19  21
ENDBRANCH   8  13
BRANCH   9  31
HETATM   31  N   UNL     1       6.317  28.517  53.673  1.00  0.00    -0.274 NA
HETATM   32  H   UNL     1       6.680  29.368  54.110  1.00  0.00     0.129 HD
BRANCH  31  33
HETATM   33  C   UNL     1       4.920  28.663  53.245  1.00  0.00     0.130 C 
BRANCH  33  34
HETATM   34  C   UNL     1       4.824  29.420  51.895  1.00  0.00     0.164 C 
BRANCH  34  35
HETATM   35  O   UNL     1       6.141  29.730  51.413  1.00  0.00    -0.390 OA
HETATM   36  H   UNL     1       6.437  28.989  50.853  1.00  0.00     0.210 HD
ENDBRANCH  34  35
BRANCH  34  37
HETATM   37  C   UNL     1       4.059  28.754  50.766  1.00  0.00    -0.029 A 
HETATM   38  C   UNL     1       4.585  27.729  49.967  1.00  0.00     0.010 A 
HETATM   39  C   UNL     1       3.822  27.148  48.948  1.00  0.00     0.001 A 
HETATM   40  C   UNL     1       2.520  27.583  48.713  1.00  0.00     0.000 A 
HETATM   41  C   UNL     1       1.980  28.601  49.493  1.00  0.00     0.001 A 
HETATM   42  C   UNL     1       2.743  29.181  50.508  1.00  0.00     0.010 A 
ENDBRANCH  34  37
ENDBRANCH  33  34
ENDBRANCH  31  33
ENDBRANCH   9  31
TORSDOF 10
ENDMDL
MODEL 6
REMARK VINA RESULT:     -10.0      3.247     10.080
REMARK  10 active torsions:
REMARK  status: ('A' for Active; 'I' for Inactive)
REMARK    1  A    between atoms: C_8  and  C_9 
REMARK    2  A    between atoms: N_14  and  C_15 
REMARK    3  A    between atoms: C_15  and  C_16 
REMARK    4  A    between atoms: C_16  and  C_17 
REMARK    5  A    between atoms: C_20  and  O_21 
REMARK    6  A    between atoms: C_27  and  N_28 
REMARK    7  A    between atoms: N_28  and  C_29 
REMARK    8  A    between atoms: C_29  and  C_30 
REMARK    9  A    between atoms: C_30  and  O_31 
REMARK   10  A    between atoms: C_30  and  C_32 
ROOT
HETATM    1  C   UNL     1       7.959  30.412  60.819  1.00  0.00     0.052 C 
HETATM    2  C   UNL     1       8.870  30.688  59.664  1.00  0.00    -0.015 A 
HETATM    3  C   UNL     1       8.752  29.801  58.456  1.00  0.00     0.144 A 
HETATM    4  N   UNL     1       7.965  28.773  58.498  1.00  0.00    -0.217 NA
HETATM    5  N   UNL     1       9.504  30.145  57.344  1.00  0.00    -0.272 N 
HETATM    6  C   UNL     1       9.378  29.406  56.178  1.00  0.00     0.266 C 
HETATM    7  O   UNL     1      10.037  29.609  55.156  1.00  0.00    -0.267 OA
HETATM    8  C   UNL     1       8.374  28.303  56.200  1.00  0.00     0.074 C 
HETATM    9  C   UNL     1       7.791  28.002  57.384  1.00  0.00     0.121 C 
HETATM   10  C   UNL     1      10.405  31.201  57.386  1.00  0.00     0.102 A 
HETATM   11  C   UNL     1      10.557  31.956  58.478  1.00  0.00     0.018 A 
HETATM   12  C   UNL     1       9.747  31.705  59.640  1.00  0.00     0.012 A 
ENDROOT
BRANCH   8  13
HETATM   13  C   UNL     1       8.079  27.629  54.939  1.00  0.00     0.045 C 
HETATM   14  C   UNL     1       7.005  27.856  54.169  1.00  0.00     0.077 A 
HETATM   15  S   UNL     1       5.750  29.003  54.430  1.00  0.00    -0.055 SA
HETATM   16  C   UNL     1       6.717  27.058  52.949  1.00  0.00     0.266 A 
HETATM   17  C   UNL     1       4.757  28.348  53.139  1.00  0.00     0.148 A 
HETATM   18  S   UNL     1       3.210  28.902  52.848  1.00  0.00    -0.052 SA
HETATM   19  N   UNL     1       5.453  27.358  52.473  1.00  0.00    -0.298 N 
HETATM   20  O   UNL     1       7.491  26.234  52.481  1.00  0.00    -0.266 OA
BRANCH  19  21
HETATM   21  C   UNL     1       4.935  26.630  51.314  1.00  0.00     0.138 C 
BRANCH  21  22
HETATM   22  C   UNL     1       5.186  27.386  50.003  1.00  0.00     0.059 C 
BRANCH  22  23
HETATM   23  C   UNL     1       4.032  27.256  49.041  1.00  0.00    -0.057 A 
HETATM   24  C   UNL     1       3.937  26.144  48.194  1.00  0.00     0.010 A 
HETATM   25  C   UNL     1       2.869  26.023  47.305  1.00  0.00     0.037 A 
HETATM   26  C   UNL     1       1.869  26.996  47.257  1.00  0.00     0.068 A 
HETATM   27  C   UNL     1       1.960  28.106  48.095  1.00  0.00     0.037 A 
HETATM   28  C   UNL     1       3.036  28.237  48.980  1.00  0.00     0.010 A 
BRANCH  26  29
HETATM   29  O   UNL     1       0.874  26.750  46.351  1.00  0.00    -0.356 OA
HETATM   30  C   UNL     1      -0.051  27.805  46.120  1.00  0.00     0.210 C 
ENDBRANCH  26  29
ENDBRANCH  22  23
ENDBRANCH  21  22
ENDBRANCH  19  21
ENDBRANCH   8  13
BRANCH   9  31
HETATM   31  N   UNL     1       6.915  26.936  57.551  1.00  0.00    -0.274 NA
HETATM   32  H   UNL     1       6.234  27.203  58.266  1.00  0.00     0.129 HD
BRANCH  31  33
HETATM   33  C   UNL     1       7.338  25.535  57.681  1.00  0.00     0.130 C 
BRANCH  33  34
HETATM   34  C   UNL     1       6.538  24.617  56.720  1.00  0.00     0.164 C 
BRANCH  34  35
HETATM   35  O   UNL     1       5.565  25.391  56.001  1.00  0.00    -0.390 OA
HETATM   36  H   UNL     1       4.797  24.818  55.827  1.00  0.00     0.210 HD
ENDBRANCH  34  35
BRANCH  34  37
HETATM   37  C   UNL     1       7.322  23.798  55.713  1.00  0.00    -0.029 A 
HETATM   38  C   UNL     1       8.533  23.153  56.006  1.00  0.00     0.010 A 
HETATM   39  C   UNL     1       9.202  22.402  55.034  1.00  0.00     0.001 A 
HETATM   40  C   UNL     1       8.670  22.283  53.752  1.00  0.00     0.000 A 
HETATM   41  C   UNL     1       7.472  22.917  53.439  1.00  0.00     0.001 A 
HETATM   42  C   UNL     1       6.806  23.667  54.410  1.00  0.00     0.010 A 
ENDBRANCH  34  37
ENDBRANCH  33  34
ENDBRANCH  31  33
ENDBRANCH   9  31
TORSDOF 10
ENDMDL
MODEL 7
REMARK VINA RESULT:     -10.0      3.057     10.412
REMARK  10 active torsions:
REMARK  status: ('A' for Active; 'I' for Inactive)
REMARK    1  A    between atoms: C_8  and  C_9 
REMARK    2  A    between atoms: N_14  and  C_15 
REMARK    3  A    between atoms: C_15  and  C_16 
REMARK    4  A    between atoms: C_16  and  C_17 
REMARK    5  A    between atoms: C_20  and  O_21 
REMARK    6  A    between atoms: C_27  and  N_28 
REMARK    7  A    between atoms: N_28  and  C_29 
REMARK    8  A    between atoms: C_29  and  C_30 
REMARK    9  A    between atoms: C_30  and  O_31 
REMARK   10  A    between atoms: C_30  and  C_32 
ROOT
HETATM    1  C   UNL     1       6.494  33.731  61.638  1.00  0.00     0.052 C 
HETATM    2  C   UNL     1       7.413  32.575  61.399  1.00  0.00    -0.015 A 
HETATM    3  C   UNL     1       7.227  31.787  60.132  1.00  0.00     0.144 A 
HETATM    4  N   UNL     1       6.221  32.055  59.361  1.00  0.00    -0.217 NA
HETATM    5  N   UNL     1       8.163  30.804  59.855  1.00  0.00    -0.272 N 
HETATM    6  C   UNL     1       8.082  30.097  58.666  1.00  0.00     0.266 C 
HETATM    7  O   UNL     1       8.842  29.177  58.355  1.00  0.00    -0.267 OA
HETATM    8  C   UNL     1       6.995  30.503  57.729  1.00  0.00     0.074 C 
HETATM    9  C   UNL     1       6.081  31.399  58.171  1.00  0.00     0.121 C 
HETATM   10  C   UNL     1       9.167  30.493  60.765  1.00  0.00     0.102 A 
HETATM   11  C   UNL     1       9.300  31.151  61.920  1.00  0.00     0.018 A 
HETATM   12  C   UNL     1       8.411  32.238  62.231  1.00  0.00     0.012 A 
ENDROOT
BRANCH   8  13
HETATM   13  C   UNL     1       6.995  29.914  56.393  1.00  0.00     0.045 C 
HETATM   14  C   UNL     1       6.479  28.720  56.070  1.00  0.00     0.077 A 
HETATM   15  S   UNL     1       5.660  27.616  57.105  1.00  0.00    -0.055 SA
HETATM   16  C   UNL     1       6.607  28.139  54.709  1.00  0.00     0.266 A 
HETATM   17  C   UNL     1       5.663  26.341  55.900  1.00  0.00     0.148 A 
HETATM   18  S   UNL     1       5.113  24.802  56.241  1.00  0.00    -0.052 SA
HETATM   19  N   UNL     1       6.178  26.823  54.712  1.00  0.00    -0.298 N 
HETATM   20  O   UNL     1       7.067  28.748  53.753  1.00  0.00    -0.266 OA
BRANCH  19  21
HETATM   21  C   UNL     1       6.285  26.034  53.484  1.00  0.00     0.138 C 
BRANCH  21  22
HETATM   22  C   UNL     1       7.728  25.585  53.216  1.00  0.00     0.059 C 
BRANCH  22  23
HETATM   23  C   UNL     1       7.965  24.155  53.631  1.00  0.00    -0.057 A 
HETATM   24  C   UNL     1       8.368  23.854  54.938  1.00  0.00     0.010 A 
HETATM   25  C   UNL     1       8.587  22.531  55.323  1.00  0.00     0.037 A 
HETATM   26  C   UNL     1       8.391  21.486  54.419  1.00  0.00     0.068 A 
HETATM   27  C   UNL     1       7.993  21.779  53.116  1.00  0.00     0.037 A 
HETATM   28  C   UNL     1       7.783  23.106  52.723  1.00  0.00     0.010 A 
BRANCH  26  29
HETATM   29  O   UNL     1       8.627  20.238  54.927  1.00  0.00    -0.356 OA
HETATM   30  C   UNL     1       8.977  20.167  56.303  1.00  0.00     0.210 C 
ENDBRANCH  26  29
ENDBRANCH  22  23
ENDBRANCH  21  22
ENDBRANCH  19  21
ENDBRANCH   8  13
BRANCH   9  31
HETATM   31  N   UNL     1       4.970  31.780  57.429  1.00  0.00    -0.274 NA
HETATM   32  H   UNL     1       5.280  32.467  56.737  1.00  0.00     0.129 HD
BRANCH  31  33
HETATM   33  C   UNL     1       3.667  32.126  58.012  1.00  0.00     0.130 C 
BRANCH  33  34
HETATM   34  C   UNL     1       3.472  33.662  58.075  1.00  0.00     0.164 C 
BRANCH  34  35
HETATM   35  O   UNL     1       2.305  34.038  57.326  1.00  0.00    -0.390 OA
HETATM   36  H   UNL     1       1.823  33.223  57.096  1.00  0.00     0.210 HD
ENDBRANCH  34  35
BRANCH  34  37
HETATM   37  C   UNL     1       3.374  34.306  59.446  1.00  0.00    -0.029 A 
HETATM   38  C   UNL     1       3.792  35.616  59.723  1.00  0.00     0.010 A 
HETATM   39  C   UNL     1       3.665  36.155  61.007  1.00  0.00     0.001 A 
HETATM   40  C   UNL     1       3.117  35.392  62.036  1.00  0.00     0.000 A 
HETATM   41  C   UNL     1       2.699  34.089  61.783  1.00  0.00     0.001 A 
HETATM   42  C   UNL     1       2.828  33.552  60.501  1.00  0.00     0.010 A 
ENDBRANCH  34  37
ENDBRANCH  33  34
ENDBRANCH  31  33
ENDBRANCH   9  31
TORSDOF 10
ENDMDL
MODEL 8
REMARK VINA RESULT:      -9.9      3.774      9.984
REMARK  10 active torsions:
REMARK  status: ('A' for Active; 'I' for Inactive)
REMARK    1  A    between atoms: C_8  and  C_9 
REMARK    2  A    between atoms: N_14  and  C_15 
REMARK    3  A    between atoms: C_15  and  C_16 
REMARK    4  A    between atoms: C_16  and  C_17 
REMARK    5  A    between atoms: C_20  and  O_21 
REMARK    6  A    between atoms: C_27  and  N_28 
REMARK    7  A    between atoms: N_28  and  C_29 
REMARK    8  A    between atoms: C_29  and  C_30 
REMARK    9  A    between atoms: C_30  and  O_31 
REMARK   10  A    between atoms: C_30  and  C_32 
ROOT
HETATM    1  C   UNL     1       8.406  23.883  57.006  1.00  0.00     0.052 C 
HETATM    2  C   UNL     1       7.966  23.642  55.595  1.00  0.00    -0.015 A 
HETATM    3  C   UNL     1       7.490  24.828  54.802  1.00  0.00     0.144 A 
HETATM    4  N   UNL     1       7.366  25.975  55.390  1.00  0.00    -0.217 NA
HETATM    5  N   UNL     1       7.211  24.620  53.461  1.00  0.00    -0.272 N 
HETATM    6  C   UNL     1       6.840  25.691  52.665  1.00  0.00     0.266 C 
HETATM    7  O   UNL     1       6.530  25.596  51.475  1.00  0.00    -0.267 OA
HETATM    8  C   UNL     1       6.825  27.030  53.325  1.00  0.00     0.074 C 
HETATM    9  C   UNL     1       7.006  27.076  54.665  1.00  0.00     0.121 C 
HETATM   10  C   UNL     1       7.269  23.347  52.905  1.00  0.00     0.102 A 
HETATM   11  C   UNL     1       7.634  22.280  53.622  1.00  0.00     0.018 A 
HETATM   12  C   UNL     1       8.016  22.440  55.000  1.00  0.00     0.012 A 
ENDROOT
BRANCH   8  13
HETATM   13  C   UNL     1       6.624  28.201  52.477  1.00  0.00     0.045 C 
HETATM   14  C   UNL     1       5.437  28.673  52.070  1.00  0.00     0.077 A 
HETATM   15  S   UNL     1       3.876  28.067  52.466  1.00  0.00    -0.055 SA
HETATM   16  C   UNL     1       5.314  29.811  51.123  1.00  0.00     0.266 A 
HETATM   17  C   UNL     1       3.078  29.094  51.288  1.00  0.00     0.148 A 
HETATM   18  S   UNL     1       1.443  28.972  50.975  1.00  0.00    -0.052 SA
HETATM   19  N   UNL     1       3.999  29.947  50.712  1.00  0.00    -0.298 N 
HETATM   20  O   UNL     1       6.263  30.486  50.749  1.00  0.00    -0.266 OA
BRANCH  19  21
HETATM   21  C   UNL     1       3.664  30.967  49.717  1.00  0.00     0.138 C 
BRANCH  21  22
HETATM   22  C   UNL     1       4.224  30.621  48.331  1.00  0.00     0.059 C 
BRANCH  22  23
HETATM   23  C   UNL     1       3.925  29.196  47.936  1.00  0.00    -0.057 A 
HETATM   24  C   UNL     1       4.936  28.227  47.963  1.00  0.00     0.010 A 
HETATM   25  C   UNL     1       4.659  26.909  47.599  1.00  0.00     0.037 A 
HETATM   26  C   UNL     1       3.369  26.530  47.220  1.00  0.00     0.068 A 
HETATM   27  C   UNL     1       2.360  27.492  47.189  1.00  0.00     0.037 A 
HETATM   28  C   UNL     1       2.637  28.818  47.543  1.00  0.00     0.010 A 
BRANCH  26  29
HETATM   29  O   UNL     1       3.231  25.208  46.901  1.00  0.00    -0.356 OA
HETATM   30  C   UNL     1       2.866  24.333  47.960  1.00  0.00     0.210 C 
ENDBRANCH  26  29
ENDBRANCH  22  23
ENDBRANCH  21  22
ENDBRANCH  19  21
ENDBRANCH   8  13
BRANCH   9  31
HETATM   31  N   UNL     1       6.916  28.250  55.404  1.00  0.00    -0.274 NA
HETATM   32  H   UNL     1       7.845  28.680  55.419  1.00  0.00     0.129 HD
BRANCH  31  33
HETATM   33  C   UNL     1       6.233  28.358  56.700  1.00  0.00     0.130 C 
BRANCH  33  34
HETATM   34  C   UNL     1       7.246  28.322  57.873  1.00  0.00     0.164 C 
BRANCH  34  35
HETATM   35  O   UNL     1       7.674  26.971  58.108  1.00  0.00    -0.390 OA
HETATM   36  H   UNL     1       8.449  26.800  57.543  1.00  0.00     0.210 HD
ENDBRANCH  34  35
BRANCH  34  37
HETATM   37  C   UNL     1       8.484  29.192  57.762  1.00  0.00    -0.029 A 
HETATM   38  C   UNL     1       9.574  28.893  56.931  1.00  0.00     0.010 A 
HETATM   39  C   UNL     1      10.683  29.743  56.866  1.00  0.00     0.001 A 
HETATM   40  C   UNL     1      10.719  30.907  57.630  1.00  0.00     0.000 A 
HETATM   41  C   UNL     1       9.650  31.221  58.463  1.00  0.00     0.001 A 
HETATM   42  C   UNL     1       8.544  30.370  58.528  1.00  0.00     0.010 A 
ENDBRANCH  34  37
ENDBRANCH  33  34
ENDBRANCH  31  33
ENDBRANCH   9  31
TORSDOF 10
ENDMDL
MODEL 9
REMARK VINA RESULT:      -9.8      3.273     11.602
REMARK  10 active torsions:
REMARK  status: ('A' for Active; 'I' for Inactive)
REMARK    1  A    between atoms: C_8  and  C_9 
REMARK    2  A    between atoms: N_14  and  C_15 
REMARK    3  A    between atoms: C_15  and  C_16 
REMARK    4  A    between atoms: C_16  and  C_17 
REMARK    5  A    between atoms: C_20  and  O_21 
REMARK    6  A    between atoms: C_27  and  N_28 
REMARK    7  A    between atoms: N_28  and  C_29 
REMARK    8  A    between atoms: C_29  and  C_30 
REMARK    9  A    between atoms: C_30  and  O_31 
REMARK   10  A    between atoms: C_30  and  C_32 
ROOT
HETATM    1  C   UNL     1       2.293  34.192  61.155  1.00  0.00     0.052 C 
HETATM    2  C   UNL     1       2.530  34.441  59.698  1.00  0.00    -0.015 A 
HETATM    3  C   UNL     1       3.665  33.705  59.041  1.00  0.00     0.144 A 
HETATM    4  N   UNL     1       4.459  32.985  59.768  1.00  0.00    -0.217 NA
HETATM    5  N   UNL     1       3.793  33.840  57.668  1.00  0.00    -0.272 N 
HETATM    6  C   UNL     1       4.775  33.126  57.000  1.00  0.00     0.266 C 
HETATM    7  O   UNL     1       4.994  33.216  55.789  1.00  0.00    -0.267 OA
HETATM    8  C   UNL     1       5.601  32.202  57.831  1.00  0.00     0.074 C 
HETATM    9  C   UNL     1       5.447  32.252  59.174  1.00  0.00     0.121 C 
HETATM   10  C   UNL     1       2.973  34.702  56.951  1.00  0.00     0.102 A 
HETATM   11  C   UNL     1       2.000  35.404  57.541  1.00  0.00     0.018 A 
HETATM   12  C   UNL     1       1.760  35.248  58.951  1.00  0.00     0.012 A 
ENDROOT
BRANCH   8  13
HETATM   13  C   UNL     1       6.513  31.298  57.137  1.00  0.00     0.045 C 
HETATM   14  C   UNL     1       6.270  30.008  56.864  1.00  0.00     0.077 A 
HETATM   15  S   UNL     1       4.842  29.113  57.207  1.00  0.00    -0.055 SA
HETATM   16  C   UNL     1       7.288  29.120  56.245  1.00  0.00     0.266 A 
HETATM   17  C   UNL     1       5.585  27.584  56.775  1.00  0.00     0.148 A 
HETATM   18  S   UNL     1       4.796  26.128  56.987  1.00  0.00    -0.052 SA
HETATM   19  N   UNL     1       6.852  27.806  56.273  1.00  0.00    -0.298 N 
HETATM   20  O   UNL     1       8.363  29.517  55.817  1.00  0.00    -0.266 OA
BRANCH  19  21
HETATM   21  C   UNL     1       7.735  26.750  55.777  1.00  0.00     0.138 C 
BRANCH  21  22
HETATM   22  C   UNL     1       7.307  26.248  54.392  1.00  0.00     0.059 C 
BRANCH  22  23
HETATM   23  C   UNL     1       7.521  24.764  54.233  1.00  0.00    -0.057 A 
HETATM   24  C   UNL     1       7.481  23.919  55.349  1.00  0.00     0.010 A 
HETATM   25  C   UNL     1       7.678  22.545  55.202  1.00  0.00     0.037 A 
HETATM   26  C   UNL     1       7.898  21.989  53.941  1.00  0.00     0.068 A 
HETATM   27  C   UNL     1       7.941  22.826  52.827  1.00  0.00     0.037 A 
HETATM   28  C   UNL     1       7.755  24.205  52.972  1.00  0.00     0.010 A 
BRANCH  26  29
HETATM   29  O   UNL     1       8.062  20.631  53.935  1.00  0.00    -0.356 OA
HETATM   30  C   UNL     1       8.415  20.028  55.173  1.00  0.00     0.210 C 
ENDBRANCH  26  29
ENDBRANCH  22  23
ENDBRANCH  21  22
ENDBRANCH  19  21
ENDBRANCH   8  13
BRANCH   9  31
HETATM   31  N   UNL     1       6.227  31.514  60.057  1.00  0.00    -0.274 NA
HETATM   32  H   UNL     1       5.599  30.908  60.593  1.00  0.00     0.129 HD
BRANCH  31  33
HETATM   33  C   UNL     1       7.295  32.083  60.888  1.00  0.00     0.130 C 
BRANCH  33  34
HETATM   34  C   UNL     1       7.248  31.513  62.329  1.00  0.00     0.164 C 
BRANCH  34  35
HETATM   35  O   UNL     1       8.537  30.994  62.692  1.00  0.00    -0.390 OA
HETATM   36  H   UNL     1       8.956  30.643  61.885  1.00  0.00     0.210 HD
ENDBRANCH  34  35
BRANCH  34  37
HETATM   37  C   UNL     1       6.788  32.438  63.439  1.00  0.00    -0.029 A 
HETATM   38  C   UNL     1       7.662  33.116  64.301  1.00  0.00     0.010 A 
HETATM   39  C   UNL     1       7.173  33.966  65.299  1.00  0.00     0.001 A 
HETATM   40  C   UNL     1       5.801  34.152  65.451  1.00  0.00     0.000 A 
HETATM   41  C   UNL     1       4.916  33.487  64.609  1.00  0.00     0.001 A 
HETATM   42  C   UNL     1       5.406  32.638  63.614  1.00  0.00     0.010 A 
ENDBRANCH  34  37
ENDBRANCH  33  34
ENDBRANCH  31  33
ENDBRANCH   9  31
TORSDOF 10
ENDMDL
MODEL 10
REMARK VINA RESULT:      -9.8      3.651     10.974
REMARK  10 active torsions:
REMARK  status: ('A' for Active; 'I' for Inactive)
REMARK    1  A    between atoms: C_8  and  C_9 
REMARK    2  A    between atoms: N_14  and  C_15 
REMARK    3  A    between atoms: C_15  and  C_16 
REMARK    4  A    between atoms: C_16  and  C_17 
REMARK    5  A    between atoms: C_20  and  O_21 
REMARK    6  A    between atoms: C_27  and  N_28 
REMARK    7  A    between atoms: N_28  and  C_29 
REMARK    8  A    between atoms: C_29  and  C_30 
REMARK    9  A    between atoms: C_30  and  O_31 
REMARK   10  A    between atoms: C_30  and  C_32 
ROOT
HETATM    1  C   UNL     1       2.052  35.984  59.644  1.00  0.00     0.052 C 
HETATM    2  C   UNL     1       2.327  35.557  58.236  1.00  0.00    -0.015 A 
HETATM    3  C   UNL     1       2.925  34.193  58.025  1.00  0.00     0.144 A 
HETATM    4  N   UNL     1       3.285  33.493  59.053  1.00  0.00    -0.217 NA
HETATM    5  N   UNL     1       3.052  33.755  56.717  1.00  0.00    -0.272 N 
HETATM    6  C   UNL     1       3.528  32.478  56.467  1.00  0.00     0.266 C 
HETATM    7  O   UNL     1       3.717  32.018  55.338  1.00  0.00    -0.267 OA
HETATM    8  C   UNL     1       3.818  31.635  57.663  1.00  0.00     0.074 C 
HETATM    9  C   UNL     1       3.759  32.223  58.881  1.00  0.00     0.121 C 
HETATM   10  C   UNL     1       2.740  34.586  55.648  1.00  0.00     0.102 A 
HETATM   11  C   UNL     1       2.265  35.822  55.831  1.00  0.00     0.018 A 
HETATM   12  C   UNL     1       2.031  36.309  57.164  1.00  0.00     0.012 A 
ENDROOT
BRANCH   8  13
HETATM   13  C   UNL     1       4.137  30.228  57.441  1.00  0.00     0.045 C 
HETATM   14  C   UNL     1       5.373  29.709  57.391  1.00  0.00     0.077 A 
HETATM   15  S   UNL     1       6.866  30.532  57.615  1.00  0.00    -0.055 SA
HETATM   16  C   UNL     1       5.625  28.283  57.057  1.00  0.00     0.266 A 
HETATM   17  C   UNL     1       7.812  29.153  57.087  1.00  0.00     0.148 A 
HETATM   18  S   UNL     1       9.468  29.238  56.898  1.00  0.00    -0.052 SA
HETATM   19  N   UNL     1       6.980  28.073  56.867  1.00  0.00    -0.298 N 
HETATM   20  O   UNL     1       4.739  27.449  56.936  1.00  0.00    -0.266 OA
BRANCH  19  21
HETATM   21  C   UNL     1       7.446  26.747  56.458  1.00  0.00     0.138 C 
BRANCH  21  22
HETATM   22  C   UNL     1       7.383  26.563  54.936  1.00  0.00     0.059 C 
BRANCH  22  23
HETATM   23  C   UNL     1       7.512  25.115  54.532  1.00  0.00    -0.057 A 
HETATM   24  C   UNL     1       7.355  24.098  55.483  1.00  0.00     0.010 A 
HETATM   25  C   UNL     1       7.473  22.759  55.109  1.00  0.00     0.037 A 
HETATM   26  C   UNL     1       7.730  22.410  53.782  1.00  0.00     0.068 A 
HETATM   27  C   UNL     1       7.890  23.418  52.833  1.00  0.00     0.037 A 
HETATM   28  C   UNL     1       7.784  24.763  53.206  1.00  0.00     0.010 A 
BRANCH  26  29
HETATM   29  O   UNL     1       7.809  21.065  53.549  1.00  0.00    -0.356 OA
HETATM   30  C   UNL     1       8.444  20.282  54.551  1.00  0.00     0.210 C 
ENDBRANCH  26  29
ENDBRANCH  22  23
ENDBRANCH  21  22
ENDBRANCH  19  21
ENDBRANCH   8  13
BRANCH   9  31
HETATM   31  N   UNL     1       4.102  31.570  60.058  1.00  0.00    -0.274 NA
HETATM   32  H   UNL     1       3.408  30.836  60.220  1.00  0.00     0.129 HD
BRANCH  31  33
HETATM   33  C   UNL     1       4.486  32.255  61.299  1.00  0.00     0.130 C 
BRANCH  33  34
HETATM   34  C   UNL     1       5.777  33.092  61.102  1.00  0.00     0.164 C 
BRANCH  34  35
HETATM   35  O   UNL     1       5.771  34.216  61.995  1.00  0.00    -0.390 OA
HETATM   36  H   UNL     1       6.469  34.073  62.660  1.00  0.00     0.210 HD
ENDBRANCH  34  35
BRANCH  34  37
HETATM   37  C   UNL     1       7.108  32.380  61.253  1.00  0.00    -0.029 A 
HETATM   38  C   UNL     1       8.206  32.596  60.407  1.00  0.00     0.010 A 
HETATM   39  C   UNL     1       9.412  31.916  60.607  1.00  0.00     0.001 A 
HETATM   40  C   UNL     1       9.540  31.009  61.657  1.00  0.00     0.000 A 
HETATM   41  C   UNL     1       8.462  30.778  62.505  1.00  0.00     0.001 A 
HETATM   42  C   UNL     1       7.258  31.457  62.304  1.00  0.00     0.010 A 
ENDBRANCH  34  37
ENDBRANCH  33  34
ENDBRANCH  31  33
ENDBRANCH   9  31
TORSDOF 10
ENDMDL
