MODEL 1
REMARK VINA RESULT:     -10.2      0.000      0.000
REMARK  6 active torsions:
REMARK  status: ('A' for Active; 'I' for Inactive)
REMARK    1  A    between atoms: C_2  and  N_3 
REMARK    2  A    between atoms: C_11  and  C_12 
REMARK    3  A    between atoms: C_14  and  C_15 
REMARK    4  A    between atoms: C_15  and  O_16 
REMARK    5  A    between atoms: O_16  and  C_17 
REMARK    6  A    between atoms: C_25  and  O_26 
ROOT
HETATM    1  N   UNL     1       8.529  22.885  54.109  1.00  0.00    -0.067 N 
HETATM    2  H   UNL     1       9.224  23.279  54.757  1.00  0.00     0.280 HD
HETATM    3  C   UNL     1       8.081  24.041  53.214  1.00  0.00     0.281 C 
HETATM    4  C   UNL     1       7.237  25.007  53.971  1.00  0.00     0.018 A 
HETATM    5  C   UNL     1       6.656  24.768  55.203  1.00  0.00    -0.023 A 
HETATM    6  C   UNL     1       5.877  25.890  55.634  1.00  0.00     0.073 A 
HETATM    7  C   UNL     1       5.901  26.910  54.714  1.00  0.00     0.088 A 
HETATM    8  N   UNL     1       5.224  28.066  54.874  1.00  0.00    -0.358 N 
HETATM    9  C   UNL     1       4.781  28.441  56.205  1.00  0.00     0.219 C 
HETATM   10  N   UNL     1       4.440  27.257  56.957  1.00  0.00    -0.332 N 
HETATM   11  C   UNL     1       5.088  26.058  56.841  1.00  0.00     0.256 C 
HETATM   12  O   UNL     1       4.990  25.185  57.696  1.00  0.00    -0.267 OA
HETATM   13  S   UNL     1       6.850  26.545  53.353  1.00  0.00    -0.074 SA
HETATM   14  C   UNL     1       6.867  23.473  55.926  1.00  0.00     0.068 C 
HETATM   15  C   UNL     1       7.370  22.375  54.975  1.00  0.00     0.240 C 
HETATM   16  H   UNL     1       5.430  28.845  54.257  1.00  0.00     0.162 HD
HETATM   17  H   UNL     1       3.928  27.383  57.818  1.00  0.00     0.165 HD
ENDROOT
BRANCH   9  18
HETATM   18  C   UNL     1       5.805  29.342  56.882  1.00  0.00    -0.016 A 
HETATM   19  C   UNL     1       5.358  30.438  57.645  1.00  0.00     0.023 A 
HETATM   20  C   UNL     1       6.255  31.303  58.305  1.00  0.00    -0.000 A 
HETATM   21  C   UNL     1       7.634  31.062  58.206  1.00  0.00     0.076 A 
HETATM   22  C   UNL     1       8.090  29.980  57.450  1.00  0.00     0.038 A 
HETATM   23  C   UNL     1       7.188  29.132  56.797  1.00  0.00     0.014 A 
BRANCH  20  24
HETATM   24  C   UNL     1       5.710  32.483  59.084  1.00  0.00     0.217 C 
BRANCH  24  25
HETATM   25  O   UNL     1       5.250  32.025  60.360  1.00  0.00    -0.347 OA
BRANCH  25  26
HETATM   26  C   UNL     1       5.995  32.384  61.451  1.00  0.00     0.070 A 
HETATM   27  C   UNL     1       5.651  33.619  62.010  1.00  0.00     0.063 A 
HETATM   28  C   UNL     1       6.336  34.101  63.127  1.00  0.00     0.075 A 
HETATM   29 CL   UNL     1       5.894  35.623  63.800  1.00  0.00    -0.081 Cl
HETATM   30  C   UNL     1       7.366  33.350  63.684  1.00  0.00     0.138 A 
HETATM   31  F   UNL     1       8.040  33.792  64.756  1.00  0.00    -0.204 F 
HETATM   32  C   UNL     1       7.720  32.123  63.133  1.00  0.00     0.047 A 
HETATM   33  C   UNL     1       7.036  31.638  62.013  1.00  0.00     0.040 A 
ENDBRANCH  25  26
ENDBRANCH  24  25
ENDBRANCH  20  24
BRANCH  21  34
HETATM   34  O   UNL     1       8.457  31.948  58.849  1.00  0.00    -0.355 OA
HETATM   35  C   UNL     1       9.842  31.627  58.896  1.00  0.00     0.210 C 
ENDBRANCH  21  34
ENDBRANCH   9  18
BRANCH   1  36
HETATM   36  C   UNL     1       9.182  21.759  53.347  1.00  0.00     0.231 C 
HETATM   37  C   UNL     1       8.176  20.680  52.993  1.00  0.00     0.034 C 
ENDBRANCH   1  36
TORSDOF 6
ENDMDL
MODEL 2
REMARK VINA RESULT:     -10.1      2.974      3.953
REMARK  6 active torsions:
REMARK  status: ('A' for Active; 'I' for Inactive)
REMARK    1  A    between atoms: C_2  and  N_3 
REMARK    2  A    between atoms: C_11  and  C_12 
REMARK    3  A    between atoms: C_14  and  C_15 
REMARK    4  A    between atoms: C_15  and  O_16 
REMARK    5  A    between atoms: O_16  and  C_17 
REMARK    6  A    between atoms: C_25  and  O_26 
ROOT
HETATM    1  N   UNL     1       5.030  27.763  49.454  1.00  0.00    -0.067 N 
HETATM    2  H   UNL     1       6.023  27.985  49.608  1.00  0.00     0.280 HD
HETATM    3  C   UNL     1       4.243  28.667  50.403  1.00  0.00     0.281 C 
HETATM    4  C   UNL     1       4.407  28.230  51.817  1.00  0.00     0.018 A 
HETATM    5  C   UNL     1       4.919  27.011  52.224  1.00  0.00    -0.023 A 
HETATM    6  C   UNL     1       4.905  26.895  53.651  1.00  0.00     0.073 A 
HETATM    7  C   UNL     1       4.382  28.017  54.249  1.00  0.00     0.088 A 
HETATM    8  N   UNL     1       4.237  28.143  55.584  1.00  0.00    -0.358 N 
HETATM    9  C   UNL     1       5.003  27.273  56.459  1.00  0.00     0.219 C 
HETATM   10  N   UNL     1       5.170  25.981  55.838  1.00  0.00    -0.332 N 
HETATM   11  C   UNL     1       5.323  25.788  54.493  1.00  0.00     0.256 C 
HETATM   12  O   UNL     1       5.771  24.742  54.037  1.00  0.00    -0.267 OA
HETATM   13  S   UNL     1       3.923  29.205  53.125  1.00  0.00    -0.074 SA
HETATM   14  C   UNL     1       5.404  26.000  51.232  1.00  0.00     0.068 C 
HETATM   15  C   UNL     1       4.854  26.285  49.824  1.00  0.00     0.240 C 
HETATM   16  H   UNL     1       4.024  29.057  55.971  1.00  0.00     0.162 HD
HETATM   17  H   UNL     1       5.502  25.224  56.418  1.00  0.00     0.165 HD
ENDROOT
BRANCH   9  18
HETATM   18  C   UNL     1       6.305  27.941  56.880  1.00  0.00    -0.016 A 
HETATM   19  C   UNL     1       6.270  29.251  57.395  1.00  0.00     0.023 A 
HETATM   20  C   UNL     1       7.440  29.920  57.812  1.00  0.00    -0.000 A 
HETATM   21  C   UNL     1       8.674  29.259  57.720  1.00  0.00     0.076 A 
HETATM   22  C   UNL     1       8.723  27.960  57.209  1.00  0.00     0.038 A 
HETATM   23  C   UNL     1       7.554  27.310  56.795  1.00  0.00     0.014 A 
BRANCH  20  24
HETATM   24  C   UNL     1       7.338  31.341  58.326  1.00  0.00     0.217 C 
BRANCH  24  25
HETATM   25  O   UNL     1       6.436  31.370  59.438  1.00  0.00    -0.347 OA
BRANCH  25  26
HETATM   26  C   UNL     1       6.957  31.747  60.646  1.00  0.00     0.070 A 
HETATM   27  C   UNL     1       6.015  32.229  61.561  1.00  0.00     0.063 A 
HETATM   28  C   UNL     1       6.417  32.647  62.831  1.00  0.00     0.075 A 
HETATM   29 CL   UNL     1       5.241  33.233  63.942  1.00  0.00    -0.081 Cl
HETATM   30  C   UNL     1       7.762  32.587  63.185  1.00  0.00     0.138 A 
HETATM   31  F   UNL     1       8.173  32.983  64.398  1.00  0.00    -0.204 F 
HETATM   32  C   UNL     1       8.707  32.115  62.281  1.00  0.00     0.047 A 
HETATM   33  C   UNL     1       8.307  31.696  61.008  1.00  0.00     0.040 A 
ENDBRANCH  25  26
ENDBRANCH  24  25
ENDBRANCH  20  24
BRANCH  21  34
HETATM   34  O   UNL     1       9.778  29.965  58.119  1.00  0.00    -0.355 OA
HETATM   35  C   UNL     1      10.879  30.008  57.219  1.00  0.00     0.210 C 
ENDBRANCH  21  34
ENDBRANCH   9  18
BRANCH   1  36
HETATM   36  C   UNL     1       4.715  28.006  48.000  1.00  0.00     0.231 C 
HETATM   37  C   UNL     1       3.318  28.574  47.829  1.00  0.00     0.034 C 
ENDBRANCH   1  36
TORSDOF 6
ENDMDL
MODEL 3
REMARK VINA RESULT:      -9.9      5.296     10.746
REMARK  6 active torsions:
REMARK  status: ('A' for Active; 'I' for Inactive)
REMARK    1  A    between atoms: C_2  and  N_3 
REMARK    2  A    between atoms: C_11  and  C_12 
REMARK    3  A    between atoms: C_14  and  C_15 
REMARK    4  A    between atoms: C_15  and  O_16 
REMARK    5  A    between atoms: O_16  and  C_17 
REMARK    6  A    between atoms: C_25  and  O_26 
ROOT
HETATM    1  N   UNL     1       4.965  32.956  63.516  1.00  0.00    -0.067 N 
HETATM    2  H   UNL     1       4.564  32.009  63.559  1.00  0.00     0.280 HD
HETATM    3  C   UNL     1       4.783  33.428  62.074  1.00  0.00     0.281 C 
HETATM    4  C   UNL     1       5.698  32.698  61.153  1.00  0.00     0.018 A 
HETATM    5  C   UNL     1       6.786  31.939  61.542  1.00  0.00    -0.023 A 
HETATM    6  C   UNL     1       7.477  31.405  60.407  1.00  0.00     0.073 A 
HETATM    7  C   UNL     1       6.888  31.788  59.225  1.00  0.00     0.088 A 
HETATM    8  N   UNL     1       7.366  31.437  58.014  1.00  0.00    -0.358 N 
HETATM    9  C   UNL     1       8.273  30.308  57.917  1.00  0.00     0.219 C 
HETATM   10  N   UNL     1       9.097  30.241  59.100  1.00  0.00    -0.332 N 
HETATM   11  C   UNL     1       8.671  30.581  60.355  1.00  0.00     0.256 C 
HETATM   12  O   UNL     1       9.273  30.222  61.361  1.00  0.00    -0.267 OA
HETATM   13  S   UNL     1       5.518  32.765  59.461  1.00  0.00    -0.074 SA
HETATM   14  C   UNL     1       7.127  31.750  62.988  1.00  0.00     0.068 C 
HETATM   15  C   UNL     1       6.451  32.815  63.868  1.00  0.00     0.240 C 
HETATM   16  H   UNL     1       6.787  31.591  57.194  1.00  0.00     0.162 HD
HETATM   17  H   UNL     1       9.903  29.633  59.074  1.00  0.00     0.165 HD
ENDROOT
BRANCH   9  18
HETATM   18  C   UNL     1       7.510  29.026  57.610  1.00  0.00    -0.016 A 
HETATM   19  C   UNL     1       8.191  27.794  57.655  1.00  0.00     0.023 A 
HETATM   20  C   UNL     1       7.538  26.572  57.391  1.00  0.00    -0.000 A 
HETATM   21  C   UNL     1       6.170  26.580  57.083  1.00  0.00     0.076 A 
HETATM   22  C   UNL     1       5.484  27.796  57.033  1.00  0.00     0.038 A 
HETATM   23  C   UNL     1       6.145  29.002  57.293  1.00  0.00     0.014 A 
BRANCH  20  24
HETATM   24  C   UNL     1       8.336  25.284  57.423  1.00  0.00     0.217 C 
BRANCH  24  25
HETATM   25  O   UNL     1       8.396  24.740  56.100  1.00  0.00    -0.347 OA
BRANCH  25  26
HETATM   26  C   UNL     1       8.404  23.376  55.992  1.00  0.00     0.070 A 
HETATM   27  C   UNL     1       8.385  22.895  54.678  1.00  0.00     0.063 A 
HETATM   28  C   UNL     1       8.390  21.522  54.431  1.00  0.00     0.075 A 
HETATM   29 CL   UNL     1       8.370  20.953  52.807  1.00  0.00    -0.081 Cl
HETATM   30  C   UNL     1       8.411  20.627  55.497  1.00  0.00     0.138 A 
HETATM   31  F   UNL     1       8.416  19.303  55.286  1.00  0.00    -0.204 F 
HETATM   32  C   UNL     1       8.425  21.094  56.807  1.00  0.00     0.047 A 
HETATM   33  C   UNL     1       8.419  22.470  57.058  1.00  0.00     0.040 A 
ENDBRANCH  25  26
ENDBRANCH  24  25
ENDBRANCH  20  24
BRANCH  21  34
HETATM   34  O   UNL     1       5.595  25.366  56.814  1.00  0.00    -0.355 OA
HETATM   35  C   UNL     1       5.191  25.124  55.471  1.00  0.00     0.210 C 
ENDBRANCH  21  34
ENDBRANCH   9  18
BRANCH   1  36
HETATM   36  C   UNL     1       4.243  33.818  64.521  1.00  0.00     0.231 C 
HETATM   37  C   UNL     1       4.986  33.860  65.843  1.00  0.00     0.034 C 
ENDBRANCH   1  36
TORSDOF 6
ENDMDL
MODEL 4
REMARK VINA RESULT:      -9.9      5.113      9.634
REMARK  6 active torsions:
REMARK  status: ('A' for Active; 'I' for Inactive)
REMARK    1  A    between atoms: C_2  and  N_3 
REMARK    2  A    between atoms: C_11  and  C_12 
REMARK    3  A    between atoms: C_14  and  C_15 
REMARK    4  A    between atoms: C_15  and  O_16 
REMARK    5  A    between atoms: O_16  and  C_17 
REMARK    6  A    between atoms: C_25  and  O_26 
ROOT
HETATM    1  N   UNL     1       8.820  31.575  58.998  1.00  0.00    -0.067 N 
HETATM    2  H   UNL     1       8.992  31.917  58.044  1.00  0.00     0.280 HD
HETATM    3  C   UNL     1       8.888  30.050  58.921  1.00  0.00     0.281 C 
HETATM    4  C   UNL     1       7.701  29.497  58.211  1.00  0.00     0.018 A 
HETATM    5  C   UNL     1       6.538  30.192  57.935  1.00  0.00    -0.023 A 
HETATM    6  C   UNL     1       5.581  29.356  57.274  1.00  0.00     0.073 A 
HETATM    7  C   UNL     1       6.058  28.081  57.090  1.00  0.00     0.088 A 
HETATM    8  N   UNL     1       5.336  27.098  56.514  1.00  0.00    -0.358 N 
HETATM    9  C   UNL     1       4.189  27.454  55.699  1.00  0.00     0.219 C 
HETATM   10  N   UNL     1       3.558  28.636  56.235  1.00  0.00    -0.332 N 
HETATM   11  C   UNL     1       4.234  29.667  56.829  1.00  0.00     0.256 C 
HETATM   12  O   UNL     1       3.724  30.771  56.982  1.00  0.00    -0.267 OA
HETATM   13  S   UNL     1       7.637  27.879  57.686  1.00  0.00    -0.074 SA
HETATM   14  C   UNL     1       6.383  31.632  58.313  1.00  0.00     0.068 C 
HETATM   15  C   UNL     1       7.410  32.046  59.380  1.00  0.00     0.240 C 
HETATM   16  H   UNL     1       5.806  26.241  56.239  1.00  0.00     0.162 HD
HETATM   17  H   UNL     1       2.639  28.872  55.890  1.00  0.00     0.165 HD
ENDROOT
BRANCH   9  18
HETATM   18  C   UNL     1       4.580  27.561  54.232  1.00  0.00    -0.016 A 
HETATM   19  C   UNL     1       5.429  26.586  53.674  1.00  0.00     0.023 A 
HETATM   20  C   UNL     1       5.819  26.624  52.319  1.00  0.00    -0.000 A 
HETATM   21  C   UNL     1       5.343  27.658  51.499  1.00  0.00     0.076 A 
HETATM   22  C   UNL     1       4.502  28.633  52.041  1.00  0.00     0.038 A 
HETATM   23  C   UNL     1       4.127  28.585  53.389  1.00  0.00     0.014 A 
BRANCH  20  24
HETATM   24  C   UNL     1       6.761  25.561  51.789  1.00  0.00     0.217 C 
BRANCH  24  25
HETATM   25  O   UNL     1       7.872  25.436  52.684  1.00  0.00    -0.347 OA
BRANCH  25  26
HETATM   26  C   UNL     1       7.870  24.356  53.524  1.00  0.00     0.070 A 
HETATM   27  C   UNL     1       7.882  23.115  52.877  1.00  0.00     0.063 A 
HETATM   28  C   UNL     1       7.881  21.934  53.621  1.00  0.00     0.075 A 
HETATM   29 CL   UNL     1       7.898  20.419  52.804  1.00  0.00    -0.081 Cl
HETATM   30  C   UNL     1       7.866  21.992  55.011  1.00  0.00     0.138 A 
HETATM   31  F   UNL     1       7.864  20.871  55.747  1.00  0.00    -0.204 F 
HETATM   32  C   UNL     1       7.849  23.220  55.664  1.00  0.00     0.047 A 
HETATM   33  C   UNL     1       7.849  24.405  54.921  1.00  0.00     0.040 A 
ENDBRANCH  25  26
ENDBRANCH  24  25
ENDBRANCH  20  24
BRANCH  21  34
HETATM   34  O   UNL     1       5.773  27.655  50.199  1.00  0.00    -0.355 OA
HETATM   35  C   UNL     1       5.266  28.676  49.347  1.00  0.00     0.210 C 
ENDBRANCH  21  34
ENDBRANCH   9  18
BRANCH   1  36
HETATM   36  C   UNL     1       9.863  32.173  59.908  1.00  0.00     0.231 C 
HETATM   37  C   UNL     1       9.520  31.938  61.367  1.00  0.00     0.034 C 
ENDBRANCH   1  36
TORSDOF 6
ENDMDL
MODEL 5
REMARK VINA RESULT:      -9.4      7.797     11.265
REMARK  6 active torsions:
REMARK  status: ('A' for Active; 'I' for Inactive)
REMARK    1  A    between atoms: C_2  and  N_3 
REMARK    2  A    between atoms: C_11  and  C_12 
REMARK    3  A    between atoms: C_14  and  C_15 
REMARK    4  A    between atoms: C_15  and  O_16 
REMARK    5  A    between atoms: O_16  and  C_17 
REMARK    6  A    between atoms: C_25  and  O_26 
ROOT
HETATM    1  N   UNL     1       0.452  31.178  46.340  1.00  0.00    -0.067 N 
HETATM    2  H   UNL     1       0.694  31.664  47.213  1.00  0.00     0.280 HD
HETATM    3  C   UNL     1       0.009  29.772  46.746  1.00  0.00     0.281 C 
HETATM    4  C   UNL     1       1.168  28.957  47.203  1.00  0.00     0.018 A 
HETATM    5  C   UNL     1       2.499  29.275  47.000  1.00  0.00    -0.023 A 
HETATM    6  C   UNL     1       3.359  28.260  47.531  1.00  0.00     0.073 A 
HETATM    7  C   UNL     1       2.645  27.232  48.098  1.00  0.00     0.088 A 
HETATM    8  N   UNL     1       3.225  26.143  48.645  1.00  0.00    -0.358 N 
HETATM    9  C   UNL     1       4.625  26.209  49.023  1.00  0.00     0.219 C 
HETATM   10  N   UNL     1       5.340  27.061  48.103  1.00  0.00    -0.332 N 
HETATM   11  C   UNL     1       4.808  28.177  47.517  1.00  0.00     0.256 C 
HETATM   12  O   UNL     1       5.516  29.037  47.005  1.00  0.00    -0.267 OA
HETATM   13  S   UNL     1       0.965  27.474  48.012  1.00  0.00    -0.074 SA
HETATM   14  C   UNL     1       2.901  30.538  46.305  1.00  0.00     0.068 C 
HETATM   15  C   UNL     1       1.734  31.131  45.498  1.00  0.00     0.240 C 
HETATM   16  H   UNL     1       2.659  25.517  49.209  1.00  0.00     0.162 HD
HETATM   17  H   UNL     1       6.348  27.031  48.127  1.00  0.00     0.165 HD
ENDROOT
BRANCH   9  18
HETATM   18  C   UNL     1       4.772  26.602  50.486  1.00  0.00    -0.016 A 
HETATM   19  C   UNL     1       5.045  25.604  51.442  1.00  0.00     0.023 A 
HETATM   20  C   UNL     1       5.202  25.906  52.811  1.00  0.00    -0.000 A 
HETATM   21  C   UNL     1       5.094  27.239  53.234  1.00  0.00     0.076 A 
HETATM   22  C   UNL     1       4.821  28.238  52.296  1.00  0.00     0.038 A 
HETATM   23  C   UNL     1       4.663  27.923  50.941  1.00  0.00     0.014 A 
BRANCH  20  24
HETATM   24  C   UNL     1       5.462  24.781  53.792  1.00  0.00     0.217 C 
BRANCH  24  25
HETATM   25  O   UNL     1       6.875  24.645  53.981  1.00  0.00    -0.347 OA
BRANCH  25  26
HETATM   26  C   UNL     1       7.372  23.371  54.031  1.00  0.00     0.070 A 
HETATM   27  C   UNL     1       7.573  22.874  55.324  1.00  0.00     0.063 A 
HETATM   28  C   UNL     1       8.077  21.587  55.512  1.00  0.00     0.075 A 
HETATM   29 CL   UNL     1       8.314  20.995  57.112  1.00  0.00    -0.081 Cl
HETATM   30  C   UNL     1       8.383  20.795  54.410  1.00  0.00     0.138 A 
HETATM   31  F   UNL     1       8.869  19.555  54.565  1.00  0.00    -0.204 F 
HETATM   32  C   UNL     1       8.192  21.281  53.120  1.00  0.00     0.047 A 
HETATM   33  C   UNL     1       7.687  22.571  52.928  1.00  0.00     0.040 A 
ENDBRANCH  25  26
ENDBRANCH  24  25
ENDBRANCH  20  24
BRANCH  21  34
HETATM   34  O   UNL     1       5.234  27.468  54.577  1.00  0.00    -0.355 OA
HETATM   35  C   UNL     1       5.753  28.734  54.967  1.00  0.00     0.210 C 
ENDBRANCH  21  34
ENDBRANCH   9  18
BRANCH   1  36
HETATM   36  C   UNL     1      -0.631  31.968  45.648  1.00  0.00     0.231 C 
HETATM   37  C   UNL     1      -1.988  31.315  45.830  1.00  0.00     0.034 C 
ENDBRANCH   1  36
TORSDOF 6
ENDMDL
MODEL 6
REMARK VINA RESULT:      -9.4      4.329      7.602
REMARK  6 active torsions:
REMARK  status: ('A' for Active; 'I' for Inactive)
REMARK    1  A    between atoms: C_2  and  N_3 
REMARK    2  A    between atoms: C_11  and  C_12 
REMARK    3  A    between atoms: C_14  and  C_15 
REMARK    4  A    between atoms: C_15  and  O_16 
REMARK    5  A    between atoms: O_16  and  C_17 
REMARK    6  A    between atoms: C_25  and  O_26 
ROOT
HETATM    1  N   UNL     1       5.652  31.950  50.984  1.00  0.00    -0.067 N 
HETATM    2  H   UNL     1       6.615  31.687  51.231  1.00  0.00     0.280 HD
HETATM    3  C   UNL     1       4.772  31.459  52.133  1.00  0.00     0.281 C 
HETATM    4  C   UNL     1       4.664  29.974  52.128  1.00  0.00     0.018 A 
HETATM    5  C   UNL     1       5.020  29.149  51.077  1.00  0.00    -0.023 A 
HETATM    6  C   UNL     1       4.754  27.776  51.383  1.00  0.00     0.073 A 
HETATM    7  C   UNL     1       4.209  27.630  52.636  1.00  0.00     0.088 A 
HETATM    8  N   UNL     1       3.845  26.436  53.149  1.00  0.00    -0.358 N 
HETATM    9  C   UNL     1       4.393  25.225  52.566  1.00  0.00     0.219 C 
HETATM   10  N   UNL     1       4.582  25.409  51.147  1.00  0.00    -0.332 N 
HETATM   11  C   UNL     1       4.951  26.592  50.567  1.00  0.00     0.256 C 
HETATM   12  O   UNL     1       5.403  26.640  49.428  1.00  0.00    -0.267 OA
HETATM   13  S   UNL     1       4.025  29.111  53.449  1.00  0.00    -0.074 SA
HETATM   14  C   UNL     1       5.603  29.705  49.814  1.00  0.00     0.068 C 
HETATM   15  C   UNL     1       5.321  31.211  49.681  1.00  0.00     0.240 C 
HETATM   16  H   UNL     1       3.627  26.373  54.139  1.00  0.00     0.162 HD
HETATM   17  H   UNL     1       4.761  24.587  50.590  1.00  0.00     0.165 HD
ENDROOT
BRANCH   9  18
HETATM   18  C   UNL     1       5.643  24.782  53.314  1.00  0.00    -0.016 A 
HETATM   19  C   UNL     1       5.786  25.118  54.674  1.00  0.00     0.023 A 
HETATM   20  C   UNL     1       6.915  24.729  55.424  1.00  0.00    -0.000 A 
HETATM   21  C   UNL     1       7.923  23.977  54.802  1.00  0.00     0.076 A 
HETATM   22  C   UNL     1       7.794  23.639  53.452  1.00  0.00     0.038 A 
HETATM   23  C   UNL     1       6.670  24.037  52.719  1.00  0.00     0.014 A 
BRANCH  20  24
HETATM   24  C   UNL     1       7.022  25.151  56.875  1.00  0.00     0.217 C 
BRANCH  24  25
HETATM   25  O   UNL     1       7.918  26.263  56.971  1.00  0.00    -0.347 OA
BRANCH  25  26
HETATM   26  C   UNL     1       7.359  27.487  57.223  1.00  0.00     0.070 A 
HETATM   27  C   UNL     1       8.270  28.476  57.608  1.00  0.00     0.063 A 
HETATM   28  C   UNL     1       7.828  29.768  57.893  1.00  0.00     0.075 A 
HETATM   29 CL   UNL     1       8.968  30.970  58.362  1.00  0.00    -0.081 Cl
HETATM   30  C   UNL     1       6.474  30.073  57.797  1.00  0.00     0.138 A 
HETATM   31  F   UNL     1       6.024  31.307  58.066  1.00  0.00    -0.204 F 
HETATM   32  C   UNL     1       5.558  29.097  57.420  1.00  0.00     0.047 A 
HETATM   33  C   UNL     1       5.999  27.800  57.134  1.00  0.00     0.040 A 
ENDBRANCH  25  26
ENDBRANCH  24  25
ENDBRANCH  20  24
BRANCH  21  34
HETATM   34  O   UNL     1       9.004  23.647  55.573  1.00  0.00    -0.355 OA
HETATM   35  C   UNL     1       9.128  22.285  55.966  1.00  0.00     0.210 C 
ENDBRANCH  21  34
ENDBRANCH   9  18
BRANCH   1  36
HETATM   36  C   UNL     1       5.606  33.445  50.794  1.00  0.00     0.231 C 
HETATM   37  C   UNL     1       5.888  33.824  49.352  1.00  0.00     0.034 C 
ENDBRANCH   1  36
TORSDOF 6
ENDMDL
MODEL 7
REMARK VINA RESULT:      -9.2      6.201      9.894
REMARK  6 active torsions:
REMARK  status: ('A' for Active; 'I' for Inactive)
REMARK    1  A    between atoms: C_2  and  N_3 
REMARK    2  A    between atoms: C_11  and  C_12 
REMARK    3  A    between atoms: C_14  and  C_15 
REMARK    4  A    between atoms: C_15  and  O_16 
REMARK    5  A    between atoms: O_16  and  C_17 
REMARK    6  A    between atoms: C_25  and  O_26 
ROOT
HETATM    1  N   UNL     1       6.105  33.718  49.762  1.00  0.00    -0.067 N 
HETATM    2  H   UNL     1       6.900  33.544  50.391  1.00  0.00     0.280 HD
HETATM    3  C   UNL     1       4.856  33.708  50.643  1.00  0.00     0.281 C 
HETATM    4  C   UNL     1       4.543  32.329  51.109  1.00  0.00     0.018 A 
HETATM    5  C   UNL     1       5.079  31.166  50.587  1.00  0.00    -0.023 A 
HETATM    6  C   UNL     1       4.538  30.010  51.236  1.00  0.00     0.073 A 
HETATM    7  C   UNL     1       3.622  30.349  52.203  1.00  0.00     0.088 A 
HETATM    8  N   UNL     1       2.952  29.439  52.939  1.00  0.00    -0.358 N 
HETATM    9  C   UNL     1       3.471  28.086  53.023  1.00  0.00     0.219 C 
HETATM   10  N   UNL     1       4.106  27.728  51.778  1.00  0.00    -0.332 N 
HETATM   11  C   UNL     1       4.800  28.603  50.989  1.00  0.00     0.256 C 
HETATM   12  O   UNL     1       5.579  28.217  50.124  1.00  0.00    -0.267 OA
HETATM   13  S   UNL     1       3.416  32.030  52.350  1.00  0.00    -0.074 SA
HETATM   14  C   UNL     1       6.091  31.202  49.484  1.00  0.00     0.068 C 
HETATM   15  C   UNL     1       6.083  32.558  48.759  1.00  0.00     0.240 C 
HETATM   16  H   UNL     1       2.438  29.751  53.756  1.00  0.00     0.162 HD
HETATM   17  H   UNL     1       4.327  26.754  51.630  1.00  0.00     0.165 HD
ENDROOT
BRANCH   9  18
HETATM   18  C   UNL     1       4.358  27.922  54.251  1.00  0.00    -0.016 A 
HETATM   19  C   UNL     1       5.395  26.970  54.227  1.00  0.00     0.023 A 
HETATM   20  C   UNL     1       6.256  26.778  55.327  1.00  0.00    -0.000 A 
HETATM   21  C   UNL     1       6.082  27.563  56.477  1.00  0.00     0.076 A 
HETATM   22  C   UNL     1       5.055  28.509  56.514  1.00  0.00     0.038 A 
HETATM   23  C   UNL     1       4.205  28.686  55.416  1.00  0.00     0.014 A 
BRANCH  20  24
HETATM   24  C   UNL     1       7.332  25.714  55.249  1.00  0.00     0.217 C 
BRANCH  24  25
HETATM   25  O   UNL     1       7.174  24.980  54.030  1.00  0.00    -0.347 OA
BRANCH  25  26
HETATM   26  C   UNL     1       7.507  23.654  54.058  1.00  0.00     0.070 A 
HETATM   27  C   UNL     1       7.725  23.135  55.339  1.00  0.00     0.063 A 
HETATM   28  C   UNL     1       8.072  21.794  55.506  1.00  0.00     0.075 A 
HETATM   29 CL   UNL     1       8.332  21.177  57.092  1.00  0.00    -0.081 Cl
HETATM   30  C   UNL     1       8.205  20.970  54.393  1.00  0.00     0.138 A 
HETATM   31  F   UNL     1       8.538  19.678  54.527  1.00  0.00    -0.204 F 
HETATM   32  C   UNL     1       7.996  21.476  53.114  1.00  0.00     0.047 A 
HETATM   33  C   UNL     1       7.648  22.820  52.944  1.00  0.00     0.040 A 
ENDBRANCH  25  26
ENDBRANCH  24  25
ENDBRANCH  20  24
BRANCH  21  34
HETATM   34  O   UNL     1       6.933  27.317  57.521  1.00  0.00    -0.355 OA
HETATM   35  C   UNL     1       7.841  28.353  57.874  1.00  0.00     0.210 C 
ENDBRANCH  21  34
ENDBRANCH   9  18
BRANCH   1  36
HETATM   36  C   UNL     1       6.335  35.038  49.069  1.00  0.00     0.231 C 
HETATM   37  C   UNL     1       7.033  36.025  49.986  1.00  0.00     0.034 C 
ENDBRANCH   1  36
TORSDOF 6
ENDMDL
MODEL 8
REMARK VINA RESULT:      -9.1      1.818      2.166
REMARK  6 active torsions:
REMARK  status: ('A' for Active; 'I' for Inactive)
REMARK    1  A    between atoms: C_2  and  N_3 
REMARK    2  A    between atoms: C_11  and  C_12 
REMARK    3  A    between atoms: C_14  and  C_15 
REMARK    4  A    between atoms: C_15  and  O_16 
REMARK    5  A    between atoms: O_16  and  C_17 
REMARK    6  A    between atoms: C_25  and  O_26 
ROOT
HETATM    1  N   UNL     1       8.687  22.696  54.310  1.00  0.00    -0.067 N 
HETATM    2  H   UNL     1       9.352  23.088  54.989  1.00  0.00     0.280 HD
HETATM    3  C   UNL     1       8.307  23.846  53.377  1.00  0.00     0.281 C 
HETATM    4  C   UNL     1       7.439  24.835  54.073  1.00  0.00     0.018 A 
HETATM    5  C   UNL     1       6.788  24.623  55.275  1.00  0.00    -0.023 A 
HETATM    6  C   UNL     1       6.005  25.763  55.648  1.00  0.00     0.073 A 
HETATM    7  C   UNL     1       6.095  26.770  54.717  1.00  0.00     0.088 A 
HETATM    8  N   UNL     1       5.430  27.938  54.825  1.00  0.00    -0.358 N 
HETATM    9  C   UNL     1       4.921  28.338  56.124  1.00  0.00     0.219 C 
HETATM   10  N   UNL     1       4.520  27.171  56.872  1.00  0.00    -0.332 N 
HETATM   11  C   UNL     1       5.154  25.960  56.807  1.00  0.00     0.256 C 
HETATM   12  O   UNL     1       4.996  25.101  57.667  1.00  0.00    -0.267 OA
HETATM   13  S   UNL     1       7.112  26.370  53.415  1.00  0.00    -0.074 SA
HETATM   14  C   UNL     1       6.938  23.335  56.025  1.00  0.00     0.068 C 
HETATM   15  C   UNL     1       7.474  22.216  55.117  1.00  0.00     0.240 C 
HETATM   16  H   UNL     1       5.682  28.705  54.210  1.00  0.00     0.162 HD
HETATM   17  H   UNL     1       3.964  27.317  57.702  1.00  0.00     0.165 HD
ENDROOT
BRANCH   9  18
HETATM   18  C   UNL     1       5.921  29.232  56.844  1.00  0.00    -0.016 A 
HETATM   19  C   UNL     1       5.466  30.413  57.463  1.00  0.00     0.023 A 
HETATM   20  C   UNL     1       6.340  31.278  58.154  1.00  0.00    -0.000 A 
HETATM   21  C   UNL     1       7.701  30.950  58.236  1.00  0.00     0.076 A 
HETATM   22  C   UNL     1       8.166  29.783  57.625  1.00  0.00     0.038 A 
HETATM   23  C   UNL     1       7.288  28.937  56.938  1.00  0.00     0.014 A 
BRANCH  20  24
HETATM   24  C   UNL     1       5.791  32.549  58.770  1.00  0.00     0.217 C 
BRANCH  24  25
HETATM   25  O   UNL     1       5.051  32.213  59.949  1.00  0.00    -0.347 OA
BRANCH  25  26
HETATM   26  C   UNL     1       4.547  33.254  60.679  1.00  0.00     0.070 A 
HETATM   27  C   UNL     1       3.164  33.431  60.564  1.00  0.00     0.063 A 
HETATM   28  C   UNL     1       2.525  34.459  61.259  1.00  0.00     0.075 A 
HETATM   29 CL   UNL     1       0.822  34.656  61.104  1.00  0.00    -0.081 Cl
HETATM   30  C   UNL     1       3.268  35.313  62.068  1.00  0.00     0.138 A 
HETATM   31  F   UNL     1       2.678  36.309  62.745  1.00  0.00    -0.204 F 
HETATM   32  C   UNL     1       4.645  35.150  62.186  1.00  0.00     0.047 A 
HETATM   33  C   UNL     1       5.287  34.121  61.490  1.00  0.00     0.040 A 
ENDBRANCH  25  26
ENDBRANCH  24  25
ENDBRANCH  20  24
BRANCH  21  34
HETATM   34  O   UNL     1       8.505  31.838  58.900  1.00  0.00    -0.355 OA
HETATM   35  C   UNL     1       8.876  31.504  60.233  1.00  0.00     0.210 C 
ENDBRANCH  21  34
ENDBRANCH   9  18
BRANCH   1  36
HETATM   36  C   UNL     1       9.362  21.550  53.600  1.00  0.00     0.231 C 
HETATM   37  C   UNL     1       8.345  20.638  52.939  1.00  0.00     0.034 C 
ENDBRANCH   1  36
TORSDOF 6
ENDMDL
MODEL 9
REMARK VINA RESULT:      -8.7      6.903     10.032
REMARK  6 active torsions:
REMARK  status: ('A' for Active; 'I' for Inactive)
REMARK    1  A    between atoms: C_2  and  N_3 
REMARK    2  A    between atoms: C_11  and  C_12 
REMARK    3  A    between atoms: C_14  and  C_15 
REMARK    4  A    between atoms: C_15  and  O_16 
REMARK    5  A    between atoms: O_16  and  C_17 
REMARK    6  A    between atoms: C_25  and  O_26 
ROOT
HETATM    1  N   UNL     1       5.422  32.407  47.139  1.00  0.00    -0.067 N 
HETATM    2  H   UNL     1       6.341  32.071  47.457  1.00  0.00     0.280 HD
HETATM    3  C   UNL     1       4.759  33.047  48.358  1.00  0.00     0.281 C 
HETATM    4  C   UNL     1       4.349  32.013  49.348  1.00  0.00     0.018 A 
HETATM    5  C   UNL     1       4.266  30.655  49.100  1.00  0.00    -0.023 A 
HETATM    6  C   UNL     1       3.803  29.946  50.254  1.00  0.00     0.073 A 
HETATM    7  C   UNL     1       3.553  30.793  51.307  1.00  0.00     0.088 A 
HETATM    8  N   UNL     1       3.084  30.371  52.500  1.00  0.00    -0.358 N 
HETATM    9  C   UNL     1       3.215  28.969  52.849  1.00  0.00     0.219 C 
HETATM   10  N   UNL     1       3.094  28.156  51.662  1.00  0.00    -0.332 N 
HETATM   11  C   UNL     1       3.551  28.526  50.427  1.00  0.00     0.256 C 
HETATM   12  O   UNL     1       3.719  27.709  49.529  1.00  0.00    -0.267 OA
HETATM   13  S   UNL     1       3.878  32.418  50.933  1.00  0.00    -0.074 SA
HETATM   14  C   UNL     1       4.633  30.084  47.765  1.00  0.00     0.068 C 
HETATM   15  C   UNL     1       4.645  31.168  46.674  1.00  0.00     0.240 C 
HETATM   16  H   UNL     1       3.100  31.011  53.287  1.00  0.00     0.162 HD
HETATM   17  H   UNL     1       2.962  27.163  51.788  1.00  0.00     0.165 HD
ENDROOT
BRANCH   9  18
HETATM   18  C   UNL     1       4.487  28.727  53.649  1.00  0.00    -0.016 A 
HETATM   19  C   UNL     1       5.408  27.760  53.200  1.00  0.00     0.023 A 
HETATM   20  C   UNL     1       6.610  27.497  53.891  1.00  0.00    -0.000 A 
HETATM   21  C   UNL     1       6.902  28.224  55.055  1.00  0.00     0.076 A 
HETATM   22  C   UNL     1       5.996  29.184  55.512  1.00  0.00     0.038 A 
HETATM   23  C   UNL     1       4.805  29.431  54.819  1.00  0.00     0.014 A 
BRANCH  20  24
HETATM   24  C   UNL     1       7.542  26.422  53.372  1.00  0.00     0.217 C 
BRANCH  24  25
HETATM   25  O   UNL     1       6.871  25.158  53.429  1.00  0.00    -0.347 OA
BRANCH  25  26
HETATM   26  C   UNL     1       7.556  24.120  53.999  1.00  0.00     0.070 A 
HETATM   27  C   UNL     1       7.618  22.962  53.217  1.00  0.00     0.063 A 
HETATM   28  C   UNL     1       8.288  21.831  53.685  1.00  0.00     0.075 A 
HETATM   29 CL   UNL     1       8.353  20.418  52.703  1.00  0.00    -0.081 Cl
HETATM   30  C   UNL     1       8.895  21.854  54.937  1.00  0.00     0.138 A 
HETATM   31  F   UNL     1       9.544  20.780  55.409  1.00  0.00    -0.204 F 
HETATM   32  C   UNL     1       8.835  22.998  55.726  1.00  0.00     0.047 A 
HETATM   33  C   UNL     1       8.164  24.133  55.259  1.00  0.00     0.040 A 
ENDBRANCH  25  26
ENDBRANCH  24  25
ENDBRANCH  20  24
BRANCH  21  34
HETATM   34  O   UNL     1       8.071  27.910  55.695  1.00  0.00    -0.355 OA
HETATM   35  C   UNL     1       7.974  27.480  57.047  1.00  0.00     0.210 C 
ENDBRANCH  21  34
ENDBRANCH   9  18
BRANCH   1  36
HETATM   36  C   UNL     1       5.643  33.374  46.003  1.00  0.00     0.231 C 
HETATM   37  C   UNL     1       4.323  33.874  45.444  1.00  0.00     0.034 C 
ENDBRANCH   1  36
TORSDOF 6
ENDMDL
MODEL 10
REMARK VINA RESULT:      -8.7      2.878      3.535
REMARK  6 active torsions:
REMARK  status: ('A' for Active; 'I' for Inactive)
REMARK    1  A    between atoms: C_2  and  N_3 
REMARK    2  A    between atoms: C_11  and  C_12 
REMARK    3  A    between atoms: C_14  and  C_15 
REMARK    4  A    between atoms: C_15  and  O_16 
REMARK    5  A    between atoms: O_16  and  C_17 
REMARK    6  A    between atoms: C_25  and  O_26 
ROOT
HETATM    1  N   UNL     1       8.631  22.647  54.334  1.00  0.00    -0.067 N 
HETATM    2  H   UNL     1       9.305  23.043  55.003  1.00  0.00     0.280 HD
HETATM    3  C   UNL     1       8.245  23.790  53.395  1.00  0.00     0.281 C 
HETATM    4  C   UNL     1       7.388  24.788  54.092  1.00  0.00     0.018 A 
HETATM    5  C   UNL     1       6.749  24.588  55.302  1.00  0.00    -0.023 A 
HETATM    6  C   UNL     1       5.974  25.734  55.673  1.00  0.00     0.073 A 
HETATM    7  C   UNL     1       6.058  26.733  54.733  1.00  0.00     0.088 A 
HETATM    8  N   UNL     1       5.397  27.904  54.838  1.00  0.00    -0.358 N 
HETATM    9  C   UNL     1       4.904  28.317  56.139  1.00  0.00     0.219 C 
HETATM   10  N   UNL     1       4.507  27.158  56.901  1.00  0.00    -0.332 N 
HETATM   11  C   UNL     1       5.136  25.945  56.840  1.00  0.00     0.256 C 
HETATM   12  O   UNL     1       4.984  25.093  57.709  1.00  0.00    -0.267 OA
HETATM   13  S   UNL     1       7.059  26.319  53.424  1.00  0.00    -0.074 SA
HETATM   14  C   UNL     1       6.903  23.307  56.062  1.00  0.00     0.068 C 
HETATM   15  C   UNL     1       7.426  22.178  55.158  1.00  0.00     0.240 C 
HETATM   16  H   UNL     1       5.646  28.665  54.213  1.00  0.00     0.162 HD
HETATM   17  H   UNL     1       3.960  27.313  57.736  1.00  0.00     0.165 HD
ENDROOT
BRANCH   9  18
HETATM   18  C   UNL     1       5.914  29.215  56.841  1.00  0.00    -0.016 A 
HETATM   19  C   UNL     1       5.453  30.312  57.594  1.00  0.00     0.023 A 
HETATM   20  C   UNL     1       6.337  31.174  58.275  1.00  0.00    -0.000 A 
HETATM   21  C   UNL     1       7.717  30.928  58.209  1.00  0.00     0.076 A 
HETATM   22  C   UNL     1       8.188  29.845  57.463  1.00  0.00     0.038 A 
HETATM   23  C   UNL     1       7.298  29.000  56.788  1.00  0.00     0.014 A 
BRANCH  20  24
HETATM   24  C   UNL     1       5.777  32.355  59.041  1.00  0.00     0.217 C 
BRANCH  24  25
HETATM   25  O   UNL     1       4.357  32.209  59.148  1.00  0.00    -0.347 OA
BRANCH  25  26
HETATM   26  C   UNL     1       3.598  33.307  58.845  1.00  0.00     0.070 A 
HETATM   27  C   UNL     1       3.537  33.615  57.482  1.00  0.00     0.063 A 
HETATM   28  C   UNL     1       2.796  34.712  57.041  1.00  0.00     0.075 A 
HETATM   29 CL   UNL     1       2.732  35.071  55.358  1.00  0.00    -0.081 Cl
HETATM   30  C   UNL     1       2.117  35.505  57.962  1.00  0.00     0.138 A 
HETATM   31  F   UNL     1       1.399  36.564  57.563  1.00  0.00    -0.204 F 
HETATM   32  C   UNL     1       2.176  35.211  59.320  1.00  0.00     0.047 A 
HETATM   33  C   UNL     1       2.918  34.112  59.765  1.00  0.00     0.040 A 
ENDBRANCH  25  26
ENDBRANCH  24  25
ENDBRANCH  20  24
BRANCH  21  34
HETATM   34  O   UNL     1       8.527  31.811  58.872  1.00  0.00    -0.355 OA
HETATM   35  C   UNL     1       9.932  31.613  58.755  1.00  0.00     0.210 C 
ENDBRANCH  21  34
ENDBRANCH   9  18
BRANCH   1  36
HETATM   36  C   UNL     1       9.295  21.492  53.627  1.00  0.00     0.231 C 
HETATM   37  C   UNL     1       8.270  20.598  52.955  1.00  0.00     0.034 C 
ENDBRANCH   1  36
TORSDOF 6
ENDMDL
