MODEL 1
REMARK VINA RESULT:     -10.4      0.000      0.000
REMARK  3 active torsions:
REMARK  status: ('A' for Active; 'I' for Inactive)
REMARK    1  A    between atoms: C_4  and  N_5 
REMARK    2  A    between atoms: N_5  and  C_6 
REMARK    3  A    between atoms: C_13  and  C_14 
ROOT
HETATM    1  C   UNL     1       6.287  28.201  53.137  1.00  0.00     0.741 A 
HETATM    2  N   UNL     1       5.633  27.141  53.641  1.00  0.00    -0.066 NA
HETATM    3  C   UNL     1       6.116  26.554  54.758  1.00  0.00     0.069 A 
HETATM    4  C   UNL     1       7.239  27.017  55.400  1.00  0.00     0.053 A 
HETATM    5  C   UNL     1       7.746  26.383  56.622  1.00  0.00     0.163 C 
HETATM    6  O   UNL     1       8.710  26.868  57.208  1.00  0.00    -0.292 OA
HETATM    7  C   UNL     1       6.981  25.197  57.170  1.00  0.00     0.093 C 
HETATM    8  C   UNL     1       6.269  24.394  56.065  1.00  0.00     0.031 C 
HETATM    9  C   UNL     1       5.364  25.354  55.268  1.00  0.00     0.070 C 
HETATM   10  C   UNL     1       7.855  28.101  54.826  1.00  0.00     0.153 A 
HETATM   11  N   UNL     1       7.403  28.700  53.700  1.00  0.00    -0.073 NA
ENDROOT
BRANCH   1  12
HETATM   12  N   UNL     1       5.864  28.838  51.992  1.00  0.00    -0.015 N 
HETATM   13  H   UNL     1       6.307  29.722  51.825  1.00  0.00     0.203 HD
BRANCH  12  14
HETATM   14  C   UNL     1       4.906  28.509  51.056  1.00  0.00     0.742 A 
HETATM   15  N   UNL     1       3.774  29.228  51.119  1.00  0.00    -0.066 NA
HETATM   16  C   UNL     1       2.789  28.941  50.238  1.00  0.00     0.062 A 
HETATM   17  C   UNL     1       1.553  29.785  50.353  1.00  0.00     0.072 C 
HETATM   18  C   UNL     1       2.904  27.928  49.280  1.00  0.00     0.018 A 
HETATM   19  C   UNL     1       4.121  27.242  49.302  1.00  0.00     0.088 A 
HETATM   20  C   UNL     1       1.911  27.566  48.335  1.00  0.00     0.016 A 
HETATM   21  N   UNL     1       5.097  27.529  50.166  1.00  0.00    -0.062 NA
HETATM   22  C   UNL     1       4.323  26.217  48.387  1.00  0.00     0.033 A 
HETATM   23  C   UNL     1       3.347  25.855  47.456  1.00  0.00     0.002 A 
HETATM   24  C   UNL     1       2.136  26.533  47.429  1.00  0.00     0.001 A 
ENDBRANCH  12  14
ENDBRANCH   1  12
BRANCH   8  25
HETATM   25  C   UNL     1       7.242  23.536  55.255  1.00  0.00    -0.053 A 
HETATM   26  C   UNL     1       8.247  22.826  55.939  1.00  0.00     0.007 A 
HETATM   27  C   UNL     1       9.171  22.034  55.253  1.00  0.00     0.001 A 
HETATM   28  C   UNL     1       9.103  21.926  53.870  1.00  0.00     0.000 A 
HETATM   29  C   UNL     1       8.104  22.601  53.175  1.00  0.00     0.001 A 
HETATM   30  C   UNL     1       7.178  23.394  53.860  1.00  0.00     0.007 A 
ENDBRANCH   8  25
TORSDOF 3
ENDMDL
MODEL 2
REMARK VINA RESULT:     -10.0      3.721      7.651
REMARK  3 active torsions:
REMARK  status: ('A' for Active; 'I' for Inactive)
REMARK    1  A    between atoms: C_4  and  N_5 
REMARK    2  A    between atoms: N_5  and  C_6 
REMARK    3  A    between atoms: C_13  and  C_14 
ROOT
HETATM    1  C   UNL     1       6.253  28.527  54.873  1.00  0.00     0.741 A 
HETATM    2  N   UNL     1       7.237  27.843  54.265  1.00  0.00    -0.066 NA
HETATM    3  C   UNL     1       6.940  26.661  53.682  1.00  0.00     0.069 A 
HETATM    4  C   UNL     1       5.664  26.150  53.677  1.00  0.00     0.053 A 
HETATM    5  C   UNL     1       5.347  24.873  53.027  1.00  0.00     0.163 C 
HETATM    6  O   UNL     1       4.184  24.483  52.980  1.00  0.00    -0.292 OA
HETATM    7  C   UNL     1       6.476  24.132  52.343  1.00  0.00     0.093 C 
HETATM    8  C   UNL     1       7.842  24.398  53.003  1.00  0.00     0.031 C 
HETATM    9  C   UNL     1       8.081  25.920  53.038  1.00  0.00     0.070 C 
HETATM   10  C   UNL     1       4.712  26.903  54.319  1.00  0.00     0.153 A 
HETATM   11  N   UNL     1       4.984  28.082  54.924  1.00  0.00    -0.073 NA
ENDROOT
BRANCH   1  12
HETATM   12  N   UNL     1       6.487  29.729  55.503  1.00  0.00    -0.015 N 
HETATM   13  H   UNL     1       6.002  30.507  55.098  1.00  0.00     0.203 HD
BRANCH  12  14
HETATM   14  C   UNL     1       7.305  30.071  56.559  1.00  0.00     0.742 A 
HETATM   15  N   UNL     1       8.595  29.726  56.419  1.00  0.00    -0.066 NA
HETATM   16  C   UNL     1       9.445  30.019  57.428  1.00  0.00     0.062 A 
HETATM   17  C   UNL     1      10.874  29.617  57.208  1.00  0.00     0.072 C 
HETATM   18  C   UNL     1       9.031  30.655  58.604  1.00  0.00     0.018 A 
HETATM   19  C   UNL     1       7.670  30.968  58.647  1.00  0.00     0.088 A 
HETATM   20  C   UNL     1       9.862  30.982  59.705  1.00  0.00     0.016 A 
HETATM   21  N   UNL     1       6.831  30.686  57.647  1.00  0.00    -0.062 NA
HETATM   22  C   UNL     1       7.168  31.599  59.778  1.00  0.00     0.033 A 
HETATM   23  C   UNL     1       7.982  31.922  60.867  1.00  0.00     0.002 A 
HETATM   24  C   UNL     1       9.335  31.612  60.830  1.00  0.00     0.001 A 
ENDBRANCH  12  14
ENDBRANCH   1  12
BRANCH   8  25
HETATM   25  C   UNL     1       8.000  23.648  54.327  1.00  0.00    -0.053 A 
HETATM   26  C   UNL     1       7.779  22.258  54.345  1.00  0.00     0.007 A 
HETATM   27  C   UNL     1       7.898  21.519  55.525  1.00  0.00     0.001 A 
HETATM   28  C   UNL     1       8.251  22.153  56.709  1.00  0.00     0.000 A 
HETATM   29  C   UNL     1       8.496  23.523  56.711  1.00  0.00     0.001 A 
HETATM   30  C   UNL     1       8.377  24.263  55.530  1.00  0.00     0.007 A 
ENDBRANCH   8  25
TORSDOF 3
ENDMDL
MODEL 3
REMARK VINA RESULT:     -10.0      5.219      8.758
REMARK  3 active torsions:
REMARK  status: ('A' for Active; 'I' for Inactive)
REMARK    1  A    between atoms: C_4  and  N_5 
REMARK    2  A    between atoms: N_5  and  C_6 
REMARK    3  A    between atoms: C_13  and  C_14 
ROOT
HETATM    1  C   UNL     1       7.236  29.292  57.590  1.00  0.00     0.741 A 
HETATM    2  N   UNL     1       6.188  28.485  57.353  1.00  0.00    -0.066 NA
HETATM    3  C   UNL     1       6.419  27.178  57.106  1.00  0.00     0.069 A 
HETATM    4  C   UNL     1       7.687  26.647  57.108  1.00  0.00     0.053 A 
HETATM    5  C   UNL     1       7.928  25.222  56.855  1.00  0.00     0.163 C 
HETATM    6  O   UNL     1       9.067  24.770  56.936  1.00  0.00    -0.292 OA
HETATM    7  C   UNL     1       6.725  24.339  56.600  1.00  0.00     0.093 C 
HETATM    8  C   UNL     1       5.562  25.103  55.940  1.00  0.00     0.031 C 
HETATM    9  C   UNL     1       5.215  26.321  56.819  1.00  0.00     0.070 C 
HETATM   10  C   UNL     1       8.708  27.531  57.356  1.00  0.00     0.153 A 
HETATM   11  N   UNL     1       8.507  28.848  57.592  1.00  0.00    -0.073 NA
ENDROOT
BRANCH   1  12
HETATM   12  N   UNL     1       7.077  30.637  57.831  1.00  0.00    -0.015 N 
HETATM   13  H   UNL     1       7.161  31.214  57.016  1.00  0.00     0.203 HD
BRANCH  12  14
HETATM   14  C   UNL     1       6.872  31.346  58.996  1.00  0.00     0.742 A 
HETATM   15  N   UNL     1       5.829  32.191  58.977  1.00  0.00    -0.066 NA
HETATM   16  C   UNL     1       5.587  32.928  60.084  1.00  0.00     0.062 A 
HETATM   17  C   UNL     1       4.402  33.846  60.003  1.00  0.00     0.072 C 
HETATM   18  C   UNL     1       6.380  32.848  61.233  1.00  0.00     0.018 A 
HETATM   19  C   UNL     1       7.439  31.940  61.147  1.00  0.00     0.088 A 
HETATM   20  C   UNL     1       6.193  33.596  62.423  1.00  0.00     0.016 A 
HETATM   21  N   UNL     1       7.675  31.206  60.057  1.00  0.00    -0.062 NA
HETATM   22  C   UNL     1       8.283  31.796  62.241  1.00  0.00     0.033 A 
HETATM   23  C   UNL     1       8.103  32.532  63.414  1.00  0.00     0.002 A 
HETATM   24  C   UNL     1       7.053  33.436  63.506  1.00  0.00     0.001 A 
ENDBRANCH  12  14
ENDBRANCH   1  12
BRANCH   8  25
HETATM   25  C   UNL     1       5.817  25.376  54.457  1.00  0.00    -0.053 A 
HETATM   26  C   UNL     1       6.631  24.483  53.737  1.00  0.00     0.007 A 
HETATM   27  C   UNL     1       6.909  24.685  52.383  1.00  0.00     0.001 A 
HETATM   28  C   UNL     1       6.369  25.779  51.718  1.00  0.00     0.000 A 
HETATM   29  C   UNL     1       5.543  26.663  52.404  1.00  0.00     0.001 A 
HETATM   30  C   UNL     1       5.264  26.461  53.760  1.00  0.00     0.007 A 
ENDBRANCH   8  25
TORSDOF 3
ENDMDL
MODEL 4
REMARK VINA RESULT:     -10.0      4.018      7.772
REMARK  3 active torsions:
REMARK  status: ('A' for Active; 'I' for Inactive)
REMARK    1  A    between atoms: C_4  and  N_5 
REMARK    2  A    between atoms: N_5  and  C_6 
REMARK    3  A    between atoms: C_13  and  C_14 
ROOT
HETATM    1  C   UNL     1       7.635  27.747  55.972  1.00  0.00     0.741 A 
HETATM    2  N   UNL     1       8.154  27.226  54.847  1.00  0.00    -0.066 NA
HETATM    3  C   UNL     1       7.398  26.378  54.117  1.00  0.00     0.069 A 
HETATM    4  C   UNL     1       6.113  26.050  54.478  1.00  0.00     0.053 A 
HETATM    5  C   UNL     1       5.292  25.140  53.669  1.00  0.00     0.163 C 
HETATM    6  O   UNL     1       4.125  24.927  53.984  1.00  0.00    -0.292 OA
HETATM    7  C   UNL     1       5.904  24.577  52.404  1.00  0.00     0.093 C 
HETATM    8  C   UNL     1       7.434  24.431  52.503  1.00  0.00     0.031 C 
HETATM    9  C   UNL     1       8.034  25.799  52.881  1.00  0.00     0.070 C 
HETATM   10  C   UNL     1       5.651  26.618  55.639  1.00  0.00     0.153 A 
HETATM   11  N   UNL     1       6.391  27.459  56.398  1.00  0.00    -0.073 NA
ENDROOT
BRANCH   1  12
HETATM   12  N   UNL     1       8.354  28.603  56.775  1.00  0.00    -0.015 N 
HETATM   13  H   UNL     1       9.349  28.501  56.697  1.00  0.00     0.203 HD
BRANCH  12  14
HETATM   14  C   UNL     1       7.961  29.541  57.705  1.00  0.00     0.742 A 
HETATM   15  N   UNL     1       6.945  30.333  57.326  1.00  0.00    -0.066 NA
HETATM   16  C   UNL     1       6.525  31.285  58.189  1.00  0.00     0.062 A 
HETATM   17  C   UNL     1       5.381  32.131  57.711  1.00  0.00     0.072 C 
HETATM   18  C   UNL     1       7.110  31.478  59.445  1.00  0.00     0.018 A 
HETATM   19  C   UNL     1       8.159  30.602  59.738  1.00  0.00     0.088 A 
HETATM   20  C   UNL     1       6.730  32.460  60.393  1.00  0.00     0.016 A 
HETATM   21  N   UNL     1       8.570  29.656  58.891  1.00  0.00    -0.062 NA
HETATM   22  C   UNL     1       8.802  30.722  60.964  1.00  0.00     0.033 A 
HETATM   23  C   UNL     1       8.432  31.689  61.901  1.00  0.00     0.002 A 
HETATM   24  C   UNL     1       7.391  32.562  61.615  1.00  0.00     0.001 A 
ENDBRANCH  12  14
ENDBRANCH   1  12
BRANCH   8  25
HETATM   25  C   UNL     1       7.846  23.238  53.367  1.00  0.00    -0.053 A 
HETATM   26  C   UNL     1       7.666  21.939  52.855  1.00  0.00     0.007 A 
HETATM   27  C   UNL     1       8.013  20.810  53.600  1.00  0.00     0.001 A 
HETATM   28  C   UNL     1       8.558  20.956  54.870  1.00  0.00     0.000 A 
HETATM   29  C   UNL     1       8.765  22.230  55.388  1.00  0.00     0.001 A 
HETATM   30  C   UNL     1       8.418  23.362  54.642  1.00  0.00     0.007 A 
ENDBRANCH   8  25
TORSDOF 3
ENDMDL
MODEL 5
REMARK VINA RESULT:      -9.9      2.402      8.149
REMARK  3 active torsions:
REMARK  status: ('A' for Active; 'I' for Inactive)
REMARK    1  A    between atoms: C_4  and  N_5 
REMARK    2  A    between atoms: N_5  and  C_6 
REMARK    3  A    between atoms: C_13  and  C_14 
ROOT
HETATM    1  C   UNL     1       4.393  27.145  52.823  1.00  0.00     0.741 A 
HETATM    2  N   UNL     1       5.014  27.130  51.631  1.00  0.00    -0.066 NA
HETATM    3  C   UNL     1       4.845  28.182  50.800  1.00  0.00     0.069 A 
HETATM    4  C   UNL     1       4.078  29.269  51.144  1.00  0.00     0.053 A 
HETATM    5  C   UNL     1       3.913  30.415  50.242  1.00  0.00     0.163 C 
HETATM    6  O   UNL     1       3.279  31.398  50.612  1.00  0.00    -0.292 OA
HETATM    7  C   UNL     1       4.633  30.371  48.910  1.00  0.00     0.093 C 
HETATM    8  C   UNL     1       4.815  28.935  48.386  1.00  0.00     0.031 C 
HETATM    9  C   UNL     1       5.538  28.107  49.466  1.00  0.00     0.070 C 
HETATM   10  C   UNL     1       3.473  29.212  52.375  1.00  0.00     0.153 A 
HETATM   11  N   UNL     1       3.611  28.165  53.222  1.00  0.00    -0.073 NA
ENDROOT
BRANCH   1  12
HETATM   12  N   UNL     1       4.504  26.100  53.712  1.00  0.00    -0.015 N 
HETATM   13  H   UNL     1       3.642  25.841  54.153  1.00  0.00     0.203 HD
BRANCH  12  14
HETATM   14  C   UNL     1       5.592  25.374  54.148  1.00  0.00     0.742 A 
HETATM   15  N   UNL     1       6.130  25.787  55.307  1.00  0.00    -0.066 NA
HETATM   16  C   UNL     1       7.210  25.125  55.778  1.00  0.00     0.062 A 
HETATM   17  C   UNL     1       7.758  25.629  57.082  1.00  0.00     0.072 C 
HETATM   18  C   UNL     1       7.787  24.043  55.105  1.00  0.00     0.018 A 
HETATM   19  C   UNL     1       7.151  23.697  53.910  1.00  0.00     0.088 A 
HETATM   20  C   UNL     1       8.923  23.312  55.533  1.00  0.00     0.016 A 
HETATM   21  N   UNL     1       6.079  24.344  53.446  1.00  0.00    -0.062 NA
HETATM   22  C   UNL     1       7.657  22.635  53.171  1.00  0.00     0.033 A 
HETATM   23  C   UNL     1       8.778  21.912  53.588  1.00  0.00     0.002 A 
HETATM   24  C   UNL     1       9.413  22.252  54.774  1.00  0.00     0.001 A 
ENDBRANCH  12  14
ENDBRANCH   1  12
BRANCH   8  25
HETATM   25  C   UNL     1       3.515  28.352  47.830  1.00  0.00    -0.053 A 
HETATM   26  C   UNL     1       3.347  26.955  47.832  1.00  0.00     0.007 A 
HETATM   27  C   UNL     1       2.186  26.363  47.328  1.00  0.00     0.001 A 
HETATM   28  C   UNL     1       1.164  27.156  46.821  1.00  0.00     0.000 A 
HETATM   29  C   UNL     1       1.300  28.541  46.830  1.00  0.00     0.001 A 
HETATM   30  C   UNL     1       2.461  29.135  47.334  1.00  0.00     0.007 A 
ENDBRANCH   8  25
TORSDOF 3
ENDMDL
MODEL 6
REMARK VINA RESULT:      -9.7      2.416      7.802
REMARK  3 active torsions:
REMARK  status: ('A' for Active; 'I' for Inactive)
REMARK    1  A    between atoms: C_4  and  N_5 
REMARK    2  A    between atoms: N_5  and  C_6 
REMARK    3  A    between atoms: C_13  and  C_14 
ROOT
HETATM    1  C   UNL     1       5.649  28.788  52.599  1.00  0.00     0.741 A 
HETATM    2  N   UNL     1       5.970  29.064  51.324  1.00  0.00    -0.066 NA
HETATM    3  C   UNL     1       5.026  29.601  50.520  1.00  0.00     0.069 A 
HETATM    4  C   UNL     1       3.760  29.890  50.972  1.00  0.00     0.053 A 
HETATM    5  C   UNL     1       2.746  30.489  50.096  1.00  0.00     0.163 C 
HETATM    6  O   UNL     1       1.650  30.800  50.554  1.00  0.00    -0.292 OA
HETATM    7  C   UNL     1       3.141  30.796  48.668  1.00  0.00     0.093 C 
HETATM    8  C   UNL     1       4.218  29.833  48.134  1.00  0.00     0.031 C 
HETATM    9  C   UNL     1       5.424  29.867  49.093  1.00  0.00     0.070 C 
HETATM   10  C   UNL     1       3.505  29.579  52.285  1.00  0.00     0.153 A 
HETATM   11  N   UNL     1       4.426  29.026  53.108  1.00  0.00    -0.073 NA
ENDROOT
BRANCH   1  12
HETATM   12  N   UNL     1       6.554  28.223  53.469  1.00  0.00    -0.015 N 
HETATM   13  H   UNL     1       7.228  28.868  53.837  1.00  0.00     0.203 HD
BRANCH  12  14
HETATM   14  C   UNL     1       6.739  26.923  53.889  1.00  0.00     0.742 A 
HETATM   15  N   UNL     1       6.424  26.686  55.172  1.00  0.00    -0.066 NA
HETATM   16  C   UNL     1       6.599  25.433  55.649  1.00  0.00     0.062 A 
HETATM   17  C   UNL     1       6.221  25.230  57.087  1.00  0.00     0.072 C 
HETATM   18  C   UNL     1       7.101  24.390  54.863  1.00  0.00     0.018 A 
HETATM   19  C   UNL     1       7.397  24.744  53.545  1.00  0.00     0.088 A 
HETATM   20  C   UNL     1       7.321  23.058  55.298  1.00  0.00     0.016 A 
HETATM   21  N   UNL     1       7.217  25.979  53.070  1.00  0.00    -0.062 NA
HETATM   22  C   UNL     1       7.903  23.772  52.692  1.00  0.00     0.033 A 
HETATM   23  C   UNL     1       8.124  22.459  53.116  1.00  0.00     0.002 A 
HETATM   24  C   UNL     1       7.831  22.101  54.425  1.00  0.00     0.001 A 
ENDBRANCH  12  14
ENDBRANCH   1  12
BRANCH   8  25
HETATM   25  C   UNL     1       3.646  28.454  47.799  1.00  0.00    -0.053 A 
HETATM   26  C   UNL     1       4.478  27.327  47.937  1.00  0.00     0.007 A 
HETATM   27  C   UNL     1       4.016  26.043  47.636  1.00  0.00     0.001 A 
HETATM   28  C   UNL     1       2.710  25.858  47.202  1.00  0.00     0.000 A 
HETATM   29  C   UNL     1       1.863  26.955  47.079  1.00  0.00     0.001 A 
HETATM   30  C   UNL     1       2.324  28.241  47.380  1.00  0.00     0.007 A 
ENDBRANCH   8  25
TORSDOF 3
ENDMDL
MODEL 7
REMARK VINA RESULT:      -9.5      2.508      8.575
REMARK  3 active torsions:
REMARK  status: ('A' for Active; 'I' for Inactive)
REMARK    1  A    between atoms: C_4  and  N_5 
REMARK    2  A    between atoms: N_5  and  C_6 
REMARK    3  A    between atoms: C_13  and  C_14 
ROOT
HETATM    1  C   UNL     1       4.183  27.402  52.420  1.00  0.00     0.741 A 
HETATM    2  N   UNL     1       4.750  27.328  51.204  1.00  0.00    -0.066 NA
HETATM    3  C   UNL     1       4.627  28.382  50.367  1.00  0.00     0.069 A 
HETATM    4  C   UNL     1       3.959  29.527  50.728  1.00  0.00     0.053 A 
HETATM    5  C   UNL     1       3.844  30.673  49.818  1.00  0.00     0.163 C 
HETATM    6  O   UNL     1       3.302  31.706  50.202  1.00  0.00    -0.292 OA
HETATM    7  C   UNL     1       4.501  30.562  48.459  1.00  0.00     0.093 C 
HETATM    8  C   UNL     1       4.552  29.111  47.946  1.00  0.00     0.031 C 
HETATM    9  C   UNL     1       5.255  28.240  49.007  1.00  0.00     0.070 C 
HETATM   10  C   UNL     1       3.404  29.529  51.984  1.00  0.00     0.153 A 
HETATM   11  N   UNL     1       3.498  28.483  52.837  1.00  0.00    -0.073 NA
ENDROOT
BRANCH   1  12
HETATM   12  N   UNL     1       4.252  26.360  53.317  1.00  0.00    -0.015 N 
HETATM   13  H   UNL     1       3.360  25.995  53.593  1.00  0.00     0.203 HD
BRANCH  12  14
HETATM   14  C   UNL     1       5.320  25.757  53.947  1.00  0.00     0.742 A 
HETATM   15  N   UNL     1       5.876  24.734  53.278  1.00  0.00    -0.066 NA
HETATM   16  C   UNL     1       6.918  24.091  53.852  1.00  0.00     0.062 A 
HETATM   17  C   UNL     1       7.501  22.964  53.050  1.00  0.00     0.072 C 
HETATM   18  C   UNL     1       7.424  24.443  55.107  1.00  0.00     0.018 A 
HETATM   19  C   UNL     1       6.773  25.518  55.716  1.00  0.00     0.088 A 
HETATM   20  C   UNL     1       8.502  23.807  55.773  1.00  0.00     0.016 A 
HETATM   21  N   UNL     1       5.749  26.160  55.148  1.00  0.00    -0.062 NA
HETATM   22  C   UNL     1       7.206  25.936  56.968  1.00  0.00     0.033 A 
HETATM   23  C   UNL     1       8.267  25.312  57.629  1.00  0.00     0.002 A 
HETATM   24  C   UNL     1       8.918  24.243  57.028  1.00  0.00     0.001 A 
ENDBRANCH  12  14
ENDBRANCH   1  12
BRANCH   8  25
HETATM   25  C   UNL     1       3.190  28.624  47.452  1.00  0.00    -0.053 A 
HETATM   26  C   UNL     1       2.921  27.242  47.465  1.00  0.00     0.007 A 
HETATM   27  C   UNL     1       1.699  26.735  47.017  1.00  0.00     0.001 A 
HETATM   28  C   UNL     1       0.715  27.601  46.556  1.00  0.00     0.000 A 
HETATM   29  C   UNL     1       0.949  28.972  46.554  1.00  0.00     0.001 A 
HETATM   30  C   UNL     1       2.173  29.480  47.003  1.00  0.00     0.007 A 
ENDBRANCH   8  25
TORSDOF 3
ENDMDL
MODEL 8
REMARK VINA RESULT:      -9.3      3.738      7.097
REMARK  3 active torsions:
REMARK  status: ('A' for Active; 'I' for Inactive)
REMARK    1  A    between atoms: C_4  and  N_5 
REMARK    2  A    between atoms: N_5  and  C_6 
REMARK    3  A    between atoms: C_13  and  C_14 
ROOT
HETATM    1  C   UNL     1       5.370  28.885  54.387  1.00  0.00     0.741 A 
HETATM    2  N   UNL     1       6.550  28.369  54.003  1.00  0.00    -0.066 NA
HETATM    3  C   UNL     1       6.566  27.144  53.433  1.00  0.00     0.069 A 
HETATM    4  C   UNL     1       5.416  26.423  53.219  1.00  0.00     0.053 A 
HETATM    5  C   UNL     1       5.441  25.099  52.585  1.00  0.00     0.163 C 
HETATM    6  O   UNL     1       4.388  24.516  52.345  1.00  0.00    -0.292 OA
HETATM    7  C   UNL     1       6.785  24.550  52.155  1.00  0.00     0.093 C 
HETATM    8  C   UNL     1       7.939  25.056  53.040  1.00  0.00     0.031 C 
HETATM    9  C   UNL     1       7.914  26.597  53.045  1.00  0.00     0.070 C 
HETATM   10  C   UNL     1       4.250  27.012  53.640  1.00  0.00     0.153 A 
HETATM   11  N   UNL     1       4.205  28.231  54.227  1.00  0.00    -0.073 NA
ENDROOT
BRANCH   1  12
HETATM   12  N   UNL     1       5.281  30.119  54.991  1.00  0.00    -0.015 N 
HETATM   13  H   UNL     1       4.851  30.824  54.422  1.00  0.00     0.203 HD
BRANCH  12  14
HETATM   14  C   UNL     1       5.717  30.579  56.215  1.00  0.00     0.742 A 
HETATM   15  N   UNL     1       5.075  31.661  56.683  1.00  0.00    -0.066 NA
HETATM   16  C   UNL     1       5.469  32.170  57.871  1.00  0.00     0.062 A 
HETATM   17  C   UNL     1       4.706  33.374  58.344  1.00  0.00     0.072 C 
HETATM   18  C   UNL     1       6.516  31.621  58.619  1.00  0.00     0.018 A 
HETATM   19  C   UNL     1       7.116  30.500  58.041  1.00  0.00     0.088 A 
HETATM   20  C   UNL     1       6.989  32.108  59.863  1.00  0.00     0.016 A 
HETATM   21  N   UNL     1       6.723  29.990  56.871  1.00  0.00    -0.062 NA
HETATM   22  C   UNL     1       8.168  29.888  58.712  1.00  0.00     0.033 A 
HETATM   23  C   UNL     1       8.639  30.365  59.938  1.00  0.00     0.002 A 
HETATM   24  C   UNL     1       8.046  31.480  60.516  1.00  0.00     0.001 A 
ENDBRANCH  12  14
ENDBRANCH   1  12
BRANCH   8  25
HETATM   25  C   UNL     1       7.967  24.366  54.405  1.00  0.00    -0.053 A 
HETATM   26  C   UNL     1       7.991  22.960  54.449  1.00  0.00     0.007 A 
HETATM   27  C   UNL     1       8.007  22.272  55.665  1.00  0.00     0.001 A 
HETATM   28  C   UNL     1       8.009  22.976  56.863  1.00  0.00     0.000 A 
HETATM   29  C   UNL     1       8.008  24.367  56.843  1.00  0.00     0.001 A 
HETATM   30  C   UNL     1       7.992  25.057  55.626  1.00  0.00     0.007 A 
ENDBRANCH   8  25
TORSDOF 3
ENDMDL
MODEL 9
REMARK VINA RESULT:      -9.2      3.144      8.834
REMARK  3 active torsions:
REMARK  status: ('A' for Active; 'I' for Inactive)
REMARK    1  A    between atoms: C_4  and  N_5 
REMARK    2  A    between atoms: N_5  and  C_6 
REMARK    3  A    between atoms: C_13  and  C_14 
ROOT
HETATM    1  C   UNL     1       4.889  27.225  51.202  1.00  0.00     0.741 A 
HETATM    2  N   UNL     1       3.916  28.133  51.020  1.00  0.00    -0.066 NA
HETATM    3  C   UNL     1       3.253  28.145  49.843  1.00  0.00     0.069 A 
HETATM    4  C   UNL     1       3.530  27.248  48.840  1.00  0.00     0.053 A 
HETATM    5  C   UNL     1       2.794  27.258  47.570  1.00  0.00     0.163 C 
HETATM    6  O   UNL     1       3.020  26.395  46.726  1.00  0.00    -0.292 OA
HETATM    7  C   UNL     1       1.698  28.288  47.400  1.00  0.00     0.093 C 
HETATM    8  C   UNL     1       1.970  29.576  48.199  1.00  0.00     0.031 C 
HETATM    9  C   UNL     1       2.191  29.199  49.676  1.00  0.00     0.070 C 
HETATM   10  C   UNL     1       4.538  26.351  49.097  1.00  0.00     0.153 A 
HETATM   11  N   UNL     1       5.229  26.326  50.260  1.00  0.00    -0.073 NA
ENDROOT
BRANCH   1  12
HETATM   12  N   UNL     1       5.618  27.167  52.369  1.00  0.00    -0.015 N 
HETATM   13  H   UNL     1       5.932  28.058  52.702  1.00  0.00     0.203 HD
BRANCH  12  14
HETATM   14  C   UNL     1       6.041  26.103  53.138  1.00  0.00     0.742 A 
HETATM   15  N   UNL     1       5.657  26.139  54.424  1.00  0.00    -0.066 NA
HETATM   16  C   UNL     1       6.054  25.132  55.234  1.00  0.00     0.062 A 
HETATM   17  C   UNL     1       5.585  25.224  56.657  1.00  0.00     0.072 C 
HETATM   18  C   UNL     1       6.850  24.072  54.787  1.00  0.00     0.018 A 
HETATM   19  C   UNL     1       7.194  24.133  53.434  1.00  0.00     0.088 A 
HETATM   20  C   UNL     1       7.312  22.992  55.580  1.00  0.00     0.016 A 
HETATM   21  N   UNL     1       6.795  25.122  52.631  1.00  0.00    -0.062 NA
HETATM   22  C   UNL     1       7.985  23.123  52.903  1.00  0.00     0.033 A 
HETATM   23  C   UNL     1       8.445  22.058  53.680  1.00  0.00     0.002 A 
HETATM   24  C   UNL     1       8.107  21.992  55.026  1.00  0.00     0.001 A 
ENDBRANCH  12  14
ENDBRANCH   1  12
BRANCH   8  25
HETATM   25  C   UNL     1       3.045  30.446  47.544  1.00  0.00    -0.053 A 
HETATM   26  C   UNL     1       3.047  30.575  46.143  1.00  0.00     0.007 A 
HETATM   27  C   UNL     1       4.009  31.347  45.486  1.00  0.00     0.001 A 
HETATM   28  C   UNL     1       4.983  32.015  46.218  1.00  0.00     0.000 A 
HETATM   29  C   UNL     1       4.986  31.920  47.606  1.00  0.00     0.001 A 
HETATM   30  C   UNL     1       4.024  31.147  48.264  1.00  0.00     0.007 A 
ENDBRANCH   8  25
TORSDOF 3
ENDMDL
MODEL 10
REMARK VINA RESULT:      -9.1      3.502      7.393
REMARK  3 active torsions:
REMARK  status: ('A' for Active; 'I' for Inactive)
REMARK    1  A    between atoms: C_4  and  N_5 
REMARK    2  A    between atoms: N_5  and  C_6 
REMARK    3  A    between atoms: C_13  and  C_14 
ROOT
HETATM    1  C   UNL     1       6.064  26.749  53.334  1.00  0.00     0.741 A 
HETATM    2  N   UNL     1       5.429  26.797  54.517  1.00  0.00    -0.066 NA
HETATM    3  C   UNL     1       4.873  27.965  54.907  1.00  0.00     0.069 A 
HETATM    4  C   UNL     1       4.923  29.094  54.126  1.00  0.00     0.053 A 
HETATM    5  C   UNL     1       4.302  30.355  54.550  1.00  0.00     0.163 C 
HETATM    6  O   UNL     1       4.304  31.322  53.794  1.00  0.00    -0.292 OA
HETATM    7  C   UNL     1       3.586  30.373  55.884  1.00  0.00     0.093 C 
HETATM    8  C   UNL     1       4.191  29.377  56.891  1.00  0.00     0.031 C 
HETATM    9  C   UNL     1       4.197  27.975  56.252  1.00  0.00     0.070 C 
HETATM   10  C   UNL     1       5.590  28.970  52.932  1.00  0.00     0.153 A 
HETATM   11  N   UNL     1       6.169  27.818  52.523  1.00  0.00    -0.073 NA
ENDROOT
BRANCH   1  12
HETATM   12  N   UNL     1       6.669  25.598  52.881  1.00  0.00    -0.015 N 
HETATM   13  H   UNL     1       6.665  25.497  51.884  1.00  0.00     0.203 HD
BRANCH  12  14
HETATM   14  C   UNL     1       7.236  24.532  53.547  1.00  0.00     0.742 A 
HETATM   15  N   UNL     1       7.721  24.812  54.768  1.00  0.00    -0.066 NA
HETATM   16  C   UNL     1       8.304  23.812  55.465  1.00  0.00     0.062 A 
HETATM   17  C   UNL     1       8.819  24.186  56.824  1.00  0.00     0.072 C 
HETATM   18  C   UNL     1       8.427  22.512  54.962  1.00  0.00     0.018 A 
HETATM   19  C   UNL     1       7.890  22.330  53.685  1.00  0.00     0.088 A 
HETATM   20  C   UNL     1       9.035  21.420  55.630  1.00  0.00     0.016 A 
HETATM   21  N   UNL     1       7.306  23.315  52.998  1.00  0.00    -0.062 NA
HETATM   22  C   UNL     1       7.969  21.071  53.103  1.00  0.00     0.033 A 
HETATM   23  C   UNL     1       8.569  19.991  53.757  1.00  0.00     0.002 A 
HETATM   24  C   UNL     1       9.104  20.167  55.026  1.00  0.00     0.001 A 
ENDBRANCH  12  14
ENDBRANCH   1  12
BRANCH   8  25
HETATM   25  C   UNL     1       5.518  29.873  57.469  1.00  0.00    -0.053 A 
HETATM   26  C   UNL     1       5.584  31.184  57.979  1.00  0.00     0.007 A 
HETATM   27  C   UNL     1       6.769  31.697  58.509  1.00  0.00     0.001 A 
HETATM   28  C   UNL     1       7.912  30.908  58.552  1.00  0.00     0.000 A 
HETATM   29  C   UNL     1       7.864  29.602  58.075  1.00  0.00     0.001 A 
HETATM   30  C   UNL     1       6.677  29.087  57.543  1.00  0.00     0.007 A 
ENDBRANCH   8  25
TORSDOF 3
ENDMDL
