MODEL 1
REMARK VINA RESULT:      -8.8      0.000      0.000
REMARK  8 active torsions:
REMARK  status: ('A' for Active; 'I' for Inactive)
REMARK    1  A    between atoms: C_2  and  N_3 
REMARK    2  A    between atoms: C_2  and  C_17 
REMARK    3  A    between atoms: N_3  and  N_4 
REMARK       I    between atoms: N_4  and  C_5 
REMARK    4  A    between atoms: C_5  and  C_6 
REMARK    5  A    between atoms: C_6  and  N_7 
REMARK    6  A    between atoms: N_7  and  C_8 
REMARK    7  A    between atoms: C_9  and  O_10 
REMARK       I    between atoms: C_17  and  N_18 
REMARK    8  A    between atoms: N_18  and  C_19 
ROOT
HETATM    1  N   UNL     1       7.977  29.286  59.107  1.00  0.00    -0.225 NA
HETATM    2  H   UNL     1       7.097  29.763  59.357  1.00  0.00     0.147 HD
ENDROOT
BRANCH   1   3
HETATM    3  C   UNL     1       9.065  30.290  59.325  1.00  0.00     0.165 C 
HETATM    4  C   UNL     1       9.551  30.786  57.967  1.00  0.00     0.038 C 
BRANCH   3   5
HETATM    5  C   UNL     1       8.562  31.488  60.152  1.00  0.00     0.241 C 
HETATM    6  N   UNL     1       7.776  31.107  61.227  1.00  0.00    -0.326 N 
HETATM    7  H   UNL     1       7.700  30.098  61.331  1.00  0.00     0.169 HD
HETATM    8  O   UNL     1       8.823  32.640  59.818  1.00  0.00    -0.271 OA
BRANCH   6   9
HETATM    9  C   UNL     1       7.222  31.917  62.231  1.00  0.00     0.036 A 
HETATM   10  C   UNL     1       5.893  32.349  62.239  1.00  0.00     0.053 A 
HETATM   11  C   UNL     1       5.436  33.180  63.262  1.00  0.00     0.036 A 
HETATM   12 CL   UNL     1       3.801  33.718  63.261  1.00  0.00    -0.084 Cl
HETATM   13  C   UNL     1       6.290  33.586  64.285  1.00  0.00     0.024 A 
HETATM   14  C   UNL     1       7.613  33.153  64.289  1.00  0.00     0.004 A 
HETATM   15  C   UNL     1       8.075  32.320  63.267  1.00  0.00     0.029 A 
ENDBRANCH   6   9
ENDBRANCH   3   5
ENDBRANCH   1   3
BRANCH   1  16
HETATM   16  N   UNL     1       7.861  28.947  57.726  1.00  0.00    -0.290 N 
HETATM   17  C   UNL     1       7.788  27.605  57.360  1.00  0.00     0.245 C 
HETATM   18  O   UNL     1       7.759  26.688  58.181  1.00  0.00    -0.271 OA
HETATM   19  H   UNL     1       8.216  29.603  57.032  1.00  0.00     0.183 HD
BRANCH  17  20
HETATM   20  C   UNL     1       7.826  27.373  55.849  1.00  0.00     0.196 C 
BRANCH  20  21
HETATM   21  N   UNL     1       6.753  26.433  55.483  1.00  0.00    -0.282 NA
HETATM   22  H   UNL     1       6.003  26.963  55.016  1.00  0.00     0.128 HD
BRANCH  21  23
HETATM   23  C   UNL     1       7.205  25.507  54.498  1.00  0.00     0.042 A 
HETATM   24  C   UNL     1       7.392  24.151  54.847  1.00  0.00     0.089 A 
HETATM   25  C   UNL     1       7.796  23.235  53.875  1.00  0.00     0.038 A 
HETATM   26  C   UNL     1       8.005  23.659  52.560  1.00  0.00     0.003 A 
HETATM   27  C   UNL     1       7.811  24.996  52.211  1.00  0.00     0.002 A 
HETATM   28  C   UNL     1       7.407  25.919  53.177  1.00  0.00     0.026 A 
BRANCH  24  29
HETATM   29  O   UNL     1       7.144  23.858  56.167  1.00  0.00    -0.354 OA
HETATM   30  C   UNL     1       8.250  23.435  56.953  1.00  0.00     0.210 C 
ENDBRANCH  24  29
ENDBRANCH  21  23
ENDBRANCH  20  21
ENDBRANCH  17  20
ENDBRANCH   1  16
TORSDOF 8
ENDMDL
MODEL 2
REMARK VINA RESULT:      -8.8      3.302     10.464
REMARK  8 active torsions:
REMARK  status: ('A' for Active; 'I' for Inactive)
REMARK    1  A    between atoms: C_2  and  N_3 
REMARK    2  A    between atoms: C_2  and  C_17 
REMARK    3  A    between atoms: N_3  and  N_4 
REMARK       I    between atoms: N_4  and  C_5 
REMARK    4  A    between atoms: C_5  and  C_6 
REMARK    5  A    between atoms: C_6  and  N_7 
REMARK    6  A    between atoms: N_7  and  C_8 
REMARK    7  A    between atoms: C_9  and  O_10 
REMARK       I    between atoms: C_17  and  N_18 
REMARK    8  A    between atoms: N_18  and  C_19 
ROOT
HETATM    1  N   UNL     1       8.228  29.456  57.988  1.00  0.00    -0.225 NA
HETATM    2  H   UNL     1       8.075  30.354  57.503  1.00  0.00     0.147 HD
ENDROOT
BRANCH   1   3
HETATM    3  C   UNL     1       7.122  28.554  57.539  1.00  0.00     0.165 C 
HETATM    4  C   UNL     1       6.262  29.302  56.525  1.00  0.00     0.038 C 
BRANCH   3   5
HETATM    5  C   UNL     1       7.677  27.273  56.886  1.00  0.00     0.241 C 
HETATM    6  N   UNL     1       7.005  26.928  55.725  1.00  0.00    -0.326 N 
HETATM    7  H   UNL     1       6.290  27.600  55.459  1.00  0.00     0.169 HD
HETATM    8  O   UNL     1       8.589  26.641  57.411  1.00  0.00    -0.271 OA
BRANCH   6   9
HETATM    9  C   UNL     1       7.288  25.880  54.834  1.00  0.00     0.036 A 
HETATM   10  C   UNL     1       7.308  24.532  55.198  1.00  0.00     0.053 A 
HETATM   11  C   UNL     1       7.632  23.559  54.251  1.00  0.00     0.036 A 
HETATM   12 CL   UNL     1       7.665  21.899  54.707  1.00  0.00    -0.084 Cl
HETATM   13  C   UNL     1       7.936  23.914  52.939  1.00  0.00     0.024 A 
HETATM   14  C   UNL     1       7.910  25.256  52.567  1.00  0.00     0.004 A 
HETATM   15  C   UNL     1       7.585  26.234  53.510  1.00  0.00     0.029 A 
ENDBRANCH   6   9
ENDBRANCH   3   5
ENDBRANCH   1   3
BRANCH   1  16
HETATM   16  N   UNL     1       8.124  29.741  59.381  1.00  0.00    -0.290 N 
HETATM   17  C   UNL     1       8.137  31.068  59.806  1.00  0.00     0.245 C 
HETATM   18  O   UNL     1       8.173  32.019  59.026  1.00  0.00    -0.271 OA
HETATM   19  H   UNL     1       8.431  29.034  60.048  1.00  0.00     0.183 HD
BRANCH  17  20
HETATM   20  C   UNL     1       8.178  31.231  61.326  1.00  0.00     0.196 C 
BRANCH  20  21
HETATM   21  N   UNL     1       6.799  31.225  61.844  1.00  0.00    -0.282 NA
HETATM   22  H   UNL     1       6.607  30.295  62.244  1.00  0.00     0.128 HD
BRANCH  21  23
HETATM   23  C   UNL     1       6.668  32.122  62.944  1.00  0.00     0.042 A 
HETATM   24  C   UNL     1       5.385  32.412  63.461  1.00  0.00     0.089 A 
HETATM   25  C   UNL     1       5.257  33.258  64.562  1.00  0.00     0.038 A 
HETATM   26  C   UNL     1       6.396  33.807  65.157  1.00  0.00     0.003 A 
HETATM   27  C   UNL     1       7.664  33.514  64.655  1.00  0.00     0.002 A 
HETATM   28  C   UNL     1       7.802  32.670  63.553  1.00  0.00     0.026 A 
BRANCH  24  29
HETATM   29  O   UNL     1       4.348  31.801  62.796  1.00  0.00    -0.354 OA
HETATM   30  C   UNL     1       3.553  32.622  61.951  1.00  0.00     0.210 C 
ENDBRANCH  24  29
ENDBRANCH  21  23
ENDBRANCH  20  21
ENDBRANCH  17  20
ENDBRANCH   1  16
TORSDOF 8
ENDMDL
MODEL 3
REMARK VINA RESULT:      -8.8      3.760      9.565
REMARK  8 active torsions:
REMARK  status: ('A' for Active; 'I' for Inactive)
REMARK    1  A    between atoms: C_2  and  N_3 
REMARK    2  A    between atoms: C_2  and  C_17 
REMARK    3  A    between atoms: N_3  and  N_4 
REMARK       I    between atoms: N_4  and  C_5 
REMARK    4  A    between atoms: C_5  and  C_6 
REMARK    5  A    between atoms: C_6  and  N_7 
REMARK    6  A    between atoms: N_7  and  C_8 
REMARK    7  A    between atoms: C_9  and  O_10 
REMARK       I    between atoms: C_17  and  N_18 
REMARK    8  A    between atoms: N_18  and  C_19 
ROOT
HETATM    1  N   UNL     1       4.790  27.179  54.951  1.00  0.00    -0.225 NA
HETATM    2  H   UNL     1       4.400  26.314  55.356  1.00  0.00     0.147 HD
ENDROOT
BRANCH   1   3
HETATM    3  C   UNL     1       5.293  26.804  53.592  1.00  0.00     0.165 C 
HETATM    4  C   UNL     1       6.627  27.504  53.355  1.00  0.00     0.038 C 
BRANCH   3   5
HETATM    5  C   UNL     1       5.491  25.281  53.471  1.00  0.00     0.241 C 
HETATM    6  N   UNL     1       6.728  24.862  53.932  1.00  0.00    -0.326 N 
HETATM    7  H   UNL     1       7.286  25.615  54.324  1.00  0.00     0.169 HD
HETATM    8  O   UNL     1       4.627  24.570  52.966  1.00  0.00    -0.271 OA
BRANCH   6   9
HETATM    9  C   UNL     1       7.215  23.550  54.049  1.00  0.00     0.036 A 
HETATM   10  C   UNL     1       7.364  22.880  55.265  1.00  0.00     0.053 A 
HETATM   11  C   UNL     1       7.888  21.586  55.289  1.00  0.00     0.036 A 
HETATM   12 CL   UNL     1       8.080  20.769  56.792  1.00  0.00    -0.084 Cl
HETATM   13  C   UNL     1       8.266  20.949  54.109  1.00  0.00     0.024 A 
HETATM   14  C   UNL     1       8.112  21.608  52.892  1.00  0.00     0.004 A 
HETATM   15  C   UNL     1       7.587  22.902  52.863  1.00  0.00     0.029 A 
ENDBRANCH   6   9
ENDBRANCH   3   5
ENDBRANCH   1   3
BRANCH   1  16
HETATM   16  N   UNL     1       5.864  27.564  55.807  1.00  0.00    -0.290 N 
HETATM   17  C   UNL     1       6.288  26.684  56.800  1.00  0.00     0.245 C 
HETATM   18  O   UNL     1       5.819  25.556  56.940  1.00  0.00    -0.271 OA
HETATM   19  H   UNL     1       6.036  28.557  55.956  1.00  0.00     0.183 HD
BRANCH  17  20
HETATM   20  C   UNL     1       7.335  27.278  57.745  1.00  0.00     0.196 C 
BRANCH  20  21
HETATM   21  N   UNL     1       7.154  28.738  57.801  1.00  0.00    -0.282 NA
HETATM   22  H   UNL     1       6.817  28.987  58.742  1.00  0.00     0.128 HD
BRANCH  21  23
HETATM   23  C   UNL     1       8.406  29.409  57.680  1.00  0.00     0.042 A 
HETATM   24  C   UNL     1       8.731  30.451  58.577  1.00  0.00     0.089 A 
HETATM   25  C   UNL     1       9.971  31.082  58.486  1.00  0.00     0.038 A 
HETATM   26  C   UNL     1      10.891  30.676  57.515  1.00  0.00     0.003 A 
HETATM   27  C   UNL     1      10.576  29.641  56.634  1.00  0.00     0.002 A 
HETATM   28  C   UNL     1       9.337  29.005  56.718  1.00  0.00     0.026 A 
BRANCH  24  29
HETATM   29  O   UNL     1       7.748  30.748  59.492  1.00  0.00    -0.354 OA
HETATM   30  C   UNL     1       8.173  31.198  60.771  1.00  0.00     0.210 C 
ENDBRANCH  24  29
ENDBRANCH  21  23
ENDBRANCH  20  21
ENDBRANCH  17  20
ENDBRANCH   1  16
TORSDOF 8
ENDMDL
MODEL 4
REMARK VINA RESULT:      -8.8      1.967      2.779
REMARK  8 active torsions:
REMARK  status: ('A' for Active; 'I' for Inactive)
REMARK    1  A    between atoms: C_2  and  N_3 
REMARK    2  A    between atoms: C_2  and  C_17 
REMARK    3  A    between atoms: N_3  and  N_4 
REMARK       I    between atoms: N_4  and  C_5 
REMARK    4  A    between atoms: C_5  and  C_6 
REMARK    5  A    between atoms: C_6  and  N_7 
REMARK    6  A    between atoms: N_7  and  C_8 
REMARK    7  A    between atoms: C_9  and  O_10 
REMARK       I    between atoms: C_17  and  N_18 
REMARK    8  A    between atoms: N_18  and  C_19 
ROOT
HETATM    1  N   UNL     1       8.416  29.548  55.465  1.00  0.00    -0.225 NA
HETATM    2  H   UNL     1       8.949  30.325  55.044  1.00  0.00     0.147 HD
ENDROOT
BRANCH   1   3
HETATM    3  C   UNL     1       9.261  29.032  56.588  1.00  0.00     0.165 C 
HETATM    4  C   UNL     1      10.598  29.766  56.570  1.00  0.00     0.038 C 
BRANCH   3   5
HETATM    5  C   UNL     1       8.577  29.258  57.950  1.00  0.00     0.241 C 
HETATM    6  N   UNL     1       9.001  30.417  58.578  1.00  0.00    -0.326 N 
HETATM    7  H   UNL     1       9.654  30.960  58.020  1.00  0.00     0.169 HD
HETATM    8  O   UNL     1       7.782  28.438  58.401  1.00  0.00    -0.271 OA
BRANCH   6   9
HETATM    9  C   UNL     1       8.537  30.975  59.780  1.00  0.00     0.036 A 
HETATM   10  C   UNL     1       7.454  31.853  59.865  1.00  0.00     0.053 A 
HETATM   11  C   UNL     1       7.082  32.385  61.101  1.00  0.00     0.036 A 
HETATM   12 CL   UNL     1       5.753  33.474  61.199  1.00  0.00    -0.084 Cl
HETATM   13  C   UNL     1       7.780  32.050  62.259  1.00  0.00     0.024 A 
HETATM   14  C   UNL     1       8.857  31.170  62.184  1.00  0.00     0.004 A 
HETATM   15  C   UNL     1       9.231  30.633  60.949  1.00  0.00     0.029 A 
ENDBRANCH   6   9
ENDBRANCH   3   5
ENDBRANCH   1   3
BRANCH   1  16
HETATM   16  N   UNL     1       8.275  28.568  54.438  1.00  0.00    -0.290 N 
HETATM   17  C   UNL     1       7.135  27.768  54.415  1.00  0.00     0.245 C 
HETATM   18  O   UNL     1       6.205  27.906  55.210  1.00  0.00    -0.271 OA
HETATM   19  H   UNL     1       9.117  28.195  54.001  1.00  0.00     0.183 HD
BRANCH  17  20
HETATM   20  C   UNL     1       7.179  26.658  53.364  1.00  0.00     0.196 C 
BRANCH  20  21
HETATM   21  N   UNL     1       6.212  25.611  53.735  1.00  0.00    -0.282 NA
HETATM   22  H   UNL     1       5.587  25.448  52.932  1.00  0.00     0.128 HD
BRANCH  21  23
HETATM   23  C   UNL     1       6.869  24.362  53.935  1.00  0.00     0.042 A 
HETATM   24  C   UNL     1       6.949  23.815  55.236  1.00  0.00     0.089 A 
HETATM   25  C   UNL     1       7.557  22.575  55.430  1.00  0.00     0.038 A 
HETATM   26  C   UNL     1       8.075  21.873  54.337  1.00  0.00     0.003 A 
HETATM   27  C   UNL     1       7.988  22.407  53.051  1.00  0.00     0.002 A 
HETATM   28  C   UNL     1       7.383  23.648  52.849  1.00  0.00     0.026 A 
BRANCH  24  29
HETATM   29  O   UNL     1       6.393  24.596  56.222  1.00  0.00    -0.354 OA
HETATM   30  C   UNL     1       7.282  25.151  57.182  1.00  0.00     0.210 C 
ENDBRANCH  24  29
ENDBRANCH  21  23
ENDBRANCH  20  21
ENDBRANCH  17  20
ENDBRANCH   1  16
TORSDOF 8
ENDMDL
MODEL 5
REMARK VINA RESULT:      -8.7      3.275     10.130
REMARK  8 active torsions:
REMARK  status: ('A' for Active; 'I' for Inactive)
REMARK    1  A    between atoms: C_2  and  N_3 
REMARK    2  A    between atoms: C_2  and  C_17 
REMARK    3  A    between atoms: N_3  and  N_4 
REMARK       I    between atoms: N_4  and  C_5 
REMARK    4  A    between atoms: C_5  and  C_6 
REMARK    5  A    between atoms: C_6  and  N_7 
REMARK    6  A    between atoms: N_7  and  C_8 
REMARK    7  A    between atoms: C_9  and  O_10 
REMARK       I    between atoms: C_17  and  N_18 
REMARK    8  A    between atoms: N_18  and  C_19 
ROOT
HETATM    1  N   UNL     1       8.708  29.636  58.961  1.00  0.00    -0.225 NA
HETATM    2  H   UNL     1       9.554  30.218  59.064  1.00  0.00     0.147 HD
ENDROOT
BRANCH   1   3
HETATM    3  C   UNL     1       8.533  29.425  57.489  1.00  0.00     0.165 C 
HETATM    4  C   UNL     1       9.904  29.472  56.822  1.00  0.00     0.038 C 
BRANCH   3   5
HETATM    5  C   UNL     1       7.872  28.065  57.195  1.00  0.00     0.241 C 
HETATM    6  N   UNL     1       7.479  27.933  55.874  1.00  0.00    -0.326 N 
HETATM    7  H   UNL     1       7.735  28.730  55.297  1.00  0.00     0.169 HD
HETATM    8  O   UNL     1       7.696  27.242  58.089  1.00  0.00    -0.271 OA
BRANCH   6   9
HETATM    9  C   UNL     1       6.924  26.811  55.238  1.00  0.00     0.036 A 
HETATM   10  C   UNL     1       7.429  25.514  55.365  1.00  0.00     0.053 A 
HETATM   11  C   UNL     1       6.832  24.462  54.670  1.00  0.00     0.036 A 
HETATM   12 CL   UNL     1       7.464  22.868  54.822  1.00  0.00    -0.084 Cl
HETATM   13  C   UNL     1       5.732  24.686  53.845  1.00  0.00     0.024 A 
HETATM   14  C   UNL     1       5.218  25.975  53.720  1.00  0.00     0.004 A 
HETATM   15  C   UNL     1       5.811  27.031  54.415  1.00  0.00     0.029 A 
ENDBRANCH   6   9
ENDBRANCH   3   5
ENDBRANCH   1   3
BRANCH   1  16
HETATM   16  N   UNL     1       7.635  30.405  59.500  1.00  0.00    -0.290 N 
HETATM   17  C   UNL     1       7.773  31.788  59.597  1.00  0.00     0.245 C 
HETATM   18  O   UNL     1       8.762  32.393  59.182  1.00  0.00    -0.271 OA
HETATM   19  H   UNL     1       6.986  29.954  60.143  1.00  0.00     0.183 HD
BRANCH  17  20
HETATM   20  C   UNL     1       6.622  32.474  60.334  1.00  0.00     0.196 C 
BRANCH  20  21
HETATM   21  N   UNL     1       6.219  31.637  61.476  1.00  0.00    -0.282 NA
HETATM   22  H   UNL     1       6.883  30.852  61.552  1.00  0.00     0.128 HD
BRANCH  21  23
HETATM   23  C   UNL     1       6.364  32.348  62.703  1.00  0.00     0.042 A 
HETATM   24  C   UNL     1       5.214  32.724  63.433  1.00  0.00     0.089 A 
HETATM   25  C   UNL     1       5.354  33.386  64.653  1.00  0.00     0.038 A 
HETATM   26  C   UNL     1       6.628  33.666  65.153  1.00  0.00     0.003 A 
HETATM   27  C   UNL     1       7.765  33.287  64.438  1.00  0.00     0.002 A 
HETATM   28  C   UNL     1       7.635  32.625  63.216  1.00  0.00     0.026 A 
BRANCH  24  29
HETATM   29  O   UNL     1       4.021  32.382  62.841  1.00  0.00    -0.354 OA
HETATM   30  C   UNL     1       3.196  33.448  62.391  1.00  0.00     0.210 C 
ENDBRANCH  24  29
ENDBRANCH  21  23
ENDBRANCH  20  21
ENDBRANCH  17  20
ENDBRANCH   1  16
TORSDOF 8
ENDMDL
MODEL 6
REMARK VINA RESULT:      -8.6      3.761      5.312
REMARK  8 active torsions:
REMARK  status: ('A' for Active; 'I' for Inactive)
REMARK    1  A    between atoms: C_2  and  N_3 
REMARK    2  A    between atoms: C_2  and  C_17 
REMARK    3  A    between atoms: N_3  and  N_4 
REMARK       I    between atoms: N_4  and  C_5 
REMARK    4  A    between atoms: C_5  and  C_6 
REMARK    5  A    between atoms: C_6  and  N_7 
REMARK    6  A    between atoms: N_7  and  C_8 
REMARK    7  A    between atoms: C_9  and  O_10 
REMARK       I    between atoms: C_17  and  N_18 
REMARK    8  A    between atoms: N_18  and  C_19 
ROOT
HETATM    1  N   UNL     1       4.468  27.235  54.755  1.00  0.00    -0.225 NA
HETATM    2  H   UNL     1       4.879  27.941  54.125  1.00  0.00     0.147 HD
ENDROOT
BRANCH   1   3
HETATM    3  C   UNL     1       4.848  27.652  56.142  1.00  0.00     0.165 C 
HETATM    4  C   UNL     1       5.092  26.399  56.978  1.00  0.00     0.038 C 
BRANCH   3   5
HETATM    5  C   UNL     1       6.125  28.513  56.135  1.00  0.00     0.241 C 
HETATM    6  N   UNL     1       6.472  28.971  57.396  1.00  0.00    -0.326 N 
HETATM    7  H   UNL     1       5.861  28.624  58.130  1.00  0.00     0.169 HD
HETATM    8  O   UNL     1       6.707  28.773  55.085  1.00  0.00    -0.271 OA
BRANCH   6   9
HETATM    9  C   UNL     1       7.606  29.706  57.774  1.00  0.00     0.036 A 
HETATM   10  C   UNL     1       8.901  29.421  57.335  1.00  0.00     0.053 A 
HETATM   11  C   UNL     1       9.976  30.187  57.790  1.00  0.00     0.036 A 
HETATM   12 CL   UNL     1      11.572  29.824  57.255  1.00  0.00    -0.084 Cl
HETATM   13  C   UNL     1       9.775  31.239  58.680  1.00  0.00     0.024 A 
HETATM   14  C   UNL     1       8.485  31.535  59.115  1.00  0.00     0.004 A 
HETATM   15  C   UNL     1       7.406  30.772  58.662  1.00  0.00     0.029 A 
ENDBRANCH   6   9
ENDBRANCH   3   5
ENDBRANCH   1   3
BRANCH   1  16
HETATM   16  N   UNL     1       5.081  25.995  54.406  1.00  0.00    -0.290 N 
HETATM   17  C   UNL     1       5.774  25.896  53.202  1.00  0.00     0.245 C 
HETATM   18  O   UNL     1       5.937  26.851  52.443  1.00  0.00    -0.271 OA
HETATM   19  H   UNL     1       4.700  25.136  54.799  1.00  0.00     0.183 HD
BRANCH  17  20
HETATM   20  C   UNL     1       6.246  24.478  52.875  1.00  0.00     0.196 C 
BRANCH  20  21
HETATM   21  N   UNL     1       7.598  24.286  53.425  1.00  0.00    -0.282 NA
HETATM   22  H   UNL     1       7.695  24.880  54.261  1.00  0.00     0.128 HD
BRANCH  21  23
HETATM   23  C   UNL     1       7.763  22.956  53.911  1.00  0.00     0.042 A 
HETATM   24  C   UNL     1       7.665  22.701  55.297  1.00  0.00     0.089 A 
HETATM   25  C   UNL     1       7.787  21.395  55.771  1.00  0.00     0.038 A 
HETATM   26  C   UNL     1       7.996  20.343  54.874  1.00  0.00     0.003 A 
HETATM   27  C   UNL     1       8.083  20.592  53.504  1.00  0.00     0.002 A 
HETATM   28  C   UNL     1       7.963  21.896  53.021  1.00  0.00     0.026 A 
BRANCH  24  29
HETATM   29  O   UNL     1       7.447  23.815  56.072  1.00  0.00    -0.354 OA
HETATM   30  C   UNL     1       8.440  24.132  57.038  1.00  0.00     0.210 C 
ENDBRANCH  24  29
ENDBRANCH  21  23
ENDBRANCH  20  21
ENDBRANCH  17  20
ENDBRANCH   1  16
TORSDOF 8
ENDMDL
MODEL 7
REMARK VINA RESULT:      -8.6      3.607      9.786
REMARK  8 active torsions:
REMARK  status: ('A' for Active; 'I' for Inactive)
REMARK    1  A    between atoms: C_2  and  N_3 
REMARK    2  A    between atoms: C_2  and  C_17 
REMARK    3  A    between atoms: N_3  and  N_4 
REMARK       I    between atoms: N_4  and  C_5 
REMARK    4  A    between atoms: C_5  and  C_6 
REMARK    5  A    between atoms: C_6  and  N_7 
REMARK    6  A    between atoms: N_7  and  C_8 
REMARK    7  A    between atoms: C_9  and  O_10 
REMARK       I    between atoms: C_17  and  N_18 
REMARK    8  A    between atoms: N_18  and  C_19 
ROOT
HETATM    1  N   UNL     1       7.377  29.168  56.117  1.00  0.00    -0.225 NA
HETATM    2  H   UNL     1       6.789  29.920  55.727  1.00  0.00     0.147 HD
ENDROOT
BRANCH   1   3
HETATM    3  C   UNL     1       6.429  28.112  56.594  1.00  0.00     0.165 C 
HETATM    4  C   UNL     1       5.071  28.756  56.854  1.00  0.00     0.038 C 
BRANCH   3   5
HETATM    5  C   UNL     1       6.267  26.994  55.546  1.00  0.00     0.241 C 
HETATM    6  N   UNL     1       7.360  26.145  55.493  1.00  0.00    -0.326 N 
HETATM    7  H   UNL     1       8.071  26.361  56.186  1.00  0.00     0.169 HD
HETATM    8  O   UNL     1       5.271  26.939  54.830  1.00  0.00    -0.271 OA
BRANCH   6   9
HETATM    9  C   UNL     1       7.522  24.981  54.723  1.00  0.00     0.036 A 
HETATM   10  C   UNL     1       7.470  23.687  55.246  1.00  0.00     0.053 A 
HETATM   11  C   UNL     1       7.675  22.588  54.411  1.00  0.00     0.036 A 
HETATM   12 CL   UNL     1       7.621  20.996  55.063  1.00  0.00    -0.084 Cl
HETATM   13  C   UNL     1       7.931  22.764  53.053  1.00  0.00     0.024 A 
HETATM   14  C   UNL     1       7.976  24.051  52.522  1.00  0.00     0.004 A 
HETATM   15  C   UNL     1       7.770  25.154  53.355  1.00  0.00     0.029 A 
ENDBRANCH   6   9
ENDBRANCH   3   5
ENDBRANCH   1   3
BRANCH   1  16
HETATM   16  N   UNL     1       8.086  29.751  57.209  1.00  0.00    -0.290 N 
HETATM   17  C   UNL     1       9.418  30.119  57.034  1.00  0.00     0.245 C 
HETATM   18  O   UNL     1      10.003  30.021  55.956  1.00  0.00    -0.271 OA
HETATM   19  H   UNL     1       7.780  29.539  58.157  1.00  0.00     0.183 HD
BRANCH  17  20
HETATM   20  C   UNL     1      10.105  30.583  58.319  1.00  0.00     0.196 C 
BRANCH  20  21
HETATM   21  N   UNL     1       9.680  31.961  58.617  1.00  0.00    -0.282 NA
HETATM   22  H   UNL     1       8.988  32.247  57.909  1.00  0.00     0.128 HD
BRANCH  21  23
HETATM   23  C   UNL     1       8.970  32.016  59.852  1.00  0.00     0.042 A 
HETATM   24  C   UNL     1       7.564  32.159  59.845  1.00  0.00     0.089 A 
HETATM   25  C   UNL     1       6.864  32.173  61.051  1.00  0.00     0.038 A 
HETATM   26  C   UNL     1       7.552  32.038  62.260  1.00  0.00     0.003 A 
HETATM   27  C   UNL     1       8.939  31.887  62.269  1.00  0.00     0.002 A 
HETATM   28  C   UNL     1       9.648  31.872  61.067  1.00  0.00     0.026 A 
BRANCH  24  29
HETATM   29  O   UNL     1       7.005  32.271  58.594  1.00  0.00    -0.354 OA
HETATM   30  C   UNL     1       5.608  32.031  58.489  1.00  0.00     0.210 C 
ENDBRANCH  24  29
ENDBRANCH  21  23
ENDBRANCH  20  21
ENDBRANCH  17  20
ENDBRANCH   1  16
TORSDOF 8
ENDMDL
MODEL 8
REMARK VINA RESULT:      -8.6      1.450      2.036
REMARK  8 active torsions:
REMARK  status: ('A' for Active; 'I' for Inactive)
REMARK    1  A    between atoms: C_2  and  N_3 
REMARK    2  A    between atoms: C_2  and  C_17 
REMARK    3  A    between atoms: N_3  and  N_4 
REMARK       I    between atoms: N_4  and  C_5 
REMARK    4  A    between atoms: C_5  and  C_6 
REMARK    5  A    between atoms: C_6  and  N_7 
REMARK    6  A    between atoms: N_7  and  C_8 
REMARK    7  A    between atoms: C_9  and  O_10 
REMARK       I    between atoms: C_17  and  N_18 
REMARK    8  A    between atoms: N_18  and  C_19 
ROOT
HETATM    1  N   UNL     1       8.457  29.325  57.653  1.00  0.00    -0.225 NA
HETATM    2  H   UNL     1       8.268  29.777  56.745  1.00  0.00     0.147 HD
ENDROOT
BRANCH   1   3
HETATM    3  C   UNL     1       9.676  30.001  58.200  1.00  0.00     0.165 C 
HETATM    4  C   UNL     1      10.541  30.468  57.033  1.00  0.00     0.038 C 
BRANCH   3   5
HETATM    5  C   UNL     1       9.298  31.215  59.069  1.00  0.00     0.241 C 
HETATM    6  N   UNL     1       8.377  30.905  60.056  1.00  0.00    -0.326 N 
HETATM    7  H   UNL     1       8.138  29.917  60.085  1.00  0.00     0.169 HD
HETATM    8  O   UNL     1       9.760  32.328  58.834  1.00  0.00    -0.271 OA
BRANCH   6   9
HETATM    9  C   UNL     1       7.874  31.735  61.070  1.00  0.00     0.036 A 
HETATM   10  C   UNL     1       6.842  32.658  60.882  1.00  0.00     0.053 A 
HETATM   11  C   UNL     1       6.427  33.466  61.941  1.00  0.00     0.036 A 
HETATM   12 CL   UNL     1       5.163  34.609  61.701  1.00  0.00    -0.084 Cl
HETATM   13  C   UNL     1       7.029  33.364  63.193  1.00  0.00     0.024 A 
HETATM   14  C   UNL     1       8.053  32.441  63.391  1.00  0.00     0.004 A 
HETATM   15  C   UNL     1       8.471  31.628  62.334  1.00  0.00     0.029 A 
ENDBRANCH   6   9
ENDBRANCH   3   5
ENDBRANCH   1   3
BRANCH   1  16
HETATM   16  N   UNL     1       8.719  27.954  57.361  1.00  0.00    -0.290 N 
HETATM   17  C   UNL     1       7.652  27.063  57.275  1.00  0.00     0.245 C 
HETATM   18  O   UNL     1       6.477  27.414  57.380  1.00  0.00    -0.271 OA
HETATM   19  H   UNL     1       9.631  27.569  57.602  1.00  0.00     0.183 HD
BRANCH  17  20
HETATM   20  C   UNL     1       8.077  25.602  57.115  1.00  0.00     0.196 C 
BRANCH  20  21
HETATM   21  N   UNL     1       6.910  24.808  56.695  1.00  0.00    -0.282 NA
HETATM   22  H   UNL     1       6.121  25.452  56.536  1.00  0.00     0.128 HD
BRANCH  21  23
HETATM   23  C   UNL     1       7.140  24.203  55.425  1.00  0.00     0.042 A 
HETATM   24  C   UNL     1       6.405  24.640  54.299  1.00  0.00     0.089 A 
HETATM   25  C   UNL     1       6.655  24.078  53.048  1.00  0.00     0.038 A 
HETATM   26  C   UNL     1       7.636  23.092  52.909  1.00  0.00     0.003 A 
HETATM   27  C   UNL     1       8.369  22.666  54.018  1.00  0.00     0.002 A 
HETATM   28  C   UNL     1       8.125  23.223  55.273  1.00  0.00     0.026 A 
BRANCH  24  29
HETATM   29  O   UNL     1       5.479  25.622  54.564  1.00  0.00    -0.354 OA
HETATM   30  C   UNL     1       5.637  26.857  53.879  1.00  0.00     0.210 C 
ENDBRANCH  24  29
ENDBRANCH  21  23
ENDBRANCH  20  21
ENDBRANCH  17  20
ENDBRANCH   1  16
TORSDOF 8
ENDMDL
MODEL 9
REMARK VINA RESULT:      -8.5      3.558     10.231
REMARK  8 active torsions:
REMARK  status: ('A' for Active; 'I' for Inactive)
REMARK    1  A    between atoms: C_2  and  N_3 
REMARK    2  A    between atoms: C_2  and  C_17 
REMARK    3  A    between atoms: N_3  and  N_4 
REMARK       I    between atoms: N_4  and  C_5 
REMARK    4  A    between atoms: C_5  and  C_6 
REMARK    5  A    between atoms: C_6  and  N_7 
REMARK    6  A    between atoms: N_7  and  C_8 
REMARK    7  A    between atoms: C_9  and  O_10 
REMARK       I    between atoms: C_17  and  N_18 
REMARK    8  A    between atoms: N_18  and  C_19 
ROOT
HETATM    1  N   UNL     1       5.896  27.381  56.081  1.00  0.00    -0.225 NA
HETATM    2  H   UNL     1       6.395  26.553  56.440  1.00  0.00     0.147 HD
ENDROOT
BRANCH   1   3
HETATM    3  C   UNL     1       5.903  27.251  54.590  1.00  0.00     0.165 C 
HETATM    4  C   UNL     1       7.155  27.933  54.046  1.00  0.00     0.038 C 
BRANCH   3   5
HETATM    5  C   UNL     1       5.905  25.772  54.159  1.00  0.00     0.241 C 
HETATM    6  N   UNL     1       7.077  25.116  54.493  1.00  0.00    -0.326 N 
HETATM    7  H   UNL     1       7.728  25.697  55.015  1.00  0.00     0.169 HD
HETATM    8  O   UNL     1       4.956  25.292  53.545  1.00  0.00    -0.271 OA
BRANCH   6   9
HETATM    9  C   UNL     1       7.392  23.757  54.330  1.00  0.00     0.036 A 
HETATM   10  C   UNL     1       7.418  22.832  55.377  1.00  0.00     0.053 A 
HETATM   11  C   UNL     1       7.774  21.506  55.127  1.00  0.00     0.036 A 
HETATM   12 CL   UNL     1       7.814  20.373  56.422  1.00  0.00    -0.084 Cl
HETATM   13  C   UNL     1       8.105  21.088  53.840  1.00  0.00     0.024 A 
HETATM   14  C   UNL     1       8.074  22.002  52.790  1.00  0.00     0.004 A 
HETATM   15  C   UNL     1       7.716  23.331  53.035  1.00  0.00     0.029 A 
ENDBRANCH   6   9
ENDBRANCH   3   5
ENDBRANCH   1   3
BRANCH   1  16
HETATM   16  N   UNL     1       6.659  28.511  56.501  1.00  0.00    -0.290 N 
HETATM   17  C   UNL     1       7.522  28.381  57.587  1.00  0.00     0.245 C 
HETATM   18  O   UNL     1       7.705  27.314  58.172  1.00  0.00    -0.271 OA
HETATM   19  H   UNL     1       6.305  29.443  56.293  1.00  0.00     0.183 HD
BRANCH  17  20
HETATM   20  C   UNL     1       8.159  29.699  58.032  1.00  0.00     0.196 C 
BRANCH  20  21
HETATM   21  N   UNL     1       7.154  30.494  58.757  1.00  0.00    -0.282 NA
HETATM   22  H   UNL     1       6.420  29.856  59.097  1.00  0.00     0.128 HD
BRANCH  21  23
HETATM   23  C   UNL     1       7.713  31.060  59.940  1.00  0.00     0.042 A 
HETATM   24  C   UNL     1       7.024  32.095  60.612  1.00  0.00     0.089 A 
HETATM   25  C   UNL     1       7.550  32.624  61.791  1.00  0.00     0.038 A 
HETATM   26  C   UNL     1       8.747  32.123  62.308  1.00  0.00     0.003 A 
HETATM   27  C   UNL     1       9.423  31.094  61.651  1.00  0.00     0.002 A 
HETATM   28  C   UNL     1       8.906  30.560  60.470  1.00  0.00     0.026 A 
BRANCH  24  29
HETATM   29  O   UNL     1       5.854  32.492  60.010  1.00  0.00    -0.354 OA
HETATM   30  C   UNL     1       5.084  33.478  60.685  1.00  0.00     0.210 C 
ENDBRANCH  24  29
ENDBRANCH  21  23
ENDBRANCH  20  21
ENDBRANCH  17  20
ENDBRANCH   1  16
TORSDOF 8
ENDMDL
MODEL 10
REMARK VINA RESULT:      -8.3      3.993      5.737
REMARK  8 active torsions:
REMARK  status: ('A' for Active; 'I' for Inactive)
REMARK    1  A    between atoms: C_2  and  N_3 
REMARK    2  A    between atoms: C_2  and  C_17 
REMARK    3  A    between atoms: N_3  and  N_4 
REMARK       I    between atoms: N_4  and  C_5 
REMARK    4  A    between atoms: C_5  and  C_6 
REMARK    5  A    between atoms: C_6  and  N_7 
REMARK    6  A    between atoms: N_7  and  C_8 
REMARK    7  A    between atoms: C_9  and  O_10 
REMARK       I    between atoms: C_17  and  N_18 
REMARK    8  A    between atoms: N_18  and  C_19 
ROOT
HETATM    1  N   UNL     1       3.903  27.189  53.059  1.00  0.00    -0.225 NA
HETATM    2  H   UNL     1       4.098  27.023  52.060  1.00  0.00     0.147 HD
ENDROOT
BRANCH   1   3
HETATM    3  C   UNL     1       4.461  28.544  53.366  1.00  0.00     0.165 C 
HETATM    4  C   UNL     1       3.378  29.588  53.110  1.00  0.00     0.038 C 
BRANCH   3   5
HETATM    5  C   UNL     1       4.919  28.639  54.834  1.00  0.00     0.241 C 
HETATM    6  N   UNL     1       6.216  29.108  54.963  1.00  0.00    -0.326 N 
HETATM    7  H   UNL     1       6.640  29.364  54.075  1.00  0.00     0.169 HD
HETATM    8  O   UNL     1       4.185  28.278  55.749  1.00  0.00    -0.271 OA
BRANCH   6   9
HETATM    9  C   UNL     1       6.925  29.396  56.140  1.00  0.00     0.036 A 
HETATM   10  C   UNL     1       6.506  30.326  57.094  1.00  0.00     0.053 A 
HETATM   11  C   UNL     1       7.292  30.572  58.221  1.00  0.00     0.036 A 
HETATM   12 CL   UNL     1       6.777  31.727  59.388  1.00  0.00    -0.084 Cl
HETATM   13  C   UNL     1       8.497  29.898  58.410  1.00  0.00     0.024 A 
HETATM   14  C   UNL     1       8.917  28.964  57.466  1.00  0.00     0.004 A 
HETATM   15  C   UNL     1       8.132  28.713  56.338  1.00  0.00     0.029 A 
ENDBRANCH   6   9
ENDBRANCH   3   5
ENDBRANCH   1   3
BRANCH   1  16
HETATM   16  N   UNL     1       4.606  26.172  53.770  1.00  0.00    -0.290 N 
HETATM   17  C   UNL     1       5.655  25.506  53.141  1.00  0.00     0.245 C 
HETATM   18  O   UNL     1       6.049  25.794  52.011  1.00  0.00    -0.271 OA
HETATM   19  H   UNL     1       4.125  25.682  54.523  1.00  0.00     0.183 HD
BRANCH  17  20
HETATM   20  C   UNL     1       6.219  24.337  53.950  1.00  0.00     0.196 C 
BRANCH  20  21
HETATM   21  N   UNL     1       7.658  24.211  53.668  1.00  0.00    -0.282 NA
HETATM   22  H   UNL     1       8.176  24.748  54.378  1.00  0.00     0.128 HD
BRANCH  21  23
HETATM   23  C   UNL     1       8.095  22.866  53.849  1.00  0.00     0.042 A 
HETATM   24  C   UNL     1       8.854  22.525  54.990  1.00  0.00     0.089 A 
HETATM   25  C   UNL     1       9.249  21.202  55.190  1.00  0.00     0.038 A 
HETATM   26  C   UNL     1       8.885  20.218  54.267  1.00  0.00     0.003 A 
HETATM   27  C   UNL     1       8.126  20.551  53.144  1.00  0.00     0.002 A 
HETATM   28  C   UNL     1       7.728  21.872  52.936  1.00  0.00     0.026 A 
BRANCH  24  29
HETATM   29  O   UNL     1       9.137  23.579  55.827  1.00  0.00    -0.354 OA
HETATM   30  C   UNL     1       8.497  23.584  57.096  1.00  0.00     0.210 C 
ENDBRANCH  24  29
ENDBRANCH  21  23
ENDBRANCH  20  21
ENDBRANCH  17  20
ENDBRANCH   1  16
TORSDOF 8
ENDMDL
