MODEL 1
REMARK VINA RESULT:     -10.1      0.000      0.000
REMARK  4 active torsions:
REMARK  status: ('A' for Active; 'I' for Inactive)
REMARK    1  A    between atoms: C_7  and  C_8 
REMARK    2  A    between atoms: C_8  and  N_9 
REMARK    3  A    between atoms: N_9  and  C_10 
REMARK    4  A    between atoms: N_16  and  C_17 
ROOT
HETATM    1  C   UNL     1       5.361  27.121  55.947  1.00  0.00     0.141 A 
HETATM    2  N   UNL     1       4.386  28.065  55.975  1.00  0.00    -0.224 NA
HETATM    3  C   UNL     1       4.643  29.246  56.573  1.00  0.00     0.237 A 
HETATM    4  N   UNL     1       5.766  29.629  57.189  1.00  0.00    -0.221 NA
HETATM    5  C   UNL     1       6.714  28.669  57.174  1.00  0.00     0.186 A 
HETATM    6  C   UNL     1       6.575  27.422  56.584  1.00  0.00     0.077 A 
HETATM    7  N   UNL     1       7.994  28.707  57.722  1.00  0.00    -0.041 N 
HETATM    8  N   UNL     1       8.668  27.527  57.495  1.00  0.00    -0.162 NA
HETATM    9  C   UNL     1       7.798  26.774  56.825  1.00  0.00     0.159 A 
ENDROOT
BRANCH   1  10
HETATM   10  N   UNL     1       5.134  25.896  55.336  1.00  0.00    -0.367 N 
HETATM   11  H   UNL     1       4.971  25.128  55.973  1.00  0.00     0.161 HD
BRANCH  10  12
HETATM   12  C   UNL     1       5.944  25.538  54.174  1.00  0.00     0.199 C 
BRANCH  12  13
HETATM   13  C   UNL     1       6.635  24.215  54.258  1.00  0.00     0.123 A 
HETATM   14  N   UNL     1       6.913  23.484  53.131  1.00  0.00    -0.341 N 
HETATM   15  C   UNL     1       7.558  22.335  53.506  1.00  0.00     0.063 A 
HETATM   16  H   UNL     1       6.654  23.767  52.195  1.00  0.00     0.167 HD
HETATM   17  C   UNL     1       7.632  22.421  54.893  1.00  0.00     0.091 A 
HETATM   18  C   UNL     1       8.061  21.262  52.771  1.00  0.00     0.032 A 
HETATM   19  C   UNL     1       8.235  21.379  55.626  1.00  0.00    -0.031 A 
HETATM   20  N   UNL     1       7.062  23.593  55.340  1.00  0.00    -0.231 NA
HETATM   21  C   UNL     1       8.343  21.387  57.122  1.00  0.00     0.050 C 
HETATM   22  C   UNL     1       8.749  20.288  54.895  1.00  0.00     0.009 A 
HETATM   23  C   UNL     1       8.665  20.234  53.501  1.00  0.00     0.003 A 
ENDBRANCH  12  13
ENDBRANCH  10  12
ENDBRANCH   1  10
BRANCH   7  24
HETATM   24  C   UNL     1       8.610  29.791  58.441  1.00  0.00     0.750 A 
HETATM   25  N   UNL     1       8.302  29.971  59.744  1.00  0.00    -0.073 NA
HETATM   26  C   UNL     1       8.902  30.995  60.379  1.00  0.00     0.138 A 
HETATM   27  C   UNL     1       9.794  31.846  59.773  1.00  0.00     0.040 A 
HETATM   28  C   UNL     1      10.049  31.590  58.450  1.00  0.00     0.138 A 
HETATM   29  N   UNL     1       9.478  30.582  57.766  1.00  0.00    -0.073 NA
ENDBRANCH   7  24
TORSDOF 4
ENDMDL
MODEL 2
REMARK VINA RESULT:     -10.1      0.826      1.690
REMARK  4 active torsions:
REMARK  status: ('A' for Active; 'I' for Inactive)
REMARK    1  A    between atoms: C_7  and  C_8 
REMARK    2  A    between atoms: C_8  and  N_9 
REMARK    3  A    between atoms: N_9  and  C_10 
REMARK    4  A    between atoms: N_16  and  C_17 
ROOT
HETATM    1  C   UNL     1       5.503  27.282  55.437  1.00  0.00     0.141 A 
HETATM    2  N   UNL     1       4.866  28.316  54.831  1.00  0.00    -0.224 NA
HETATM    3  C   UNL     1       5.166  29.575  55.212  1.00  0.00     0.237 A 
HETATM    4  N   UNL     1       6.025  29.965  56.158  1.00  0.00    -0.221 NA
HETATM    5  C   UNL     1       6.628  28.923  56.767  1.00  0.00     0.186 A 
HETATM    6  C   UNL     1       6.413  27.588  56.459  1.00  0.00     0.077 A 
HETATM    7  N   UNL     1       7.566  28.946  57.797  1.00  0.00    -0.041 N 
HETATM    8  N   UNL     1       7.951  27.671  58.148  1.00  0.00    -0.162 NA
HETATM    9  C   UNL     1       7.243  26.880  57.344  1.00  0.00     0.159 A 
ENDROOT
BRANCH   1  10
HETATM   10  N   UNL     1       5.223  25.974  55.068  1.00  0.00    -0.367 N 
HETATM   11  H   UNL     1       5.023  25.349  55.838  1.00  0.00     0.161 HD
BRANCH  10  12
HETATM   12  C   UNL     1       6.020  25.365  54.005  1.00  0.00     0.199 C 
BRANCH  12  13
HETATM   13  C   UNL     1       6.731  24.105  54.379  1.00  0.00     0.123 A 
HETATM   14  N   UNL     1       7.098  23.852  55.677  1.00  0.00    -0.341 N 
HETATM   15  C   UNL     1       7.711  22.628  55.725  1.00  0.00     0.063 A 
HETATM   16  H   UNL     1       6.941  24.493  56.445  1.00  0.00     0.167 HD
HETATM   17  C   UNL     1       7.699  22.187  54.405  1.00  0.00     0.091 A 
HETATM   18  C   UNL     1       8.262  21.898  56.778  1.00  0.00     0.032 A 
HETATM   19  C   UNL     1       8.273  20.942  54.080  1.00  0.00    -0.031 A 
HETATM   20  N   UNL     1       7.083  23.110  53.589  1.00  0.00    -0.231 NA
HETATM   21  C   UNL     1       8.313  20.399  52.682  1.00  0.00     0.050 C 
HETATM   22  C   UNL     1       8.832  20.192  55.136  1.00  0.00     0.009 A 
HETATM   23  C   UNL     1       8.824  20.661  56.452  1.00  0.00     0.003 A 
ENDBRANCH  12  13
ENDBRANCH  10  12
ENDBRANCH   1  10
BRANCH   7  24
HETATM   24  C   UNL     1       8.114  30.100  58.461  1.00  0.00     0.750 A 
HETATM   25  N   UNL     1       7.317  30.826  59.276  1.00  0.00    -0.073 NA
HETATM   26  C   UNL     1       7.870  31.895  59.879  1.00  0.00     0.138 A 
HETATM   27  C   UNL     1       9.180  32.271  59.705  1.00  0.00     0.040 A 
HETATM   28  C   UNL     1       9.915  31.478  58.861  1.00  0.00     0.138 A 
HETATM   29  N   UNL     1       9.415  30.399  58.233  1.00  0.00    -0.073 NA
ENDBRANCH   7  24
TORSDOF 4
ENDMDL
MODEL 3
REMARK VINA RESULT:      -9.8      1.668      2.174
REMARK  4 active torsions:
REMARK  status: ('A' for Active; 'I' for Inactive)
REMARK    1  A    between atoms: C_7  and  C_8 
REMARK    2  A    between atoms: C_8  and  N_9 
REMARK    3  A    between atoms: N_9  and  C_10 
REMARK    4  A    between atoms: N_16  and  C_17 
ROOT
HETATM    1  C   UNL     1       7.530  28.675  55.238  1.00  0.00     0.141 A 
HETATM    2  N   UNL     1       6.244  28.525  55.644  1.00  0.00    -0.224 NA
HETATM    3  C   UNL     1       5.886  29.005  56.853  1.00  0.00     0.237 A 
HETATM    4  N   UNL     1       6.658  29.617  57.756  1.00  0.00    -0.221 NA
HETATM    5  C   UNL     1       7.938  29.733  57.346  1.00  0.00     0.186 A 
HETATM    6  C   UNL     1       8.425  29.291  56.125  1.00  0.00     0.077 A 
HETATM    7  N   UNL     1       9.016  30.301  58.021  1.00  0.00    -0.041 N 
HETATM    8  N   UNL     1      10.167  30.233  57.267  1.00  0.00    -0.162 NA
HETATM    9  C   UNL     1       9.791  29.618  56.147  1.00  0.00     0.159 A 
ENDROOT
BRANCH   1  10
HETATM   10  N   UNL     1       7.934  28.197  53.999  1.00  0.00    -0.367 N 
HETATM   11  H   UNL     1       8.306  28.900  53.374  1.00  0.00     0.161 HD
BRANCH  10  12
HETATM   12  C   UNL     1       7.102  27.197  53.334  1.00  0.00     0.199 C 
BRANCH  12  13
HETATM   13  C   UNL     1       7.417  25.775  53.670  1.00  0.00     0.123 A 
HETATM   14  N   UNL     1       7.461  24.806  52.699  1.00  0.00    -0.341 N 
HETATM   15  C   UNL     1       7.787  23.615  53.289  1.00  0.00     0.063 A 
HETATM   16  H   UNL     1       7.263  24.976  51.721  1.00  0.00     0.167 HD
HETATM   17  C   UNL     1       7.917  23.924  54.640  1.00  0.00     0.091 A 
HETATM   18  C   UNL     1       7.967  22.332  52.771  1.00  0.00     0.032 A 
HETATM   19  C   UNL     1       8.241  22.909  55.561  1.00  0.00    -0.031 A 
HETATM   20  N   UNL     1       7.692  25.266  54.855  1.00  0.00    -0.231 NA
HETATM   21  C   UNL     1       8.386  23.155  57.034  1.00  0.00     0.050 C 
HETATM   22  C   UNL     1       8.427  21.607  55.050  1.00  0.00     0.009 A 
HETATM   23  C   UNL     1       8.294  21.329  53.687  1.00  0.00     0.003 A 
ENDBRANCH  12  13
ENDBRANCH  10  12
ENDBRANCH   1  10
BRANCH   7  24
HETATM   24  C   UNL     1       9.016  30.900  59.329  1.00  0.00     0.750 A 
HETATM   25  N   UNL     1       8.934  32.244  59.434  1.00  0.00    -0.073 NA
HETATM   26  C   UNL     1       8.936  32.764  60.676  1.00  0.00     0.138 A 
HETATM   27  C   UNL     1       9.016  32.002  61.817  1.00  0.00     0.040 A 
HETATM   28  C   UNL     1       9.096  30.647  61.618  1.00  0.00     0.138 A 
HETATM   29  N   UNL     1       9.098  30.075  60.400  1.00  0.00    -0.073 NA
ENDBRANCH   7  24
TORSDOF 4
ENDMDL
MODEL 4
REMARK VINA RESULT:      -9.3      1.626      9.006
REMARK  4 active torsions:
REMARK  status: ('A' for Active; 'I' for Inactive)
REMARK    1  A    between atoms: C_7  and  C_8 
REMARK    2  A    between atoms: C_8  and  N_9 
REMARK    3  A    between atoms: N_9  and  C_10 
REMARK    4  A    between atoms: N_16  and  C_17 
ROOT
HETATM    1  C   UNL     1       7.006  27.123  56.808  1.00  0.00     0.141 A 
HETATM    2  N   UNL     1       7.833  26.782  57.828  1.00  0.00    -0.224 NA
HETATM    3  C   UNL     1       8.415  25.565  57.811  1.00  0.00     0.237 A 
HETATM    4  N   UNL     1       8.271  24.597  56.901  1.00  0.00    -0.221 NA
HETATM    5  C   UNL     1       7.425  24.944  55.910  1.00  0.00     0.186 A 
HETATM    6  C   UNL     1       6.774  26.165  55.810  1.00  0.00     0.077 A 
HETATM    7  N   UNL     1       7.029  24.193  54.806  1.00  0.00    -0.041 N 
HETATM    8  N   UNL     1       6.152  24.899  54.011  1.00  0.00    -0.162 NA
HETATM    9  C   UNL     1       6.009  26.066  54.636  1.00  0.00     0.159 A 
ENDROOT
BRANCH   1  10
HETATM   10  N   UNL     1       6.393  28.368  56.790  1.00  0.00    -0.367 N 
HETATM   11  H   UNL     1       5.578  28.431  56.194  1.00  0.00     0.161 HD
BRANCH  10  12
HETATM   12  C   UNL     1       7.238  29.560  56.762  1.00  0.00     0.199 C 
BRANCH  12  13
HETATM   13  C   UNL     1       7.454  30.222  58.084  1.00  0.00     0.123 A 
HETATM   14  N   UNL     1       8.526  29.897  58.877  1.00  0.00    -0.341 N 
HETATM   15  C   UNL     1       8.478  30.667  60.009  1.00  0.00     0.063 A 
HETATM   16  H   UNL     1       9.209  29.189  58.642  1.00  0.00     0.167 HD
HETATM   17  C   UNL     1       7.333  31.441  59.850  1.00  0.00     0.091 A 
HETATM   18  C   UNL     1       9.312  30.744  61.124  1.00  0.00     0.032 A 
HETATM   19  C   UNL     1       6.963  32.356  60.855  1.00  0.00    -0.031 A 
HETATM   20  N   UNL     1       6.716  31.157  58.651  1.00  0.00    -0.231 NA
HETATM   21  C   UNL     1       5.737  33.217  60.768  1.00  0.00     0.050 C 
HETATM   22  C   UNL     1       7.798  32.445  61.988  1.00  0.00     0.009 A 
HETATM   23  C   UNL     1       8.946  31.657  62.116  1.00  0.00     0.003 A 
ENDBRANCH  12  13
ENDBRANCH  10  12
ENDBRANCH   1  10
BRANCH   7  24
HETATM   24  C   UNL     1       7.432  22.854  54.464  1.00  0.00     0.750 A 
HETATM   25  N   UNL     1       7.694  22.560  53.171  1.00  0.00    -0.073 NA
HETATM   26  C   UNL     1       8.069  21.297  52.895  1.00  0.00     0.138 A 
HETATM   27  C   UNL     1       8.195  20.317  53.849  1.00  0.00     0.040 A 
HETATM   28  C   UNL     1       7.910  20.703  55.134  1.00  0.00     0.138 A 
HETATM   29  N   UNL     1       7.530  21.950  55.467  1.00  0.00    -0.073 NA
ENDBRANCH   7  24
TORSDOF 4
ENDMDL
MODEL 5
REMARK VINA RESULT:      -9.3      1.595      7.656
REMARK  4 active torsions:
REMARK  status: ('A' for Active; 'I' for Inactive)
REMARK    1  A    between atoms: C_7  and  C_8 
REMARK    2  A    between atoms: C_8  and  N_9 
REMARK    3  A    between atoms: N_9  and  C_10 
REMARK    4  A    between atoms: N_16  and  C_17 
ROOT
HETATM    1  C   UNL     1       4.989  26.608  54.708  1.00  0.00     0.141 A 
HETATM    2  N   UNL     1       4.650  26.542  53.396  1.00  0.00    -0.224 NA
HETATM    3  C   UNL     1       5.064  25.482  52.672  1.00  0.00     0.237 A 
HETATM    4  N   UNL     1       5.812  24.450  53.077  1.00  0.00    -0.221 NA
HETATM    5  C   UNL     1       6.161  24.547  54.377  1.00  0.00     0.186 A 
HETATM    6  C   UNL     1       5.790  25.579  55.226  1.00  0.00     0.077 A 
HETATM    7  N   UNL     1       6.936  23.671  55.132  1.00  0.00    -0.041 N 
HETATM    8  N   UNL     1       7.066  24.114  56.431  1.00  0.00    -0.162 NA
HETATM    9  C   UNL     1       6.383  25.257  56.458  1.00  0.00     0.159 A 
ENDROOT
BRANCH   1  10
HETATM   10  N   UNL     1       4.577  27.681  55.485  1.00  0.00    -0.367 N 
HETATM   11  H   UNL     1       3.586  27.704  55.687  1.00  0.00     0.161 HD
BRANCH  10  12
HETATM   12  C   UNL     1       5.156  28.996  55.219  1.00  0.00     0.199 C 
BRANCH  12  13
HETATM   13  C   UNL     1       6.479  29.256  55.863  1.00  0.00     0.123 A 
HETATM   14  N   UNL     1       7.652  29.105  55.167  1.00  0.00    -0.341 N 
HETATM   15  C   UNL     1       8.693  29.425  55.996  1.00  0.00     0.063 A 
HETATM   16  H   UNL     1       7.703  28.790  54.206  1.00  0.00     0.167 HD
HETATM   17  C   UNL     1       8.083  29.755  57.202  1.00  0.00     0.091 A 
HETATM   18  C   UNL     1      10.074  29.447  55.799  1.00  0.00     0.032 A 
HETATM   19  C   UNL     1       8.874  30.129  58.306  1.00  0.00    -0.031 A 
HETATM   20  N   UNL     1       6.713  29.651  57.099  1.00  0.00    -0.231 NA
HETATM   21  C   UNL     1       8.296  30.486  59.644  1.00  0.00     0.050 C 
HETATM   22  C   UNL     1      10.272  30.157  58.120  1.00  0.00     0.009 A 
HETATM   23  C   UNL     1      10.855  29.825  56.894  1.00  0.00     0.003 A 
ENDBRANCH  12  13
ENDBRANCH  10  12
ENDBRANCH   1  10
BRANCH   7  24
HETATM   24  C   UNL     1       7.556  22.447  54.698  1.00  0.00     0.750 A 
HETATM   25  N   UNL     1       7.881  21.515  55.620  1.00  0.00    -0.073 NA
HETATM   26  C   UNL     1       8.457  20.383  55.171  1.00  0.00     0.138 A 
HETATM   27  C   UNL     1       8.721  20.142  53.844  1.00  0.00     0.040 A 
HETATM   28  C   UNL     1       8.358  21.141  52.978  1.00  0.00     0.138 A 
HETATM   29  N   UNL     1       7.781  22.290  53.371  1.00  0.00    -0.073 NA
ENDBRANCH   7  24
TORSDOF 4
ENDMDL
MODEL 6
REMARK VINA RESULT:      -9.2      2.445      3.562
REMARK  4 active torsions:
REMARK  status: ('A' for Active; 'I' for Inactive)
REMARK    1  A    between atoms: C_7  and  C_8 
REMARK    2  A    between atoms: C_8  and  N_9 
REMARK    3  A    between atoms: N_9  and  C_10 
REMARK    4  A    between atoms: N_16  and  C_17 
ROOT
HETATM    1  C   UNL     1       7.084  27.915  56.898  1.00  0.00     0.141 A 
HETATM    2  N   UNL     1       5.978  27.595  56.180  1.00  0.00    -0.224 NA
HETATM    3  C   UNL     1       4.949  28.467  56.151  1.00  0.00     0.237 A 
HETATM    4  N   UNL     1       4.852  29.646  56.774  1.00  0.00    -0.221 NA
HETATM    5  C   UNL     1       5.949  29.934  57.504  1.00  0.00     0.186 A 
HETATM    6  C   UNL     1       7.072  29.127  57.605  1.00  0.00     0.077 A 
HETATM    7  N   UNL     1       6.198  31.059  58.286  1.00  0.00    -0.041 N 
HETATM    8  N   UNL     1       7.442  30.990  58.876  1.00  0.00    -0.162 NA
HETATM    9  C   UNL     1       7.938  29.825  58.463  1.00  0.00     0.159 A 
ENDROOT
BRANCH   1  10
HETATM   10  N   UNL     1       8.163  27.044  56.947  1.00  0.00    -0.367 N 
HETATM   11  H   UNL     1       8.656  26.930  56.071  1.00  0.00     0.161 HD
BRANCH  10  12
HETATM   12  C   UNL     1       8.026  25.808  57.713  1.00  0.00     0.199 C 
BRANCH  12  13
HETATM   13  C   UNL     1       8.088  24.547  56.912  1.00  0.00     0.123 A 
HETATM   14  N   UNL     1       8.297  23.331  57.512  1.00  0.00    -0.341 N 
HETATM   15  C   UNL     1       8.289  22.362  56.545  1.00  0.00     0.063 A 
HETATM   16  H   UNL     1       8.447  23.209  58.505  1.00  0.00     0.167 HD
HETATM   17  C   UNL     1       8.080  23.062  55.360  1.00  0.00     0.091 A 
HETATM   18  C   UNL     1       8.447  20.978  56.605  1.00  0.00     0.032 A 
HETATM   19  C   UNL     1       8.028  22.364  54.137  1.00  0.00    -0.031 A 
HETATM   20  N   UNL     1       7.952  24.411  55.607  1.00  0.00    -0.231 NA
HETATM   21  C   UNL     1       7.821  23.043  52.815  1.00  0.00     0.050 C 
HETATM   22  C   UNL     1       8.185  20.963  54.184  1.00  0.00     0.009 A 
HETATM   23  C   UNL     1       8.388  20.289  55.391  1.00  0.00     0.003 A 
ENDBRANCH  12  13
ENDBRANCH  10  12
ENDBRANCH   1  10
BRANCH   7  24
HETATM   24  C   UNL     1       5.332  32.187  58.504  1.00  0.00     0.750 A 
HETATM   25  N   UNL     1       4.470  32.159  59.544  1.00  0.00    -0.073 NA
HETATM   26  C   UNL     1       3.679  33.236  59.712  1.00  0.00     0.138 A 
HETATM   27  C   UNL     1       3.710  34.337  58.890  1.00  0.00     0.040 A 
HETATM   28  C   UNL     1       4.615  34.280  57.861  1.00  0.00     0.138 A 
HETATM   29  N   UNL     1       5.428  33.231  57.645  1.00  0.00    -0.073 NA
ENDBRANCH   7  24
TORSDOF 4
ENDMDL
MODEL 7
REMARK VINA RESULT:      -9.1      2.117      4.633
REMARK  4 active torsions:
REMARK  status: ('A' for Active; 'I' for Inactive)
REMARK    1  A    between atoms: C_7  and  C_8 
REMARK    2  A    between atoms: C_8  and  N_9 
REMARK    3  A    between atoms: N_9  and  C_10 
REMARK    4  A    between atoms: N_16  and  C_17 
ROOT
HETATM    1  C   UNL     1       7.303  26.815  57.544  1.00  0.00     0.141 A 
HETATM    2  N   UNL     1       7.948  27.927  57.979  1.00  0.00    -0.224 NA
HETATM    3  C   UNL     1       7.680  29.107  57.384  1.00  0.00     0.237 A 
HETATM    4  N   UNL     1       6.844  29.345  56.368  1.00  0.00    -0.221 NA
HETATM    5  C   UNL     1       6.232  28.224  55.932  1.00  0.00     0.186 A 
HETATM    6  C   UNL     1       6.416  26.958  56.466  1.00  0.00     0.077 A 
HETATM    7  N   UNL     1       5.313  28.087  54.895  1.00  0.00    -0.041 N 
HETATM    8  N   UNL     1       4.909  26.777  54.757  1.00  0.00    -0.162 NA
HETATM    9  C   UNL     1       5.588  26.123  55.698  1.00  0.00     0.159 A 
ENDROOT
BRANCH   1  10
HETATM   10  N   UNL     1       7.551  25.585  58.135  1.00  0.00    -0.367 N 
HETATM   11  H   UNL     1       7.375  25.549  59.130  1.00  0.00     0.161 HD
BRANCH  10  12
HETATM   12  C   UNL     1       8.736  24.839  57.718  1.00  0.00     0.199 C 
BRANCH  12  13
HETATM   13  C   UNL     1       8.535  23.910  56.564  1.00  0.00     0.123 A 
HETATM   14  N   UNL     1       8.553  22.549  56.734  1.00  0.00    -0.341 N 
HETATM   15  C   UNL     1       8.328  21.957  55.520  1.00  0.00     0.063 A 
HETATM   16  H   UNL     1       8.725  22.091  57.620  1.00  0.00     0.167 HD
HETATM   17  C   UNL     1       8.192  23.024  54.637  1.00  0.00     0.091 A 
HETATM   18  C   UNL     1       8.240  20.620  55.132  1.00  0.00     0.032 A 
HETATM   19  C   UNL     1       7.959  22.775  53.270  1.00  0.00    -0.031 A 
HETATM   20  N   UNL     1       8.316  24.224  55.302  1.00  0.00    -0.231 NA
HETATM   21  C   UNL     1       7.815  23.867  52.252  1.00  0.00     0.050 C 
HETATM   22  C   UNL     1       7.868  21.427  52.865  1.00  0.00     0.009 A 
HETATM   23  C   UNL     1       8.003  20.377  53.777  1.00  0.00     0.003 A 
ENDBRANCH  12  13
ENDBRANCH  10  12
ENDBRANCH   1  10
BRANCH   7  24
HETATM   24  C   UNL     1       4.799  29.120  54.034  1.00  0.00     0.750 A 
HETATM   25  N   UNL     1       5.090  29.077  52.715  1.00  0.00    -0.073 NA
HETATM   26  C   UNL     1       4.587  30.061  51.945  1.00  0.00     0.138 A 
HETATM   27  C   UNL     1       3.809  31.083  52.432  1.00  0.00     0.040 A 
HETATM   28  C   UNL     1       3.565  31.048  53.781  1.00  0.00     0.138 A 
HETATM   29  N   UNL     1       4.040  30.090  54.597  1.00  0.00    -0.073 NA
ENDBRANCH   7  24
TORSDOF 4
ENDMDL
MODEL 8
REMARK VINA RESULT:      -9.0      2.699      9.573
REMARK  4 active torsions:
REMARK  status: ('A' for Active; 'I' for Inactive)
REMARK    1  A    between atoms: C_7  and  C_8 
REMARK    2  A    between atoms: C_8  and  N_9 
REMARK    3  A    between atoms: N_9  and  C_10 
REMARK    4  A    between atoms: N_16  and  C_17 
ROOT
HETATM    1  C   UNL     1       6.410  29.426  57.521  1.00  0.00     0.141 A 
HETATM    2  N   UNL     1       7.642  29.223  58.053  1.00  0.00    -0.224 NA
HETATM    3  C   UNL     1       8.428  28.264  57.522  1.00  0.00     0.237 A 
HETATM    4  N   UNL     1       8.144  27.433  56.514  1.00  0.00    -0.221 NA
HETATM    5  C   UNL     1       6.906  27.631  56.016  1.00  0.00     0.186 A 
HETATM    6  C   UNL     1       6.011  28.589  56.468  1.00  0.00     0.077 A 
HETATM    7  N   UNL     1       6.271  26.952  54.980  1.00  0.00    -0.041 N 
HETATM    8  N   UNL     1       5.005  27.451  54.759  1.00  0.00    -0.162 NA
HETATM    9  C   UNL     1       4.871  28.418  55.665  1.00  0.00     0.159 A 
ENDROOT
BRANCH   1  10
HETATM   10  N   UNL     1       5.576  30.407  58.038  1.00  0.00    -0.367 N 
HETATM   11  H   UNL     1       4.628  30.386  57.687  1.00  0.00     0.161 HD
BRANCH  10  12
HETATM   12  C   UNL     1       6.112  31.755  58.213  1.00  0.00     0.199 C 
BRANCH  12  13
HETATM   13  C   UNL     1       6.363  32.166  59.628  1.00  0.00     0.123 A 
HETATM   14  N   UNL     1       7.451  31.701  60.322  1.00  0.00    -0.341 N 
HETATM   15  C   UNL     1       7.435  32.253  61.575  1.00  0.00     0.063 A 
HETATM   16  H   UNL     1       8.125  31.046  59.946  1.00  0.00     0.167 HD
HETATM   17  C   UNL     1       6.290  33.044  61.587  1.00  0.00     0.091 A 
HETATM   18  C   UNL     1       8.295  32.124  62.666  1.00  0.00     0.032 A 
HETATM   19  C   UNL     1       5.949  33.762  62.750  1.00  0.00    -0.031 A 
HETATM   20  N   UNL     1       5.644  32.983  60.372  1.00  0.00    -0.231 NA
HETATM   21  C   UNL     1       4.727  34.627  62.850  1.00  0.00     0.050 C 
HETATM   22  C   UNL     1       6.812  33.643  63.860  1.00  0.00     0.009 A 
HETATM   23  C   UNL     1       7.957  32.843  63.815  1.00  0.00     0.003 A 
ENDBRANCH  12  13
ENDBRANCH  10  12
ENDBRANCH   1  10
BRANCH   7  24
HETATM   24  C   UNL     1       6.791  25.867  54.190  1.00  0.00     0.750 A 
HETATM   25  N   UNL     1       7.555  26.149  53.113  1.00  0.00    -0.073 NA
HETATM   26  C   UNL     1       8.023  25.104  52.403  1.00  0.00     0.138 A 
HETATM   27  C   UNL     1       7.763  23.794  52.722  1.00  0.00     0.040 A 
HETATM   28  C   UNL     1       6.979  23.600  53.830  1.00  0.00     0.138 A 
HETATM   29  N   UNL     1       6.485  24.605  54.575  1.00  0.00    -0.073 NA
ENDBRANCH   7  24
TORSDOF 4
ENDMDL
MODEL 9
REMARK VINA RESULT:      -9.0      4.098      6.672
REMARK  4 active torsions:
REMARK  status: ('A' for Active; 'I' for Inactive)
REMARK    1  A    between atoms: C_7  and  C_8 
REMARK    2  A    between atoms: C_8  and  N_9 
REMARK    3  A    between atoms: N_9  and  C_10 
REMARK    4  A    between atoms: N_16  and  C_17 
ROOT
HETATM    1  C   UNL     1       4.730  27.165  53.978  1.00  0.00     0.141 A 
HETATM    2  N   UNL     1       4.285  28.359  54.444  1.00  0.00    -0.224 NA
HETATM    3  C   UNL     1       3.856  29.282  53.559  1.00  0.00     0.237 A 
HETATM    4  N   UNL     1       3.823  29.190  52.226  1.00  0.00    -0.221 NA
HETATM    5  C   UNL     1       4.294  28.007  51.780  1.00  0.00     0.186 A 
HETATM    6  C   UNL     1       4.752  26.977  52.588  1.00  0.00     0.077 A 
HETATM    7  N   UNL     1       4.419  27.565  50.465  1.00  0.00    -0.041 N 
HETATM    8  N   UNL     1       4.939  26.290  50.416  1.00  0.00    -0.162 NA
HETATM    9  C   UNL     1       5.139  25.967  51.692  1.00  0.00     0.159 A 
ENDROOT
BRANCH   1  10
HETATM   10  N   UNL     1       5.175  26.190  54.859  1.00  0.00    -0.367 N 
HETATM   11  H   UNL     1       4.684  26.161  55.743  1.00  0.00     0.161 HD
BRANCH  10  12
HETATM   12  C   UNL     1       6.613  25.961  54.976  1.00  0.00     0.199 C 
BRANCH  12  13
HETATM   13  C   UNL     1       7.051  24.540  54.824  1.00  0.00     0.123 A 
HETATM   14  N   UNL     1       7.149  23.953  53.588  1.00  0.00    -0.341 N 
HETATM   15  C   UNL     1       7.585  22.665  53.753  1.00  0.00     0.063 A 
HETATM   16  H   UNL     1       6.914  24.418  52.720  1.00  0.00     0.167 HD
HETATM   17  C   UNL     1       7.722  22.522  55.130  1.00  0.00     0.091 A 
HETATM   18  C   UNL     1       7.855  21.645  52.841  1.00  0.00     0.032 A 
HETATM   19  C   UNL     1       8.148  21.291  55.666  1.00  0.00    -0.031 A 
HETATM   20  N   UNL     1       7.394  23.694  55.776  1.00  0.00    -0.231 NA
HETATM   21  C   UNL     1       8.309  21.050  57.138  1.00  0.00     0.050 C 
HETATM   22  C   UNL     1       8.427  20.251  54.754  1.00  0.00     0.009 A 
HETATM   23  C   UNL     1       8.284  20.428  53.375  1.00  0.00     0.003 A 
ENDBRANCH  12  13
ENDBRANCH  10  12
ENDBRANCH   1  10
BRANCH   7  24
HETATM   24  C   UNL     1       4.075  28.277  49.262  1.00  0.00     0.750 A 
HETATM   25  N   UNL     1       2.784  28.307  48.866  1.00  0.00    -0.073 NA
HETATM   26  C   UNL     1       2.506  28.985  47.736  1.00  0.00     0.138 A 
HETATM   27  C   UNL     1       3.457  29.632  46.986  1.00  0.00     0.040 A 
HETATM   28  C   UNL     1       4.741  29.549  47.461  1.00  0.00     0.138 A 
HETATM   29  N   UNL     1       5.076  28.887  48.583  1.00  0.00    -0.073 NA
ENDBRANCH   7  24
TORSDOF 4
ENDMDL
MODEL 10
REMARK VINA RESULT:      -9.0      2.379      9.212
REMARK  4 active torsions:
REMARK  status: ('A' for Active; 'I' for Inactive)
REMARK    1  A    between atoms: C_7  and  C_8 
REMARK    2  A    between atoms: C_8  and  N_9 
REMARK    3  A    between atoms: N_9  and  C_10 
REMARK    4  A    between atoms: N_16  and  C_17 
ROOT
HETATM    1  C   UNL     1       5.381  29.011  56.898  1.00  0.00     0.141 A 
HETATM    2  N   UNL     1       4.441  29.256  55.951  1.00  0.00    -0.224 NA
HETATM    3  C   UNL     1       4.374  28.441  54.878  1.00  0.00     0.237 A 
HETATM    4  N   UNL     1       5.151  27.391  54.593  1.00  0.00    -0.221 NA
HETATM    5  C   UNL     1       6.096  27.180  55.532  1.00  0.00     0.186 A 
HETATM    6  C   UNL     1       6.259  27.939  56.681  1.00  0.00     0.077 A 
HETATM    7  N   UNL     1       7.079  26.194  55.565  1.00  0.00    -0.041 N 
HETATM    8  N   UNL     1       7.856  26.304  56.697  1.00  0.00    -0.162 NA
HETATM    9  C   UNL     1       7.355  27.357  57.340  1.00  0.00     0.159 A 
ENDROOT
BRANCH   1  10
HETATM   10  N   UNL     1       5.477  29.826  58.018  1.00  0.00    -0.367 N 
HETATM   11  H   UNL     1       4.617  30.287  58.281  1.00  0.00     0.161 HD
BRANCH  10  12
HETATM   12  C   UNL     1       6.666  30.660  58.172  1.00  0.00     0.199 C 
BRANCH  12  13
HETATM   13  C   UNL     1       6.805  31.340  59.496  1.00  0.00     0.123 A 
HETATM   14  N   UNL     1       7.696  30.889  60.437  1.00  0.00    -0.341 N 
HETATM   15  C   UNL     1       7.620  31.706  61.533  1.00  0.00     0.063 A 
HETATM   16  H   UNL     1       8.284  30.074  60.316  1.00  0.00     0.167 HD
HETATM   17  C   UNL     1       6.643  32.639  61.199  1.00  0.00     0.091 A 
HETATM   18  C   UNL     1       8.298  31.703  62.752  1.00  0.00     0.032 A 
HETATM   19  C   UNL     1       6.291  33.644  62.122  1.00  0.00    -0.031 A 
HETATM   20  N   UNL     1       6.156  32.401  59.932  1.00  0.00    -0.231 NA
HETATM   21  C   UNL     1       5.241  34.679  61.845  1.00  0.00     0.050 C 
HETATM   22  C   UNL     1       6.971  33.653  63.358  1.00  0.00     0.009 A 
HETATM   23  C   UNL     1       7.952  32.705  63.662  1.00  0.00     0.003 A 
ENDBRANCH  12  13
ENDBRANCH  10  12
ENDBRANCH   1  10
BRANCH   7  24
HETATM   24  C   UNL     1       7.320  25.161  54.592  1.00  0.00     0.750 A 
HETATM   25  N   UNL     1       7.090  23.874  54.934  1.00  0.00    -0.073 NA
HETATM   26  C   UNL     1       7.327  22.940  53.993  1.00  0.00     0.138 A 
HETATM   27  C   UNL     1       7.783  23.232  52.731  1.00  0.00     0.040 A 
HETATM   28  C   UNL     1       7.990  24.563  52.471  1.00  0.00     0.138 A 
HETATM   29  N   UNL     1       7.769  25.538  53.371  1.00  0.00    -0.073 NA
ENDBRANCH   7  24
TORSDOF 4
ENDMDL
