MODEL 1
REMARK VINA RESULT:     -10.0      0.000      0.000
REMARK  6 active torsions:
REMARK  status: ('A' for Active; 'I' for Inactive)
REMARK    1  A    between atoms: C_2  and  C_3 
REMARK    2  A    between atoms: C_7  and  C_8 
REMARK       I    between atoms: C_8  and  N_9 
REMARK    3  A    between atoms: N_9  and  C_10 
REMARK    4  A    between atoms: C_12  and  N_13 
REMARK       I    between atoms: N_13  and  C_14 
REMARK    5  A    between atoms: C_14  and  C_15 
REMARK    6  A    between atoms: C_23  and  O_24 
ROOT
HETATM    1  C   UNL     1       6.690  28.048  56.760  1.00  0.00     0.037 A 
HETATM    2  C   UNL     1       7.266  26.782  56.595  1.00  0.00     0.062 A 
HETATM    3  C   UNL     1       6.722  25.859  55.697  1.00  0.00     0.070 A 
HETATM    4  C   UNL     1       5.560  26.191  54.972  1.00  0.00     0.095 A 
HETATM    5  C   UNL     1       4.970  27.442  55.158  1.00  0.00     0.041 A 
HETATM    6  C   UNL     1       5.538  28.366  56.043  1.00  0.00     0.032 A 
ENDROOT
BRANCH   1   7
HETATM    7  N   UNL     1       7.327  28.930  57.658  1.00  0.00    -0.322 N 
HETATM    8  C   UNL     1       8.453  29.694  57.429  1.00  0.00     0.274 C 
HETATM    9  O   UNL     1       9.125  29.679  56.404  1.00  0.00    -0.266 OA
HETATM   10  H   UNL     1       6.976  28.917  58.607  1.00  0.00     0.169 HD
BRANCH   8  11
HETATM   11  C   UNL     1       8.846  30.512  58.551  1.00  0.00     0.120 A 
HETATM   12  N   UNL     1       9.746  31.535  58.409  1.00  0.00    -0.273 N 
HETATM   13  N   UNL     1      10.013  32.193  59.548  1.00  0.00    -0.179 NA
HETATM   14  H   UNL     1      10.215  31.817  57.554  1.00  0.00     0.189 HD
HETATM   15  C   UNL     1       9.229  31.602  60.456  1.00  0.00     0.056 A 
HETATM   16  C   UNL     1       8.483  30.543  59.884  1.00  0.00     0.065 A 
BRANCH  15  17
HETATM   17  C   UNL     1       9.200  32.090  61.865  1.00  0.00     0.056 C 
HETATM   18  C   UNL     1       8.115  31.423  62.695  1.00  0.00     0.011 C 
ENDBRANCH  15  17
ENDBRANCH   8  11
ENDBRANCH   1   7
BRANCH   3  19
HETATM   19  N   UNL     1       7.307  24.600  55.424  1.00  0.00    -0.320 N 
HETATM   20  C   UNL     1       7.922  24.182  54.262  1.00  0.00     0.256 C 
HETATM   21  O   UNL     1       8.235  24.886  53.310  1.00  0.00    -0.267 OA
HETATM   22  H   UNL     1       7.248  23.957  56.208  1.00  0.00     0.169 HD
BRANCH  20  23
HETATM   23  C   UNL     1       8.236  22.725  54.200  1.00  0.00     0.035 A 
HETATM   24  C   UNL     1       8.812  22.051  55.283  1.00  0.00     0.059 A 
HETATM   25  C   UNL     1       9.044  20.683  55.188  1.00  0.00     0.117 A 
HETATM   26  F   UNL     1       9.592  20.039  56.227  1.00  0.00    -0.206 F 
HETATM   27  C   UNL     1       8.706  19.971  54.043  1.00  0.00     0.042 A 
HETATM   28  C   UNL     1       8.119  20.635  52.968  1.00  0.00     0.004 A 
HETATM   29  C   UNL     1       7.880  22.009  53.048  1.00  0.00     0.017 A 
ENDBRANCH  20  23
ENDBRANCH   3  19
BRANCH   4  30
HETATM   30  O   UNL     1       5.104  25.222  54.108  1.00  0.00    -0.354 OA
HETATM   31  C   UNL     1       4.836  25.626  52.770  1.00  0.00     0.210 C 
ENDBRANCH   4  30
TORSDOF 6
ENDMDL
MODEL 2
REMARK VINA RESULT:      -9.9      1.438      1.681
REMARK  6 active torsions:
REMARK  status: ('A' for Active; 'I' for Inactive)
REMARK    1  A    between atoms: C_2  and  C_3 
REMARK    2  A    between atoms: C_7  and  C_8 
REMARK       I    between atoms: C_8  and  N_9 
REMARK    3  A    between atoms: N_9  and  C_10 
REMARK    4  A    between atoms: C_12  and  N_13 
REMARK       I    between atoms: N_13  and  C_14 
REMARK    5  A    between atoms: C_14  and  C_15 
REMARK    6  A    between atoms: C_23  and  O_24 
ROOT
HETATM    1  C   UNL     1       5.931  28.307  56.737  1.00  0.00     0.037 A 
HETATM    2  C   UNL     1       6.416  26.994  56.679  1.00  0.00     0.062 A 
HETATM    3  C   UNL     1       6.075  26.150  55.618  1.00  0.00     0.070 A 
HETATM    4  C   UNL     1       5.205  26.613  54.610  1.00  0.00     0.095 A 
HETATM    5  C   UNL     1       4.698  27.911  54.684  1.00  0.00     0.041 A 
HETATM    6  C   UNL     1       5.066  28.754  55.739  1.00  0.00     0.032 A 
ENDROOT
BRANCH   1   7
HETATM    7  N   UNL     1       6.357  29.101  57.822  1.00  0.00    -0.322 N 
HETATM    8  C   UNL     1       7.536  29.810  57.933  1.00  0.00     0.274 C 
HETATM    9  O   UNL     1       8.444  29.813  57.108  1.00  0.00    -0.266 OA
HETATM   10  H   UNL     1       5.779  29.056  58.651  1.00  0.00     0.169 HD
BRANCH   8  11
HETATM   11  C   UNL     1       7.668  30.542  59.169  1.00  0.00     0.120 A 
HETATM   12  N   UNL     1       6.655  31.332  59.643  1.00  0.00    -0.273 N 
HETATM   13  N   UNL     1       6.937  31.954  60.798  1.00  0.00    -0.179 NA
HETATM   14  H   UNL     1       5.751  31.489  59.207  1.00  0.00     0.189 HD
HETATM   15  C   UNL     1       8.165  31.522  61.107  1.00  0.00     0.056 A 
HETATM   16  C   UNL     1       8.667  30.641  60.118  1.00  0.00     0.065 A 
BRANCH  15  17
HETATM   17  C   UNL     1       8.825  31.956  62.373  1.00  0.00     0.056 C 
HETATM   18  C   UNL     1       7.851  32.580  63.359  1.00  0.00     0.011 C 
ENDBRANCH  15  17
ENDBRANCH   8  11
ENDBRANCH   1   7
BRANCH   3  19
HETATM   19  N   UNL     1       6.600  24.847  55.459  1.00  0.00    -0.320 N 
HETATM   20  C   UNL     1       7.502  24.403  54.515  1.00  0.00     0.256 C 
HETATM   21  O   UNL     1       8.153  25.099  53.746  1.00  0.00    -0.267 OA
HETATM   22  H   UNL     1       6.247  24.190  56.148  1.00  0.00     0.169 HD
BRANCH  20  23
HETATM   23  C   UNL     1       7.689  22.924  54.463  1.00  0.00     0.035 A 
HETATM   24  C   UNL     1       7.979  22.262  53.265  1.00  0.00     0.059 A 
HETATM   25  C   UNL     1       8.188  20.887  53.280  1.00  0.00     0.117 A 
HETATM   26  F   UNL     1       8.469  20.255  52.133  1.00  0.00    -0.206 F 
HETATM   27  C   UNL     1       8.122  20.159  54.463  1.00  0.00     0.042 A 
HETATM   28  C   UNL     1       7.847  20.816  55.661  1.00  0.00     0.004 A 
HETATM   29  C   UNL     1       7.636  22.197  55.662  1.00  0.00     0.017 A 
ENDBRANCH  20  23
ENDBRANCH   3  19
BRANCH   4  30
HETATM   30  O   UNL     1       4.933  25.713  53.605  1.00  0.00    -0.354 OA
HETATM   31  C   UNL     1       5.003  26.201  52.269  1.00  0.00     0.210 C 
ENDBRANCH   4  30
TORSDOF 6
ENDMDL
MODEL 3
REMARK VINA RESULT:      -9.5      4.456      8.418
REMARK  6 active torsions:
REMARK  status: ('A' for Active; 'I' for Inactive)
REMARK    1  A    between atoms: C_2  and  C_3 
REMARK    2  A    between atoms: C_7  and  C_8 
REMARK       I    between atoms: C_8  and  N_9 
REMARK    3  A    between atoms: N_9  and  C_10 
REMARK    4  A    between atoms: C_12  and  N_13 
REMARK       I    between atoms: N_13  and  C_14 
REMARK    5  A    between atoms: C_14  and  C_15 
REMARK    6  A    between atoms: C_23  and  O_24 
ROOT
HETATM    1  C   UNL     1       4.530  27.597  52.303  1.00  0.00     0.037 A 
HETATM    2  C   UNL     1       5.168  26.379  52.569  1.00  0.00     0.062 A 
HETATM    3  C   UNL     1       5.960  26.219  53.710  1.00  0.00     0.070 A 
HETATM    4  C   UNL     1       6.148  27.306  54.587  1.00  0.00     0.095 A 
HETATM    5  C   UNL     1       5.536  28.528  54.307  1.00  0.00     0.041 A 
HETATM    6  C   UNL     1       4.726  28.668  53.174  1.00  0.00     0.032 A 
ENDROOT
BRANCH   1   7
HETATM    7  N   UNL     1       3.718  27.658  51.151  1.00  0.00    -0.322 N 
HETATM    8  C   UNL     1       4.123  27.854  49.847  1.00  0.00     0.274 C 
HETATM    9  O   UNL     1       5.275  28.069  49.485  1.00  0.00    -0.266 OA
HETATM   10  H   UNL     1       2.720  27.665  51.319  1.00  0.00     0.169 HD
BRANCH   8  11
HETATM   11  C   UNL     1       3.044  27.848  48.889  1.00  0.00     0.120 A 
HETATM   12  N   UNL     1       2.309  26.719  48.648  1.00  0.00    -0.273 N 
HETATM   13  N   UNL     1       1.350  26.874  47.722  1.00  0.00    -0.179 NA
HETATM   14  H   UNL     1       2.431  25.810  49.084  1.00  0.00     0.189 HD
HETATM   15  C   UNL     1       1.439  28.164  47.377  1.00  0.00     0.056 A 
HETATM   16  C   UNL     1       2.485  28.815  48.075  1.00  0.00     0.065 A 
BRANCH  15  17
HETATM   17  C   UNL     1       0.490  28.751  46.387  1.00  0.00     0.056 C 
HETATM   18  C   UNL     1      -0.407  27.705  45.743  1.00  0.00     0.011 C 
ENDBRANCH  15  17
ENDBRANCH   8  11
ENDBRANCH   1   7
BRANCH   3  19
HETATM   19  N   UNL     1       6.559  24.991  54.077  1.00  0.00    -0.320 N 
HETATM   20  C   UNL     1       7.534  24.286  53.402  1.00  0.00     0.256 C 
HETATM   21  O   UNL     1       8.191  24.682  52.447  1.00  0.00    -0.267 OA
HETATM   22  H   UNL     1       6.202  24.622  54.952  1.00  0.00     0.169 HD
BRANCH  20  23
HETATM   23  C   UNL     1       7.798  22.914  53.924  1.00  0.00     0.035 A 
HETATM   24  C   UNL     1       7.858  22.649  55.297  1.00  0.00     0.059 A 
HETATM   25  C   UNL     1       8.063  21.343  55.730  1.00  0.00     0.117 A 
HETATM   26  F   UNL     1       8.116  21.091  57.045  1.00  0.00    -0.206 F 
HETATM   27  C   UNL     1       8.202  20.295  54.827  1.00  0.00     0.042 A 
HETATM   28  C   UNL     1       8.129  20.552  53.459  1.00  0.00     0.004 A 
HETATM   29  C   UNL     1       7.923  21.858  53.008  1.00  0.00     0.017 A 
ENDBRANCH  20  23
ENDBRANCH   3  19
BRANCH   4  30
HETATM   30  O   UNL     1       6.938  27.051  55.685  1.00  0.00    -0.354 OA
HETATM   31  C   UNL     1       6.458  27.509  56.944  1.00  0.00     0.210 C 
ENDBRANCH   4  30
TORSDOF 6
ENDMDL
MODEL 4
REMARK VINA RESULT:      -9.1      3.339      9.324
REMARK  6 active torsions:
REMARK  status: ('A' for Active; 'I' for Inactive)
REMARK    1  A    between atoms: C_2  and  C_3 
REMARK    2  A    between atoms: C_7  and  C_8 
REMARK       I    between atoms: C_8  and  N_9 
REMARK    3  A    between atoms: N_9  and  C_10 
REMARK    4  A    between atoms: C_12  and  N_13 
REMARK       I    between atoms: N_13  and  C_14 
REMARK    5  A    between atoms: C_14  and  C_15 
REMARK    6  A    between atoms: C_23  and  O_24 
ROOT
HETATM    1  C   UNL     1       5.956  27.397  55.904  1.00  0.00     0.037 A 
HETATM    2  C   UNL     1       6.514  28.123  56.964  1.00  0.00     0.062 A 
HETATM    3  C   UNL     1       6.125  29.443  57.212  1.00  0.00     0.070 A 
HETATM    4  C   UNL     1       5.184  30.064  56.366  1.00  0.00     0.095 A 
HETATM    5  C   UNL     1       4.650  29.351  55.293  1.00  0.00     0.041 A 
HETATM    6  C   UNL     1       5.031  28.022  55.069  1.00  0.00     0.032 A 
ENDROOT
BRANCH   1   7
HETATM    7  N   UNL     1       6.377  26.060  55.750  1.00  0.00    -0.322 N 
HETATM    8  C   UNL     1       7.218  25.549  54.783  1.00  0.00     0.274 C 
HETATM    9  O   UNL     1       7.696  26.185  53.850  1.00  0.00    -0.266 OA
HETATM   10  H   UNL     1       5.924  25.387  56.354  1.00  0.00     0.169 HD
BRANCH   8  11
HETATM   11  C   UNL     1       7.469  24.134  54.909  1.00  0.00     0.120 A 
HETATM   12  N   UNL     1       7.632  23.544  56.134  1.00  0.00    -0.273 N 
HETATM   13  N   UNL     1       7.869  22.224  56.081  1.00  0.00    -0.179 NA
HETATM   14  H   UNL     1       7.601  24.004  57.039  1.00  0.00     0.189 HD
HETATM   15  C   UNL     1       7.819  21.938  54.775  1.00  0.00     0.056 A 
HETATM   16  C   UNL     1       7.577  23.099  54.001  1.00  0.00     0.065 A 
BRANCH  15  17
HETATM   17  C   UNL     1       7.988  20.534  54.300  1.00  0.00     0.056 C 
HETATM   18  C   UNL     1       8.374  20.455  52.832  1.00  0.00     0.011 C 
ENDBRANCH  15  17
ENDBRANCH   8  11
ENDBRANCH   1   7
BRANCH   3  19
HETATM   19  N   UNL     1       6.588  30.197  58.316  1.00  0.00    -0.320 N 
HETATM   20  C   UNL     1       7.887  30.538  58.628  1.00  0.00     0.256 C 
HETATM   21  O   UNL     1       8.869  30.400  57.908  1.00  0.00    -0.267 OA
HETATM   22  H   UNL     1       5.838  30.509  58.924  1.00  0.00     0.169 HD
BRANCH  20  23
HETATM   23  C   UNL     1       8.077  31.145  59.977  1.00  0.00     0.035 A 
HETATM   24  C   UNL     1       7.298  32.222  60.414  1.00  0.00     0.059 A 
HETATM   25  C   UNL     1       7.485  32.721  61.698  1.00  0.00     0.117 A 
HETATM   26  F   UNL     1       6.736  33.750  62.116  1.00  0.00    -0.206 F 
HETATM   27  C   UNL     1       8.425  32.167  62.559  1.00  0.00     0.042 A 
HETATM   28  C   UNL     1       9.193  31.084  62.134  1.00  0.00     0.004 A 
HETATM   29  C   UNL     1       9.016  30.571  60.847  1.00  0.00     0.017 A 
ENDBRANCH  20  23
ENDBRANCH   3  19
BRANCH   4  30
HETATM   30  O   UNL     1       4.859  31.360  56.694  1.00  0.00    -0.354 OA
HETATM   31  C   UNL     1       3.490  31.630  56.972  1.00  0.00     0.210 C 
ENDBRANCH   4  30
TORSDOF 6
ENDMDL
MODEL 5
REMARK VINA RESULT:      -9.0      3.998     10.193
REMARK  6 active torsions:
REMARK  status: ('A' for Active; 'I' for Inactive)
REMARK    1  A    between atoms: C_2  and  C_3 
REMARK    2  A    between atoms: C_7  and  C_8 
REMARK       I    between atoms: C_8  and  N_9 
REMARK    3  A    between atoms: N_9  and  C_10 
REMARK    4  A    between atoms: C_12  and  N_13 
REMARK       I    between atoms: N_13  and  C_14 
REMARK    5  A    between atoms: C_14  and  C_15 
REMARK    6  A    between atoms: C_23  and  O_24 
ROOT
HETATM    1  C   UNL     1       8.551  28.814  57.272  1.00  0.00     0.037 A 
HETATM    2  C   UNL     1       7.593  29.354  58.139  1.00  0.00     0.062 A 
HETATM    3  C   UNL     1       7.870  30.500  58.889  1.00  0.00     0.070 A 
HETATM    4  C   UNL     1       9.141  31.103  58.800  1.00  0.00     0.095 A 
HETATM    5  C   UNL     1      10.106  30.548  57.958  1.00  0.00     0.041 A 
HETATM    6  C   UNL     1       9.808  29.413  57.194  1.00  0.00     0.032 A 
ENDROOT
BRANCH   1   7
HETATM    7  N   UNL     1       8.174  27.679  56.524  1.00  0.00    -0.322 N 
HETATM    8  C   UNL     1       7.924  26.406  56.995  1.00  0.00     0.274 C 
HETATM    9  O   UNL     1       8.050  26.043  58.159  1.00  0.00    -0.266 OA
HETATM   10  H   UNL     1       8.194  27.792  55.518  1.00  0.00     0.169 HD
BRANCH   8  11
HETATM   11  C   UNL     1       7.538  25.466  55.971  1.00  0.00     0.120 A 
HETATM   12  N   UNL     1       6.339  25.570  55.319  1.00  0.00    -0.273 N 
HETATM   13  N   UNL     1       6.126  24.613  54.403  1.00  0.00    -0.179 NA
HETATM   14  H   UNL     1       5.624  26.275  55.472  1.00  0.00     0.189 HD
HETATM   15  C   UNL     1       7.245  23.881  54.433  1.00  0.00     0.056 A 
HETATM   16  C   UNL     1       8.157  24.371  55.399  1.00  0.00     0.065 A 
BRANCH  15  17
HETATM   17  C   UNL     1       7.421  22.727  53.505  1.00  0.00     0.056 C 
HETATM   18  C   UNL     1       8.767  22.039  53.672  1.00  0.00     0.011 C 
ENDBRANCH  15  17
ENDBRANCH   8  11
ENDBRANCH   1   7
BRANCH   3  19
HETATM   19  N   UNL     1       6.917  31.140  59.715  1.00  0.00    -0.320 N 
HETATM   20  C   UNL     1       6.138  32.240  59.420  1.00  0.00     0.256 C 
HETATM   21  O   UNL     1       6.000  32.760  58.319  1.00  0.00    -0.267 OA
HETATM   22  H   UNL     1       6.823  30.702  60.625  1.00  0.00     0.169 HD
BRANCH  20  23
HETATM   23  C   UNL     1       5.394  32.818  60.575  1.00  0.00     0.035 A 
HETATM   24  C   UNL     1       5.594  32.359  61.882  1.00  0.00     0.059 A 
HETATM   25  C   UNL     1       4.907  32.963  62.929  1.00  0.00     0.117 A 
HETATM   26  F   UNL     1       5.103  32.524  64.180  1.00  0.00    -0.206 F 
HETATM   27  C   UNL     1       4.031  34.019  62.705  1.00  0.00     0.042 A 
HETATM   28  C   UNL     1       3.840  34.490  61.407  1.00  0.00     0.004 A 
HETATM   29  C   UNL     1       4.523  33.894  60.345  1.00  0.00     0.017 A 
ENDBRANCH  20  23
ENDBRANCH   3  19
BRANCH   4  30
HETATM   30  O   UNL     1       9.317  32.229  59.570  1.00  0.00    -0.354 OA
HETATM   31  C   UNL     1       9.794  32.033  60.897  1.00  0.00     0.210 C 
ENDBRANCH   4  30
TORSDOF 6
ENDMDL
MODEL 6
REMARK VINA RESULT:      -8.7      3.521      5.913
REMARK  6 active torsions:
REMARK  status: ('A' for Active; 'I' for Inactive)
REMARK    1  A    between atoms: C_2  and  C_3 
REMARK    2  A    between atoms: C_7  and  C_8 
REMARK       I    between atoms: C_8  and  N_9 
REMARK    3  A    between atoms: N_9  and  C_10 
REMARK    4  A    between atoms: C_12  and  N_13 
REMARK       I    between atoms: N_13  and  C_14 
REMARK    5  A    between atoms: C_14  and  C_15 
REMARK    6  A    between atoms: C_23  and  O_24 
ROOT
HETATM    1  C   UNL     1       7.631  31.590  59.721  1.00  0.00     0.037 A 
HETATM    2  C   UNL     1       7.187  30.624  58.809  1.00  0.00     0.062 A 
HETATM    3  C   UNL     1       8.067  30.052  57.885  1.00  0.00     0.070 A 
HETATM    4  C   UNL     1       9.411  30.476  57.847  1.00  0.00     0.095 A 
HETATM    5  C   UNL     1       9.847  31.459  58.736  1.00  0.00     0.041 A 
HETATM    6  C   UNL     1       8.961  32.007  59.672  1.00  0.00     0.032 A 
ENDROOT
BRANCH   1   7
HETATM    7  N   UNL     1       6.686  32.085  60.643  1.00  0.00    -0.322 N 
HETATM    8  C   UNL     1       6.597  31.802  61.990  1.00  0.00     0.274 C 
HETATM    9  O   UNL     1       7.310  31.010  62.598  1.00  0.00    -0.266 OA
HETATM   10  H   UNL     1       5.927  32.624  60.244  1.00  0.00     0.169 HD
BRANCH   8  11
HETATM   11  C   UNL     1       5.522  32.486  62.666  1.00  0.00     0.120 A 
HETATM   12  N   UNL     1       4.211  32.231  62.363  1.00  0.00    -0.273 N 
HETATM   13  N   UNL     1       3.332  32.957  63.071  1.00  0.00    -0.179 NA
HETATM   14  H   UNL     1       3.864  31.575  61.669  1.00  0.00     0.189 HD
HETATM   15  C   UNL     1       4.099  33.682  63.893  1.00  0.00     0.056 A 
HETATM   16  C   UNL     1       5.475  33.427  63.676  1.00  0.00     0.065 A 
BRANCH  15  17
HETATM   17  C   UNL     1       3.480  34.599  64.895  1.00  0.00     0.056 C 
HETATM   18  C   UNL     1       3.986  36.028  64.772  1.00  0.00     0.011 C 
ENDBRANCH  15  17
ENDBRANCH   8  11
ENDBRANCH   1   7
BRANCH   3  19
HETATM   19  N   UNL     1       7.700  29.014  56.999  1.00  0.00    -0.320 N 
HETATM   20  C   UNL     1       7.702  27.654  57.235  1.00  0.00     0.256 C 
HETATM   21  O   UNL     1       7.853  27.103  58.318  1.00  0.00    -0.267 OA
HETATM   22  H   UNL     1       7.400  29.354  56.091  1.00  0.00     0.169 HD
BRANCH  20  23
HETATM   23  C   UNL     1       7.479  26.802  56.031  1.00  0.00     0.035 A 
HETATM   24  C   UNL     1       7.245  25.427  56.137  1.00  0.00     0.059 A 
HETATM   25  C   UNL     1       6.999  24.686  54.986  1.00  0.00     0.117 A 
HETATM   26  F   UNL     1       6.771  23.370  55.091  1.00  0.00    -0.206 F 
HETATM   27  C   UNL     1       6.974  25.287  53.732  1.00  0.00     0.042 A 
HETATM   28  C   UNL     1       7.193  26.659  53.622  1.00  0.00     0.004 A 
HETATM   29  C   UNL     1       7.440  27.416  54.770  1.00  0.00     0.017 A 
ENDBRANCH  20  23
ENDBRANCH   3  19
BRANCH   4  30
HETATM   30  O   UNL     1      10.202  29.851  56.910  1.00  0.00    -0.354 OA
HETATM   31  C   UNL     1      11.594  29.766  57.195  1.00  0.00     0.210 C 
ENDBRANCH   4  30
TORSDOF 6
ENDMDL
MODEL 7
REMARK VINA RESULT:      -8.6      4.467      9.444
REMARK  6 active torsions:
REMARK  status: ('A' for Active; 'I' for Inactive)
REMARK    1  A    between atoms: C_2  and  C_3 
REMARK    2  A    between atoms: C_7  and  C_8 
REMARK       I    between atoms: C_8  and  N_9 
REMARK    3  A    between atoms: N_9  and  C_10 
REMARK    4  A    between atoms: C_12  and  N_13 
REMARK       I    between atoms: N_13  and  C_14 
REMARK    5  A    between atoms: C_14  and  C_15 
REMARK    6  A    between atoms: C_23  and  O_24 
ROOT
HETATM    1  C   UNL     1       5.433  25.613  52.442  1.00  0.00     0.037 A 
HETATM    2  C   UNL     1       5.812  26.609  53.351  1.00  0.00     0.062 A 
HETATM    3  C   UNL     1       6.637  26.309  54.439  1.00  0.00     0.070 A 
HETATM    4  C   UNL     1       7.066  24.983  54.645  1.00  0.00     0.095 A 
HETATM    5  C   UNL     1       6.664  23.985  53.757  1.00  0.00     0.041 A 
HETATM    6  C   UNL     1       5.857  24.302  52.658  1.00  0.00     0.032 A 
ENDROOT
BRANCH   1   7
HETATM    7  N   UNL     1       4.631  26.010  51.352  1.00  0.00    -0.322 N 
HETATM    8  C   UNL     1       4.889  27.014  50.440  1.00  0.00     0.274 C 
HETATM    9  O   UNL     1       5.852  27.773  50.473  1.00  0.00    -0.266 OA
HETATM   10  H   UNL     1       3.717  25.579  51.301  1.00  0.00     0.169 HD
BRANCH   8  11
HETATM   11  C   UNL     1       3.875  27.162  49.425  1.00  0.00     0.120 A 
HETATM   12  N   UNL     1       3.332  26.075  48.794  1.00  0.00    -0.273 N 
HETATM   13  N   UNL     1       2.409  26.381  47.869  1.00  0.00    -0.179 NA
HETATM   14  H   UNL     1       3.566  25.100  48.953  1.00  0.00     0.189 HD
HETATM   15  C   UNL     1       2.320  27.715  47.928  1.00  0.00     0.056 A 
HETATM   16  C   UNL     1       3.219  28.250  48.882  1.00  0.00     0.065 A 
BRANCH  15  17
HETATM   17  C   UNL     1       1.346  28.448  47.069  1.00  0.00     0.056 C 
HETATM   18  C   UNL     1       0.262  27.543  46.506  1.00  0.00     0.011 C 
ENDBRANCH  15  17
ENDBRANCH   8  11
ENDBRANCH   1   7
BRANCH   3  19
HETATM   19  N   UNL     1       7.123  27.285  55.340  1.00  0.00    -0.320 N 
HETATM   20  C   UNL     1       8.069  28.262  55.106  1.00  0.00     0.256 C 
HETATM   21  O   UNL     1       8.536  28.579  54.019  1.00  0.00    -0.267 OA
HETATM   22  H   UNL     1       6.694  27.227  56.257  1.00  0.00     0.169 HD
BRANCH  20  23
HETATM   23  C   UNL     1       8.536  28.994  56.319  1.00  0.00     0.035 A 
HETATM   24  C   UNL     1       9.813  29.563  56.387  1.00  0.00     0.059 A 
HETATM   25  C   UNL     1      10.182  30.274  57.524  1.00  0.00     0.117 A 
HETATM   26  F   UNL     1      11.403  30.821  57.585  1.00  0.00    -0.206 F 
HETATM   27  C   UNL     1       9.306  30.437  58.591  1.00  0.00     0.042 A 
HETATM   28  C   UNL     1       8.028  29.884  58.521  1.00  0.00     0.004 A 
HETATM   29  C   UNL     1       7.642  29.168  57.386  1.00  0.00     0.017 A 
ENDBRANCH  20  23
ENDBRANCH   3  19
BRANCH   4  30
HETATM   30  O   UNL     1       7.880  24.787  55.738  1.00  0.00    -0.354 OA
HETATM   31  C   UNL     1       8.719  23.637  55.718  1.00  0.00     0.210 C 
ENDBRANCH   4  30
TORSDOF 6
ENDMDL
MODEL 8
REMARK VINA RESULT:      -8.6      3.742      9.563
REMARK  6 active torsions:
REMARK  status: ('A' for Active; 'I' for Inactive)
REMARK    1  A    between atoms: C_2  and  C_3 
REMARK    2  A    between atoms: C_7  and  C_8 
REMARK       I    between atoms: C_8  and  N_9 
REMARK    3  A    between atoms: N_9  and  C_10 
REMARK    4  A    between atoms: C_12  and  N_13 
REMARK       I    between atoms: N_13  and  C_14 
REMARK    5  A    between atoms: C_14  and  C_15 
REMARK    6  A    between atoms: C_23  and  O_24 
ROOT
HETATM    1  C   UNL     1       6.149  28.283  56.225  1.00  0.00     0.037 A 
HETATM    2  C   UNL     1       6.311  29.027  57.401  1.00  0.00     0.062 A 
HETATM    3  C   UNL     1       5.769  30.310  57.518  1.00  0.00     0.070 A 
HETATM    4  C   UNL     1       5.078  30.878  56.429  1.00  0.00     0.095 A 
HETATM    5  C   UNL     1       4.941  30.148  55.247  1.00  0.00     0.041 A 
HETATM    6  C   UNL     1       5.469  28.855  55.151  1.00  0.00     0.032 A 
ENDROOT
BRANCH   1   7
HETATM    7  N   UNL     1       6.695  26.982  56.208  1.00  0.00    -0.322 N 
HETATM    8  C   UNL     1       6.102  25.816  56.646  1.00  0.00     0.274 C 
HETATM    9  O   UNL     1       5.003  25.736  57.184  1.00  0.00    -0.266 OA
HETATM   10  H   UNL     1       7.669  26.921  55.943  1.00  0.00     0.169 HD
BRANCH   8  11
HETATM   11  C   UNL     1       6.920  24.640  56.474  1.00  0.00     0.120 A 
HETATM   12  N   UNL     1       7.737  24.186  57.474  1.00  0.00    -0.273 N 
HETATM   13  N   UNL     1       8.440  23.089  57.154  1.00  0.00    -0.179 NA
HETATM   14  H   UNL     1       7.859  24.599  58.394  1.00  0.00     0.189 HD
HETATM   15  C   UNL     1       8.036  22.795  55.913  1.00  0.00     0.056 A 
HETATM   16  C   UNL     1       7.089  23.737  55.442  1.00  0.00     0.065 A 
BRANCH  15  17
HETATM   17  C   UNL     1       8.561  21.589  55.210  1.00  0.00     0.056 C 
HETATM   18  C   UNL     1       8.257  20.298  55.954  1.00  0.00     0.011 C 
ENDBRANCH  15  17
ENDBRANCH   8  11
ENDBRANCH   1   7
BRANCH   3  19
HETATM   19  N   UNL     1       5.826  31.075  58.707  1.00  0.00    -0.320 N 
HETATM   20  C   UNL     1       6.913  31.734  59.242  1.00  0.00     0.256 C 
HETATM   21  O   UNL     1       7.991  31.927  58.693  1.00  0.00    -0.267 OA
HETATM   22  H   UNL     1       4.936  31.122  59.191  1.00  0.00     0.169 HD
BRANCH  20  23
HETATM   23  C   UNL     1       6.716  32.263  60.623  1.00  0.00     0.035 A 
HETATM   24  C   UNL     1       7.746  32.247  61.569  1.00  0.00     0.059 A 
HETATM   25  C   UNL     1       7.523  32.795  62.828  1.00  0.00     0.117 A 
HETATM   26  F   UNL     1       8.511  32.783  63.732  1.00  0.00    -0.206 F 
HETATM   27  C   UNL     1       6.299  33.363  63.162  1.00  0.00     0.042 A 
HETATM   28  C   UNL     1       5.274  33.394  62.218  1.00  0.00     0.004 A 
HETATM   29  C   UNL     1       5.484  32.849  60.949  1.00  0.00     0.017 A 
ENDBRANCH  20  23
ENDBRANCH   3  19
BRANCH   4  30
HETATM   30  O   UNL     1       4.575  32.141  56.641  1.00  0.00    -0.354 OA
HETATM   31  C   UNL     1       4.820  33.110  55.626  1.00  0.00     0.210 C 
ENDBRANCH   4  30
TORSDOF 6
ENDMDL
MODEL 9
REMARK VINA RESULT:      -8.5      4.402      9.137
REMARK  6 active torsions:
REMARK  status: ('A' for Active; 'I' for Inactive)
REMARK    1  A    between atoms: C_2  and  C_3 
REMARK    2  A    between atoms: C_7  and  C_8 
REMARK       I    between atoms: C_8  and  N_9 
REMARK    3  A    between atoms: N_9  and  C_10 
REMARK    4  A    between atoms: C_12  and  N_13 
REMARK       I    between atoms: N_13  and  C_14 
REMARK    5  A    between atoms: C_14  and  C_15 
REMARK    6  A    between atoms: C_23  and  O_24 
ROOT
HETATM    1  C   UNL     1       5.264  26.116  52.671  1.00  0.00     0.037 A 
HETATM    2  C   UNL     1       5.904  26.918  53.624  1.00  0.00     0.062 A 
HETATM    3  C   UNL     1       6.852  26.375  54.497  1.00  0.00     0.070 A 
HETATM    4  C   UNL     1       7.145  24.997  54.441  1.00  0.00     0.095 A 
HETATM    5  C   UNL     1       6.485  24.193  53.511  1.00  0.00     0.041 A 
HETATM    6  C   UNL     1       5.555  24.753  52.627  1.00  0.00     0.032 A 
ENDROOT
BRANCH   1   7
HETATM    7  N   UNL     1       4.350  26.753  51.806  1.00  0.00    -0.322 N 
HETATM    8  C   UNL     1       4.638  27.493  50.677  1.00  0.00     0.274 C 
HETATM    9  O   UNL     1       5.763  27.767  50.275  1.00  0.00    -0.266 OA
HETATM   10  H   UNL     1       3.386  26.753  52.112  1.00  0.00     0.169 HD
BRANCH   8  11
HETATM   11  C   UNL     1       3.472  28.001  49.995  1.00  0.00     0.120 A 
HETATM   12  N   UNL     1       2.469  28.640  50.673  1.00  0.00    -0.273 N 
HETATM   13  N   UNL     1       1.451  29.043  49.897  1.00  0.00    -0.179 NA
HETATM   14  H   UNL     1       2.428  28.817  51.672  1.00  0.00     0.189 HD
HETATM   15  C   UNL     1       1.824  28.687  48.662  1.00  0.00     0.056 A 
HETATM   16  C   UNL     1       3.078  28.029  48.671  1.00  0.00     0.065 A 
BRANCH  15  17
HETATM   17  C   UNL     1       0.964  29.012  47.487  1.00  0.00     0.056 C 
HETATM   18  C   UNL     1       0.417  27.771  46.800  1.00  0.00     0.011 C 
ENDBRANCH  15  17
ENDBRANCH   8  11
ENDBRANCH   1   7
BRANCH   3  19
HETATM   19  N   UNL     1       7.594  27.148  55.421  1.00  0.00    -0.320 N 
HETATM   20  C   UNL     1       7.165  27.683  56.618  1.00  0.00     0.256 C 
HETATM   21  O   UNL     1       6.111  27.437  57.190  1.00  0.00    -0.267 OA
HETATM   22  H   UNL     1       8.554  27.300  55.130  1.00  0.00     0.169 HD
BRANCH  20  23
HETATM   23  C   UNL     1       8.113  28.641  57.259  1.00  0.00     0.035 A 
HETATM   24  C   UNL     1       9.426  28.791  56.801  1.00  0.00     0.059 A 
HETATM   25  C   UNL     1      10.255  29.731  57.406  1.00  0.00     0.117 A 
HETATM   26  F   UNL     1      11.511  29.877  56.964  1.00  0.00    -0.206 F 
HETATM   27  C   UNL     1       9.801  30.528  58.451  1.00  0.00     0.042 A 
HETATM   28  C   UNL     1       8.489  30.392  58.900  1.00  0.00     0.004 A 
HETATM   29  C   UNL     1       7.645  29.453  58.302  1.00  0.00     0.017 A 
ENDBRANCH  20  23
ENDBRANCH   3  19
BRANCH   4  30
HETATM   30  O   UNL     1       8.095  24.558  55.334  1.00  0.00    -0.354 OA
HETATM   31  C   UNL     1       7.803  23.361  56.047  1.00  0.00     0.210 C 
ENDBRANCH   4  30
TORSDOF 6
ENDMDL
MODEL 10
REMARK VINA RESULT:      -8.0      3.875      9.764
REMARK  6 active torsions:
REMARK  status: ('A' for Active; 'I' for Inactive)
REMARK    1  A    between atoms: C_2  and  C_3 
REMARK    2  A    between atoms: C_7  and  C_8 
REMARK       I    between atoms: C_8  and  N_9 
REMARK    3  A    between atoms: N_9  and  C_10 
REMARK    4  A    between atoms: C_12  and  N_13 
REMARK       I    between atoms: N_13  and  C_14 
REMARK    5  A    between atoms: C_14  and  C_15 
REMARK    6  A    between atoms: C_23  and  O_24 
ROOT
HETATM    1  C   UNL     1       5.740  29.197  56.075  1.00  0.00     0.037 A 
HETATM    2  C   UNL     1       6.065  29.668  57.354  1.00  0.00     0.062 A 
HETATM    3  C   UNL     1       5.749  30.975  57.738  1.00  0.00     0.070 A 
HETATM    4  C   UNL     1       5.125  31.841  56.818  1.00  0.00     0.095 A 
HETATM    5  C   UNL     1       4.827  31.381  55.535  1.00  0.00     0.041 A 
HETATM    6  C   UNL     1       5.128  30.064  55.170  1.00  0.00     0.032 A 
ENDROOT
BRANCH   1   7
HETATM    7  N   UNL     1       6.060  27.855  55.785  1.00  0.00    -0.322 N 
HETATM    8  C   UNL     1       5.466  27.032  54.850  1.00  0.00     0.274 C 
HETATM    9  O   UNL     1       4.505  27.331  54.150  1.00  0.00    -0.266 OA
HETATM   10  H   UNL     1       6.728  27.420  56.408  1.00  0.00     0.169 HD
BRANCH   8  11
HETATM   11  C   UNL     1       6.037  25.709  54.783  1.00  0.00     0.120 A 
HETATM   12  N   UNL     1       6.249  25.082  53.585  1.00  0.00    -0.273 N 
HETATM   13  N   UNL     1       6.777  23.853  53.693  1.00  0.00    -0.179 NA
HETATM   14  H   UNL     1       6.038  25.448  52.661  1.00  0.00     0.189 HD
HETATM   15  C   UNL     1       6.952  23.690  55.010  1.00  0.00     0.056 A 
HETATM   16  C   UNL     1       6.502  24.820  55.734  1.00  0.00     0.065 A 
BRANCH  15  17
HETATM   17  C   UNL     1       7.576  22.444  55.543  1.00  0.00     0.056 C 
HETATM   18  C   UNL     1       8.248  21.615  54.461  1.00  0.00     0.011 C 
ENDBRANCH  15  17
ENDBRANCH   8  11
ENDBRANCH   1   7
BRANCH   3  19
HETATM   19  N   UNL     1       5.974  31.480  59.040  1.00  0.00    -0.320 N 
HETATM   20  C   UNL     1       7.150  31.968  59.571  1.00  0.00     0.256 C 
HETATM   21  O   UNL     1       8.179  32.220  58.954  1.00  0.00    -0.267 OA
HETATM   22  H   UNL     1       5.141  31.467  59.619  1.00  0.00     0.169 HD
BRANCH  20  23
HETATM   23  C   UNL     1       7.127  32.216  61.041  1.00  0.00     0.035 A 
HETATM   24  C   UNL     1       5.925  32.379  61.739  1.00  0.00     0.059 A 
HETATM   25  C   UNL     1       5.958  32.563  63.118  1.00  0.00     0.117 A 
HETATM   26  F   UNL     1       4.806  32.714  63.785  1.00  0.00    -0.206 F 
HETATM   27  C   UNL     1       7.159  32.580  63.816  1.00  0.00     0.042 A 
HETATM   28  C   UNL     1       8.358  32.404  63.127  1.00  0.00     0.004 A 
HETATM   29  C   UNL     1       8.342  32.217  61.743  1.00  0.00     0.017 A 
ENDBRANCH  20  23
ENDBRANCH   3  19
BRANCH   4  30
HETATM   30  O   UNL     1       4.848  33.104  57.290  1.00  0.00    -0.354 OA
HETATM   31  C   UNL     1       3.479  33.493  57.320  1.00  0.00     0.210 C 
ENDBRANCH   4  30
TORSDOF 6
ENDMDL
