MODEL 1
REMARK VINA RESULT:     -10.9      0.000      0.000
REMARK  6 active torsions:
REMARK  status: ('A' for Active; 'I' for Inactive)
REMARK    1  A    between atoms: C_2  and  O_3 
REMARK    2  A    between atoms: C_2  and  C_4 
REMARK    3  A    between atoms: C_6  and  N_7 
REMARK       I    between atoms: N_7  and  C_8 
REMARK    4  A    between atoms: C_8  and  C_9 
REMARK    5  A    between atoms: C_14  and  C_15 
REMARK    6  A    between atoms: C_23  and  C_24 
ROOT
HETATM    1  C   UNL     1       6.885  28.555  55.956  1.00  0.00     0.148 A 
HETATM    2  N   UNL     1       5.703  28.240  55.373  1.00  0.00    -0.165 NA
HETATM    3  N   UNL     1       6.019  27.195  54.584  1.00  0.00    -0.240 N 
HETATM    4  C   UNL     1       7.316  26.783  54.699  1.00  0.00     0.123 A 
HETATM    5  N   UNL     1       7.757  25.677  54.069  1.00  0.00    -0.366 N 
HETATM    6  C   UNL     1       6.854  24.722  53.430  1.00  0.00     0.118 C 
HETATM    7  C   UNL     1       5.380  24.983  53.812  1.00  0.00     0.066 C 
HETATM    8  C   UNL     1       5.031  26.480  53.801  1.00  0.00     0.221 C 
HETATM    9  C   UNL     1       7.923  27.679  55.534  1.00  0.00     0.089 A 
HETATM   10  H   UNL     1       8.729  25.378  54.150  1.00  0.00     0.161 HD
ENDROOT
BRANCH   1  11
HETATM   11  C   UNL     1       7.019  29.652  56.932  1.00  0.00     0.276 C 
HETATM   12  N   UNL     1       8.104  29.473  57.768  1.00  0.00    -0.322 N 
HETATM   13  H   UNL     1       8.605  28.606  57.601  1.00  0.00     0.169 HD
HETATM   14  O   UNL     1       6.232  30.591  56.942  1.00  0.00    -0.266 OA
BRANCH  12  15
HETATM   15  C   UNL     1       8.574  30.331  58.778  1.00  0.00     0.035 A 
HETATM   16  C   UNL     1       8.061  30.351  60.077  1.00  0.00     0.039 A 
HETATM   17  C   UNL     1       8.565  31.240  61.047  1.00  0.00    -0.028 A 
HETATM   18  C   UNL     1       9.607  32.103  60.689  1.00  0.00     0.010 A 
HETATM   19  C   UNL     1      10.122  32.093  59.394  1.00  0.00     0.003 A 
HETATM   20  C   UNL     1       9.605  31.212  58.442  1.00  0.00     0.029 A 
BRANCH  17  21
HETATM   21  C   UNL     1       7.992  31.211  62.447  1.00  0.00     0.147 C 
HETATM   22  C   UNL     1       8.171  32.551  63.150  1.00  0.00     0.044 C 
BRANCH  21  23
HETATM   23  O   UNL     1       6.602  30.886  62.412  1.00  0.00    -0.391 OA
HETATM   24  H   UNL     1       6.540  29.916  62.419  1.00  0.00     0.210 HD
ENDBRANCH  21  23
ENDBRANCH  17  21
ENDBRANCH  12  15
ENDBRANCH   1  11
BRANCH   8  25
HETATM   25  C   UNL     1       4.960  27.055  52.406  1.00  0.00     0.409 C 
HETATM   26  F   UNL     1       6.047  27.795  52.097  1.00  0.00    -0.169 F 
HETATM   27  F   UNL     1       4.809  26.123  51.443  1.00  0.00    -0.169 F 
HETATM   28  F   UNL     1       3.889  27.886  52.310  1.00  0.00    -0.169 F 
ENDBRANCH   8  25
BRANCH   6  29
HETATM   29  C   UNL     1       7.297  23.320  53.819  1.00  0.00    -0.035 A 
HETATM   30  C   UNL     1       7.306  22.911  55.167  1.00  0.00     0.012 A 
HETATM   31  C   UNL     1       7.746  21.638  55.525  1.00  0.00     0.043 A 
HETATM   32  C   UNL     1       8.188  20.766  54.538  1.00  0.00     0.116 A 
HETATM   33  F   UNL     1       8.621  19.547  54.881  1.00  0.00    -0.206 F 
HETATM   34  C   UNL     1       8.195  21.147  53.201  1.00  0.00     0.043 A 
HETATM   35  C   UNL     1       7.750  22.421  52.839  1.00  0.00     0.012 A 
ENDBRANCH   6  29
TORSDOF 6
ENDMDL
MODEL 2
REMARK VINA RESULT:     -10.8      4.168      9.899
REMARK  6 active torsions:
REMARK  status: ('A' for Active; 'I' for Inactive)
REMARK    1  A    between atoms: C_2  and  O_3 
REMARK    2  A    between atoms: C_2  and  C_4 
REMARK    3  A    between atoms: C_6  and  N_7 
REMARK       I    between atoms: N_7  and  C_8 
REMARK    4  A    between atoms: C_8  and  C_9 
REMARK    5  A    between atoms: C_14  and  C_15 
REMARK    6  A    between atoms: C_23  and  C_24 
ROOT
HETATM    1  C   UNL     1       7.499  27.310  56.897  1.00  0.00     0.148 A 
HETATM    2  N   UNL     1       8.727  27.616  57.382  1.00  0.00    -0.165 NA
HETATM    3  N   UNL     1       8.610  28.916  57.714  1.00  0.00    -0.240 N 
HETATM    4  C   UNL     1       7.354  29.424  57.542  1.00  0.00     0.123 A 
HETATM    5  N   UNL     1       7.043  30.673  57.942  1.00  0.00    -0.366 N 
HETATM    6  C   UNL     1       7.929  31.472  58.786  1.00  0.00     0.118 C 
HETATM    7  C   UNL     1       9.078  30.624  59.377  1.00  0.00     0.066 C 
HETATM    8  C   UNL     1       9.683  29.662  58.341  1.00  0.00     0.221 C 
HETATM    9  C   UNL     1       6.622  28.429  56.957  1.00  0.00     0.089 A 
HETATM   10  H   UNL     1       6.107  31.051  57.803  1.00  0.00     0.161 HD
ENDROOT
BRANCH   1  11
HETATM   11  C   UNL     1       7.150  25.960  56.417  1.00  0.00     0.276 C 
HETATM   12  N   UNL     1       7.978  25.542  55.395  1.00  0.00    -0.322 N 
HETATM   13  H   UNL     1       8.662  26.240  55.116  1.00  0.00     0.169 HD
HETATM   14  O   UNL     1       6.226  25.330  56.918  1.00  0.00    -0.266 OA
BRANCH  12  15
HETATM   15  C   UNL     1       7.981  24.304  54.730  1.00  0.00     0.035 A 
HETATM   16  C   UNL     1       8.442  23.117  55.306  1.00  0.00     0.039 A 
HETATM   17  C   UNL     1       8.431  21.905  54.588  1.00  0.00    -0.028 A 
HETATM   18  C   UNL     1       7.934  21.904  53.279  1.00  0.00     0.010 A 
HETATM   19  C   UNL     1       7.476  23.084  52.695  1.00  0.00     0.003 A 
HETATM   20  C   UNL     1       7.503  24.279  53.417  1.00  0.00     0.029 A 
BRANCH  17  21
HETATM   21  C   UNL     1       8.920  20.641  55.261  1.00  0.00     0.147 C 
HETATM   22  C   UNL     1       8.022  20.248  56.428  1.00  0.00     0.044 C 
BRANCH  21  23
HETATM   23  O   UNL     1       8.966  19.563  54.327  1.00  0.00    -0.391 OA
HETATM   24  H   UNL     1       9.687  18.976  54.611  1.00  0.00     0.210 HD
ENDBRANCH  21  23
ENDBRANCH  17  21
ENDBRANCH  12  15
ENDBRANCH   1  11
BRANCH   8  25
HETATM   25  C   UNL     1      10.504  30.372  57.291  1.00  0.00     0.409 C 
HETATM   26  F   UNL     1      10.013  30.192  56.045  1.00  0.00    -0.169 F 
HETATM   27  F   UNL     1      10.621  31.699  57.500  1.00  0.00    -0.169 F 
HETATM   28  F   UNL     1      11.767  29.869  57.284  1.00  0.00    -0.169 F 
ENDBRANCH   8  25
BRANCH   6  29
HETATM   29  C   UNL     1       7.086  32.116  59.877  1.00  0.00    -0.035 A 
HETATM   30  C   UNL     1       5.704  32.321  59.698  1.00  0.00     0.012 A 
HETATM   31  C   UNL     1       4.940  32.943  60.684  1.00  0.00     0.043 A 
HETATM   32  C   UNL     1       5.555  33.372  61.854  1.00  0.00     0.116 A 
HETATM   33  F   UNL     1       4.825  33.980  62.797  1.00  0.00    -0.206 F 
HETATM   34  C   UNL     1       6.918  33.188  62.052  1.00  0.00     0.043 A 
HETATM   35  C   UNL     1       7.685  32.560  61.068  1.00  0.00     0.012 A 
ENDBRANCH   6  29
TORSDOF 6
ENDMDL
MODEL 3
REMARK VINA RESULT:     -10.6      4.073      9.882
REMARK  6 active torsions:
REMARK  status: ('A' for Active; 'I' for Inactive)
REMARK    1  A    between atoms: C_2  and  O_3 
REMARK    2  A    between atoms: C_2  and  C_4 
REMARK    3  A    between atoms: C_6  and  N_7 
REMARK       I    between atoms: N_7  and  C_8 
REMARK    4  A    between atoms: C_8  and  C_9 
REMARK    5  A    between atoms: C_14  and  C_15 
REMARK    6  A    between atoms: C_23  and  C_24 
ROOT
HETATM    1  C   UNL     1       7.311  27.912  57.106  1.00  0.00     0.148 A 
HETATM    2  N   UNL     1       8.611  28.070  57.452  1.00  0.00    -0.165 NA
HETATM    3  N   UNL     1       8.631  29.292  58.018  1.00  0.00    -0.240 N 
HETATM    4  C   UNL     1       7.402  29.878  58.122  1.00  0.00     0.123 A 
HETATM    5  N   UNL     1       7.236  31.046  58.774  1.00  0.00    -0.366 N 
HETATM    6  C   UNL     1       8.282  31.638  59.605  1.00  0.00     0.118 C 
HETATM    7  C   UNL     1       9.439  30.647  59.866  1.00  0.00     0.066 C 
HETATM    8  C   UNL     1       9.829  29.864  58.602  1.00  0.00     0.221 C 
HETATM    9  C   UNL     1       6.531  29.039  57.486  1.00  0.00     0.089 A 
HETATM   10  H   UNL     1       6.318  31.484  58.841  1.00  0.00     0.161 HD
ENDROOT
BRANCH   1  11
HETATM   11  C   UNL     1       6.807  26.688  56.456  1.00  0.00     0.276 C 
HETATM   12  N   UNL     1       7.812  25.986  55.822  1.00  0.00    -0.322 N 
HETATM   13  H   UNL     1       8.719  26.440  55.873  1.00  0.00     0.169 HD
HETATM   14  O   UNL     1       5.622  26.381  56.517  1.00  0.00    -0.266 OA
BRANCH  12  15
HETATM   15  C   UNL     1       7.720  24.756  55.147  1.00  0.00     0.035 A 
HETATM   16  C   UNL     1       7.798  23.515  55.784  1.00  0.00     0.039 A 
HETATM   17  C   UNL     1       7.709  22.313  55.055  1.00  0.00    -0.028 A 
HETATM   18  C   UNL     1       7.528  22.381  53.668  1.00  0.00     0.010 A 
HETATM   19  C   UNL     1       7.454  23.615  53.023  1.00  0.00     0.003 A 
HETATM   20  C   UNL     1       7.553  24.797  53.760  1.00  0.00     0.029 A 
BRANCH  17  21
HETATM   21  C   UNL     1       7.777  20.993  55.791  1.00  0.00     0.147 C 
HETATM   22  C   UNL     1       8.644  19.984  55.046  1.00  0.00     0.044 C 
BRANCH  21  23
HETATM   23  O   UNL     1       8.305  21.179  57.104  1.00  0.00    -0.391 OA
HETATM   24  H   UNL     1       8.628  20.313  57.402  1.00  0.00     0.210 HD
ENDBRANCH  21  23
ENDBRANCH  17  21
ENDBRANCH  12  15
ENDBRANCH   1  11
BRANCH   8  25
HETATM   25  C   UNL     1      10.547  30.715  57.582  1.00  0.00     0.409 C 
HETATM   26  F   UNL     1      11.874  30.465  57.544  1.00  0.00    -0.169 F 
HETATM   27  F   UNL     1      10.066  30.581  56.329  1.00  0.00    -0.169 F 
HETATM   28  F   UNL     1      10.412  32.028  57.908  1.00  0.00    -0.169 F 
ENDBRANCH   8  25
BRANCH   6  29
HETATM   29  C   UNL     1       7.642  32.110  60.902  1.00  0.00    -0.035 A 
HETATM   30  C   UNL     1       6.316  32.585  60.925  1.00  0.00     0.012 A 
HETATM   31  C   UNL     1       5.743  33.050  62.108  1.00  0.00     0.043 A 
HETATM   32  C   UNL     1       6.495  33.051  63.275  1.00  0.00     0.116 A 
HETATM   33  F   UNL     1       5.951  33.508  64.410  1.00  0.00    -0.206 F 
HETATM   34  C   UNL     1       7.808  32.594  63.279  1.00  0.00     0.043 A 
HETATM   35  C   UNL     1       8.383  32.123  62.096  1.00  0.00     0.012 A 
ENDBRANCH   6  29
TORSDOF 6
ENDMDL
MODEL 4
REMARK VINA RESULT:     -10.1      5.410      9.459
REMARK  6 active torsions:
REMARK  status: ('A' for Active; 'I' for Inactive)
REMARK    1  A    between atoms: C_2  and  O_3 
REMARK    2  A    between atoms: C_2  and  C_4 
REMARK    3  A    between atoms: C_6  and  N_7 
REMARK       I    between atoms: N_7  and  C_8 
REMARK    4  A    between atoms: C_8  and  C_9 
REMARK    5  A    between atoms: C_14  and  C_15 
REMARK    6  A    between atoms: C_23  and  C_24 
ROOT
HETATM    1  C   UNL     1       4.921  26.432  50.528  1.00  0.00     0.148 A 
HETATM    2  N   UNL     1       5.823  27.147  51.244  1.00  0.00    -0.165 NA
HETATM    3  N   UNL     1       6.041  26.371  52.323  1.00  0.00    -0.240 N 
HETATM    4  C   UNL     1       5.390  25.171  52.288  1.00  0.00     0.123 A 
HETATM    5  N   UNL     1       5.599  24.232  53.232  1.00  0.00    -0.366 N 
HETATM    6  C   UNL     1       6.687  24.322  54.203  1.00  0.00     0.118 C 
HETATM    7  C   UNL     1       7.697  25.432  53.832  1.00  0.00     0.066 C 
HETATM    8  C   UNL     1       7.001  26.716  53.354  1.00  0.00     0.221 C 
HETATM    9  C   UNL     1       4.607  25.201  51.168  1.00  0.00     0.089 A 
HETATM   10  H   UNL     1       5.104  23.341  53.206  1.00  0.00     0.161 HD
ENDROOT
BRANCH   1  11
HETATM   11  C   UNL     1       4.392  26.896  49.232  1.00  0.00     0.276 C 
HETATM   12  N   UNL     1       3.241  27.644  49.379  1.00  0.00    -0.322 N 
HETATM   13  H   UNL     1       2.928  27.721  50.342  1.00  0.00     0.169 HD
HETATM   14  O   UNL     1       4.962  26.623  48.182  1.00  0.00    -0.266 OA
BRANCH  12  15
HETATM   15  C   UNL     1       2.492  28.290  48.381  1.00  0.00     0.035 A 
HETATM   16  C   UNL     1       1.399  27.708  47.733  1.00  0.00     0.039 A 
HETATM   17  C   UNL     1       0.690  28.399  46.732  1.00  0.00    -0.028 A 
HETATM   18  C   UNL     1       1.092  29.699  46.400  1.00  0.00     0.010 A 
HETATM   19  C   UNL     1       2.184  30.286  47.038  1.00  0.00     0.003 A 
HETATM   20  C   UNL     1       2.882  29.583  48.022  1.00  0.00     0.029 A 
BRANCH  17  21
HETATM   21  C   UNL     1      -0.499  27.736  46.074  1.00  0.00     0.147 C 
HETATM   22  C   UNL     1      -1.537  28.762  45.634  1.00  0.00     0.044 C 
BRANCH  21  23
HETATM   23  O   UNL     1      -0.084  26.978  44.937  1.00  0.00    -0.391 OA
HETATM   24  H   UNL     1       0.295  27.609  44.303  1.00  0.00     0.210 HD
ENDBRANCH  21  23
ENDBRANCH  17  21
ENDBRANCH  12  15
ENDBRANCH   1  11
BRANCH   8  25
HETATM   25  C   UNL     1       6.314  27.463  54.473  1.00  0.00     0.409 C 
HETATM   26  F   UNL     1       5.010  27.132  54.589  1.00  0.00    -0.169 F 
HETATM   27  F   UNL     1       6.894  27.286  55.677  1.00  0.00    -0.169 F 
HETATM   28  F   UNL     1       6.351  28.798  54.218  1.00  0.00    -0.169 F 
ENDBRANCH   8  25
BRANCH   6  29
HETATM   29  C   UNL     1       7.356  22.958  54.290  1.00  0.00    -0.035 A 
HETATM   30  C   UNL     1       7.588  22.344  55.537  1.00  0.00     0.012 A 
HETATM   31  C   UNL     1       8.233  21.111  55.617  1.00  0.00     0.043 A 
HETATM   32  C   UNL     1       8.658  20.486  54.452  1.00  0.00     0.116 A 
HETATM   33  F   UNL     1       9.287  19.308  54.527  1.00  0.00    -0.206 F 
HETATM   34  C   UNL     1       8.446  21.074  53.209  1.00  0.00     0.043 A 
HETATM   35  C   UNL     1       7.796  22.307  53.126  1.00  0.00     0.012 A 
ENDBRANCH   6  29
TORSDOF 6
ENDMDL
MODEL 5
REMARK VINA RESULT:      -9.8      4.951      9.225
REMARK  6 active torsions:
REMARK  status: ('A' for Active; 'I' for Inactive)
REMARK    1  A    between atoms: C_2  and  O_3 
REMARK    2  A    between atoms: C_2  and  C_4 
REMARK    3  A    between atoms: C_6  and  N_7 
REMARK       I    between atoms: N_7  and  C_8 
REMARK    4  A    between atoms: C_8  and  C_9 
REMARK    5  A    between atoms: C_14  and  C_15 
REMARK    6  A    between atoms: C_23  and  C_24 
ROOT
HETATM    1  C   UNL     1       5.027  27.126  51.193  1.00  0.00     0.148 A 
HETATM    2  N   UNL     1       5.866  27.729  52.069  1.00  0.00    -0.165 NA
HETATM    3  N   UNL     1       6.044  26.790  53.019  1.00  0.00    -0.240 N 
HETATM    4  C   UNL     1       5.429  25.601  52.748  1.00  0.00     0.123 A 
HETATM    5  N   UNL     1       5.610  24.524  53.537  1.00  0.00    -0.366 N 
HETATM    6  C   UNL     1       6.638  24.472  54.574  1.00  0.00     0.118 C 
HETATM    7  C   UNL     1       7.637  25.645  54.452  1.00  0.00     0.066 C 
HETATM    8  C   UNL     1       6.934  26.978  54.148  1.00  0.00     0.221 C 
HETATM    9  C   UNL     1       4.710  25.801  51.603  1.00  0.00     0.089 A 
HETATM   10  H   UNL     1       5.142  23.640  53.336  1.00  0.00     0.161 HD
ENDROOT
BRANCH   1  11
HETATM   11  C   UNL     1       4.560  27.787  49.961  1.00  0.00     0.276 C 
HETATM   12  N   UNL     1       3.183  27.872  49.906  1.00  0.00    -0.322 N 
HETATM   13  H   UNL     1       2.719  27.437  50.698  1.00  0.00     0.169 HD
HETATM   14  O   UNL     1       5.355  28.200  49.124  1.00  0.00    -0.266 OA
BRANCH  12  15
HETATM   15  C   UNL     1       2.388  28.478  48.918  1.00  0.00     0.035 A 
HETATM   16  C   UNL     1       1.530  27.771  48.073  1.00  0.00     0.039 A 
HETATM   17  C   UNL     1       0.763  28.430  47.093  1.00  0.00    -0.028 A 
HETATM   18  C   UNL     1       0.864  29.823  46.985  1.00  0.00     0.010 A 
HETATM   19  C   UNL     1       1.721  30.536  47.822  1.00  0.00     0.003 A 
HETATM   20  C   UNL     1       2.482  29.866  48.782  1.00  0.00     0.029 A 
BRANCH  17  21
HETATM   21  C   UNL     1      -0.168  27.624  46.214  1.00  0.00     0.147 C 
HETATM   22  C   UNL     1      -0.853  28.503  45.174  1.00  0.00     0.044 C 
BRANCH  21  23
HETATM   23  O   UNL     1       0.549  26.586  45.545  1.00  0.00    -0.391 OA
HETATM   24  H   UNL     1       1.231  26.273  46.163  1.00  0.00     0.210 HD
ENDBRANCH  21  23
ENDBRANCH  17  21
ENDBRANCH  12  15
ENDBRANCH   1  11
BRANCH   8  25
HETATM   25  C   UNL     1       6.164  27.518  55.330  1.00  0.00     0.409 C 
HETATM   26  F   UNL     1       6.199  28.867  55.394  1.00  0.00    -0.169 F 
HETATM   27  F   UNL     1       4.870  27.138  55.354  1.00  0.00    -0.169 F 
HETATM   28  F   UNL     1       6.722  27.063  56.483  1.00  0.00    -0.169 F 
ENDBRANCH   8  25
BRANCH   6  29
HETATM   29  C   UNL     1       7.338  23.125  54.478  1.00  0.00    -0.035 A 
HETATM   30  C   UNL     1       7.680  22.574  53.227  1.00  0.00     0.012 A 
HETATM   31  C   UNL     1       8.290  21.323  53.139  1.00  0.00     0.043 A 
HETATM   32  C   UNL     1       8.555  20.611  54.301  1.00  0.00     0.116 A 
HETATM   33  F   UNL     1       9.130  19.405  54.219  1.00  0.00    -0.206 F 
HETATM   34  C   UNL     1       8.222  21.129  55.548  1.00  0.00     0.043 A 
HETATM   35  C   UNL     1       7.615  22.384  55.639  1.00  0.00     0.012 A 
ENDBRANCH   6  29
TORSDOF 6
ENDMDL
MODEL 6
REMARK VINA RESULT:      -9.8      2.479      4.833
REMARK  6 active torsions:
REMARK  status: ('A' for Active; 'I' for Inactive)
REMARK    1  A    between atoms: C_2  and  O_3 
REMARK    2  A    between atoms: C_2  and  C_4 
REMARK    3  A    between atoms: C_6  and  N_7 
REMARK       I    between atoms: N_7  and  C_8 
REMARK    4  A    between atoms: C_8  and  C_9 
REMARK    5  A    between atoms: C_14  and  C_15 
REMARK    6  A    between atoms: C_23  and  C_24 
ROOT
HETATM    1  C   UNL     1       6.998  27.171  56.070  1.00  0.00     0.148 A 
HETATM    2  N   UNL     1       7.881  26.357  55.442  1.00  0.00    -0.165 NA
HETATM    3  N   UNL     1       7.193  25.929  54.366  1.00  0.00    -0.240 N 
HETATM    4  C   UNL     1       5.954  26.491  54.238  1.00  0.00     0.123 A 
HETATM    5  N   UNL     1       5.190  26.261  53.152  1.00  0.00    -0.366 N 
HETATM    6  C   UNL     1       5.706  25.608  51.951  1.00  0.00     0.118 C 
HETATM    7  C   UNL     1       7.247  25.494  51.977  1.00  0.00     0.066 C 
HETATM    8  C   UNL     1       7.775  25.068  53.357  1.00  0.00     0.221 C 
HETATM    9  C   UNL     1       5.770  27.254  55.357  1.00  0.00     0.089 A 
HETATM   10  H   UNL     1       4.263  26.675  53.065  1.00  0.00     0.161 HD
ENDROOT
BRANCH   1  11
HETATM   11  C   UNL     1       7.329  27.890  57.314  1.00  0.00     0.276 C 
HETATM   12  N   UNL     1       6.986  29.226  57.248  1.00  0.00    -0.322 N 
HETATM   13  H   UNL     1       6.600  29.502  56.349  1.00  0.00     0.169 HD
HETATM   14  O   UNL     1       7.839  27.309  58.264  1.00  0.00    -0.266 OA
BRANCH  12  15
HETATM   15  C   UNL     1       7.102  30.203  58.251  1.00  0.00     0.035 A 
HETATM   16  C   UNL     1       8.008  30.123  59.311  1.00  0.00     0.039 A 
HETATM   17  C   UNL     1       8.074  31.128  60.294  1.00  0.00    -0.028 A 
HETATM   18  C   UNL     1       7.216  32.230  60.186  1.00  0.00     0.010 A 
HETATM   19  C   UNL     1       6.305  32.317  59.134  1.00  0.00     0.003 A 
HETATM   20  C   UNL     1       6.247  31.306  58.172  1.00  0.00     0.029 A 
BRANCH  17  21
HETATM   21  C   UNL     1       9.086  31.007  61.412  1.00  0.00     0.147 C 
HETATM   22  C   UNL     1       8.803  32.004  62.530  1.00  0.00     0.044 C 
BRANCH  21  23
HETATM   23  O   UNL     1       9.078  29.687  61.953  1.00  0.00    -0.391 OA
HETATM   24  H   UNL     1       8.346  29.212  61.525  1.00  0.00     0.210 HD
ENDBRANCH  21  23
ENDBRANCH  17  21
ENDBRANCH  12  15
ENDBRANCH   1  11
BRANCH   8  25
HETATM   25  C   UNL     1       7.481  23.621  53.677  1.00  0.00     0.409 C 
HETATM   26  F   UNL     1       6.402  23.480  54.477  1.00  0.00    -0.169 F 
HETATM   27  F   UNL     1       7.288  22.854  52.585  1.00  0.00    -0.169 F 
HETATM   28  F   UNL     1       8.532  23.080  54.348  1.00  0.00    -0.169 F 
ENDBRANCH   8  25
BRANCH   6  29
HETATM   29  C   UNL     1       5.221  26.394  50.742  1.00  0.00    -0.035 A 
HETATM   30  C   UNL     1       5.473  27.776  50.628  1.00  0.00     0.012 A 
HETATM   31  C   UNL     1       4.997  28.502  49.537  1.00  0.00     0.043 A 
HETATM   32  C   UNL     1       4.259  27.852  48.555  1.00  0.00     0.116 A 
HETATM   33  F   UNL     1       3.792  28.549  47.512  1.00  0.00    -0.206 F 
HETATM   34  C   UNL     1       3.992  26.491  48.647  1.00  0.00     0.043 A 
HETATM   35  C   UNL     1       4.471  25.760  49.737  1.00  0.00     0.012 A 
ENDBRANCH   6  29
TORSDOF 6
ENDMDL
MODEL 7
REMARK VINA RESULT:      -9.8      4.193      9.975
REMARK  6 active torsions:
REMARK  status: ('A' for Active; 'I' for Inactive)
REMARK    1  A    between atoms: C_2  and  O_3 
REMARK    2  A    between atoms: C_2  and  C_4 
REMARK    3  A    between atoms: C_6  and  N_7 
REMARK       I    between atoms: N_7  and  C_8 
REMARK    4  A    between atoms: C_8  and  C_9 
REMARK    5  A    between atoms: C_14  and  C_15 
REMARK    6  A    between atoms: C_23  and  C_24 
ROOT
HETATM    1  C   UNL     1       7.101  27.521  57.281  1.00  0.00     0.148 A 
HETATM    2  N   UNL     1       8.231  27.871  57.941  1.00  0.00    -0.165 NA
HETATM    3  N   UNL     1       8.023  29.167  58.241  1.00  0.00    -0.240 N 
HETATM    4  C   UNL     1       6.791  29.632  57.878  1.00  0.00     0.123 A 
HETATM    5  N   UNL     1       6.382  30.870  58.215  1.00  0.00    -0.366 N 
HETATM    6  C   UNL     1       7.104  31.703  59.175  1.00  0.00     0.118 C 
HETATM    7  C   UNL     1       8.179  30.897  59.939  1.00  0.00     0.066 C 
HETATM    8  C   UNL     1       8.964  29.953  59.014  1.00  0.00     0.221 C 
HETATM    9  C   UNL     1       6.189  28.609  57.199  1.00  0.00     0.089 A 
HETATM   10  H   UNL     1       5.465  31.216  57.935  1.00  0.00     0.161 HD
ENDROOT
BRANCH   1  11
HETATM   11  C   UNL     1       6.873  26.158  56.767  1.00  0.00     0.276 C 
HETATM   12  N   UNL     1       8.040  25.422  56.711  1.00  0.00    -0.322 N 
HETATM   13  H   UNL     1       8.863  25.945  56.994  1.00  0.00     0.169 HD
HETATM   14  O   UNL     1       5.750  25.780  56.453  1.00  0.00    -0.266 OA
BRANCH  12  15
HETATM   15  C   UNL     1       8.203  24.080  56.328  1.00  0.00     0.035 A 
HETATM   16  C   UNL     1       8.278  23.657  54.998  1.00  0.00     0.039 A 
HETATM   17  C   UNL     1       8.433  22.296  54.672  1.00  0.00    -0.028 A 
HETATM   18  C   UNL     1       8.525  21.363  55.711  1.00  0.00     0.010 A 
HETATM   19  C   UNL     1       8.446  21.774  57.041  1.00  0.00     0.003 A 
HETATM   20  C   UNL     1       8.283  23.127  57.347  1.00  0.00     0.029 A 
BRANCH  17  21
HETATM   21  C   UNL     1       8.531  21.889  53.218  1.00  0.00     0.147 C 
HETATM   22  C   UNL     1       7.949  20.499  52.988  1.00  0.00     0.044 C 
BRANCH  21  23
HETATM   23  O   UNL     1       7.840  22.825  52.389  1.00  0.00    -0.391 OA
HETATM   24  H   UNL     1       8.449  23.066  51.671  1.00  0.00     0.210 HD
ENDBRANCH  21  23
ENDBRANCH  17  21
ENDBRANCH  12  15
ENDBRANCH   1  11
BRANCH   8  25
HETATM   25  C   UNL     1       9.909  30.686  58.091  1.00  0.00     0.409 C 
HETATM   26  F   UNL     1       9.392  30.859  56.856  1.00  0.00    -0.169 F 
HETATM   27  F   UNL     1      10.287  31.895  58.554  1.00  0.00    -0.169 F 
HETATM   28  F   UNL     1      11.047  29.959  57.934  1.00  0.00    -0.169 F 
ENDBRANCH   8  25
BRANCH   6  29
HETATM   29  C   UNL     1       6.087  32.322  60.122  1.00  0.00    -0.035 A 
HETATM   30  C   UNL     1       6.486  32.863  61.360  1.00  0.00     0.012 A 
HETATM   31  C   UNL     1       5.549  33.398  62.242  1.00  0.00     0.043 A 
HETATM   32  C   UNL     1       4.204  33.389  61.896  1.00  0.00     0.116 A 
HETATM   33  F   UNL     1       3.300  33.892  62.746  1.00  0.00    -0.206 F 
HETATM   34  C   UNL     1       3.783  32.855  60.683  1.00  0.00     0.043 A 
HETATM   35  C   UNL     1       4.721  32.323  59.795  1.00  0.00     0.012 A 
ENDBRANCH   6  29
TORSDOF 6
ENDMDL
MODEL 8
REMARK VINA RESULT:      -9.7      7.929     11.791
REMARK  6 active torsions:
REMARK  status: ('A' for Active; 'I' for Inactive)
REMARK    1  A    between atoms: C_2  and  O_3 
REMARK    2  A    between atoms: C_2  and  C_4 
REMARK    3  A    between atoms: C_6  and  N_7 
REMARK       I    between atoms: N_7  and  C_8 
REMARK    4  A    between atoms: C_8  and  C_9 
REMARK    5  A    between atoms: C_14  and  C_15 
REMARK    6  A    between atoms: C_23  and  C_24 
ROOT
HETATM    1  C   UNL     1       5.618  34.014  66.144  1.00  0.00     0.148 A 
HETATM    2  N   UNL     1       4.535  33.468  65.539  1.00  0.00    -0.165 NA
HETATM    3  N   UNL     1       4.867  33.498  64.233  1.00  0.00    -0.240 N 
HETATM    4  C   UNL     1       6.130  33.956  63.989  1.00  0.00     0.123 A 
HETATM    5  N   UNL     1       6.655  33.933  62.749  1.00  0.00    -0.366 N 
HETATM    6  C   UNL     1       6.028  33.214  61.642  1.00  0.00     0.118 C 
HETATM    7  C   UNL     1       4.897  32.282  62.131  1.00  0.00     0.066 C 
HETATM    8  C   UNL     1       4.014  32.949  63.197  1.00  0.00     0.221 C 
HETATM    9  C   UNL     1       6.624  34.357  65.199  1.00  0.00     0.089 A 
HETATM   10  H   UNL     1       7.596  34.284  62.570  1.00  0.00     0.161 HD
ENDROOT
BRANCH   1  11
HETATM   11  C   UNL     1       5.712  34.172  67.607  1.00  0.00     0.276 C 
HETATM   12  N   UNL     1       6.963  34.602  68.003  1.00  0.00    -0.322 N 
HETATM   13  H   UNL     1       7.619  34.702  67.235  1.00  0.00     0.169 HD
HETATM   14  O   UNL     1       4.751  33.943  68.331  1.00  0.00    -0.266 OA
BRANCH  12  15
HETATM   15  C   UNL     1       7.404  34.911  69.301  1.00  0.00     0.035 A 
HETATM   16  C   UNL     1       7.547  36.216  69.782  1.00  0.00     0.039 A 
HETATM   17  C   UNL     1       8.003  36.466  71.090  1.00  0.00    -0.028 A 
HETATM   18  C   UNL     1       8.304  35.377  71.916  1.00  0.00     0.010 A 
HETATM   19  C   UNL     1       8.169  34.072  71.444  1.00  0.00     0.003 A 
HETATM   20  C   UNL     1       7.724  33.841  70.141  1.00  0.00     0.029 A 
BRANCH  17  21
HETATM   21  C   UNL     1       8.121  37.895  71.572  1.00  0.00     0.147 C 
HETATM   22  C   UNL     1       7.823  38.007  73.063  1.00  0.00     0.044 C 
BRANCH  21  23
HETATM   23  O   UNL     1       9.433  38.401  71.322  1.00  0.00    -0.391 OA
HETATM   24  H   UNL     1       9.936  38.297  72.147  1.00  0.00     0.210 HD
ENDBRANCH  21  23
ENDBRANCH  17  21
ENDBRANCH  12  15
ENDBRANCH   1  11
BRANCH   8  25
HETATM   25  C   UNL     1       3.124  34.031  62.631  1.00  0.00     0.409 C 
HETATM   26  F   UNL     1       3.641  35.266  62.806  1.00  0.00    -0.169 F 
HETATM   27  F   UNL     1       2.856  33.878  61.318  1.00  0.00    -0.169 F 
HETATM   28  F   UNL     1       1.927  34.019  63.274  1.00  0.00    -0.169 F 
ENDBRANCH   8  25
BRANCH   6  29
HETATM   29  C   UNL     1       7.114  32.443  60.905  1.00  0.00    -0.035 A 
HETATM   30  C   UNL     1       8.379  32.236  61.490  1.00  0.00     0.012 A 
HETATM   31  C   UNL     1       9.383  31.560  60.799  1.00  0.00     0.043 A 
HETATM   32  C   UNL     1       9.133  31.094  59.515  1.00  0.00     0.116 A 
HETATM   33  F   UNL     1      10.100  30.455  58.845  1.00  0.00    -0.206 F 
HETATM   34  C   UNL     1       7.895  31.291  58.913  1.00  0.00     0.043 A 
HETATM   35  C   UNL     1       6.885  31.963  59.604  1.00  0.00     0.012 A 
ENDBRANCH   6  29
TORSDOF 6
ENDMDL
MODEL 9
REMARK VINA RESULT:      -9.7      5.762      9.512
REMARK  6 active torsions:
REMARK  status: ('A' for Active; 'I' for Inactive)
REMARK    1  A    between atoms: C_2  and  O_3 
REMARK    2  A    between atoms: C_2  and  C_4 
REMARK    3  A    between atoms: C_6  and  N_7 
REMARK       I    between atoms: N_7  and  C_8 
REMARK    4  A    between atoms: C_8  and  C_9 
REMARK    5  A    between atoms: C_14  and  C_15 
REMARK    6  A    between atoms: C_23  and  C_24 
ROOT
HETATM    1  C   UNL     1       5.071  26.538  51.785  1.00  0.00     0.148 A 
HETATM    2  N   UNL     1       5.121  25.910  50.585  1.00  0.00    -0.165 NA
HETATM    3  N   UNL     1       4.618  26.828  49.737  1.00  0.00    -0.240 N 
HETATM    4  C   UNL     1       4.330  28.028  50.322  1.00  0.00     0.123 A 
HETATM    5  N   UNL     1       3.935  29.087  49.589  1.00  0.00    -0.366 N 
HETATM    6  C   UNL     1       4.014  29.108  48.130  1.00  0.00     0.118 C 
HETATM    7  C   UNL     1       4.851  27.928  47.584  1.00  0.00     0.066 C 
HETATM    8  C   UNL     1       4.535  26.608  48.307  1.00  0.00     0.221 C 
HETATM    9  C   UNL     1       4.553  27.858  51.660  1.00  0.00     0.089 A 
HETATM   10  H   UNL     1       3.712  29.979  50.030  1.00  0.00     0.161 HD
ENDROOT
BRANCH   1  11
HETATM   11  C   UNL     1       5.544  25.907  53.030  1.00  0.00     0.276 C 
HETATM   12  N   UNL     1       6.469  24.912  52.789  1.00  0.00    -0.322 N 
HETATM   13  H   UNL     1       6.644  24.751  51.801  1.00  0.00     0.169 HD
HETATM   14  O   UNL     1       5.132  26.277  54.123  1.00  0.00    -0.266 OA
BRANCH  12  15
HETATM   15  C   UNL     1       7.173  24.133  53.724  1.00  0.00     0.035 A 
HETATM   16  C   UNL     1       7.348  22.752  53.608  1.00  0.00     0.039 A 
HETATM   17  C   UNL     1       8.054  22.021  54.582  1.00  0.00    -0.028 A 
HETATM   18  C   UNL     1       8.596  22.707  55.675  1.00  0.00     0.010 A 
HETATM   19  C   UNL     1       8.423  24.084  55.802  1.00  0.00     0.003 A 
HETATM   20  C   UNL     1       7.711  24.794  54.832  1.00  0.00     0.029 A 
BRANCH  17  21
HETATM   21  C   UNL     1       8.236  20.530  54.401  1.00  0.00     0.147 C 
HETATM   22  C   UNL     1       8.683  20.190  52.984  1.00  0.00     0.044 C 
BRANCH  21  23
HETATM   23  O   UNL     1       9.201  20.028  55.325  1.00  0.00    -0.391 OA
HETATM   24  H   UNL     1      10.013  19.856  54.818  1.00  0.00     0.210 HD
ENDBRANCH  21  23
ENDBRANCH  17  21
ENDBRANCH  12  15
ENDBRANCH   1  11
BRANCH   8  25
HETATM   25  C   UNL     1       3.178  26.051  47.945  1.00  0.00     0.409 C 
HETATM   26  F   UNL     1       3.088  24.723  48.177  1.00  0.00    -0.169 F 
HETATM   27  F   UNL     1       2.157  26.652  48.589  1.00  0.00    -0.169 F 
HETATM   28  F   UNL     1       2.954  26.226  46.616  1.00  0.00    -0.169 F 
ENDBRANCH   8  25
BRANCH   6  29
HETATM   29  C   UNL     1       4.593  30.450  47.708  1.00  0.00    -0.035 A 
HETATM   30  C   UNL     1       4.571  30.856  46.359  1.00  0.00     0.012 A 
HETATM   31  C   UNL     1       5.133  32.071  45.968  1.00  0.00     0.043 A 
HETATM   32  C   UNL     1       5.729  32.884  46.923  1.00  0.00     0.116 A 
HETATM   33  F   UNL     1       6.280  34.045  46.549  1.00  0.00    -0.206 F 
HETATM   34  C   UNL     1       5.771  32.504  48.260  1.00  0.00     0.043 A 
HETATM   35  C   UNL     1       5.204  31.290  48.654  1.00  0.00     0.012 A 
ENDBRANCH   6  29
TORSDOF 6
ENDMDL
MODEL 10
REMARK VINA RESULT:      -9.6      2.108      2.401
REMARK  6 active torsions:
REMARK  status: ('A' for Active; 'I' for Inactive)
REMARK    1  A    between atoms: C_2  and  O_3 
REMARK    2  A    between atoms: C_2  and  C_4 
REMARK    3  A    between atoms: C_6  and  N_7 
REMARK       I    between atoms: N_7  and  C_8 
REMARK    4  A    between atoms: C_8  and  C_9 
REMARK    5  A    between atoms: C_14  and  C_15 
REMARK    6  A    between atoms: C_23  and  C_24 
ROOT
HETATM    1  C   UNL     1       5.885  28.672  54.963  1.00  0.00     0.148 A 
HETATM    2  N   UNL     1       4.915  28.148  54.175  1.00  0.00    -0.165 NA
HETATM    3  N   UNL     1       5.513  27.072  53.628  1.00  0.00    -0.240 N 
HETATM    4  C   UNL     1       6.779  26.843  54.088  1.00  0.00     0.123 A 
HETATM    5  N   UNL     1       7.465  25.740  53.731  1.00  0.00    -0.366 N 
HETATM    6  C   UNL     1       6.841  24.615  53.039  1.00  0.00     0.118 C 
HETATM    7  C   UNL     1       5.299  24.725  53.038  1.00  0.00     0.066 C 
HETATM    8  C   UNL     1       4.819  26.156  52.745  1.00  0.00     0.221 C 
HETATM    9  C   UNL     1       7.075  27.895  54.910  1.00  0.00     0.089 A 
HETATM   10  H   UNL     1       8.412  25.577  54.071  1.00  0.00     0.161 HD
ENDROOT
BRANCH   1  11
HETATM   11  C   UNL     1       5.673  29.876  55.786  1.00  0.00     0.276 C 
HETATM   12  N   UNL     1       6.191  29.734  57.058  1.00  0.00    -0.322 N 
HETATM   13  H   UNL     1       6.597  28.819  57.231  1.00  0.00     0.169 HD
HETATM   14  O   UNL     1       5.103  30.861  55.331  1.00  0.00    -0.266 OA
BRANCH  12  15
HETATM   15  C   UNL     1       6.223  30.683  58.095  1.00  0.00     0.035 A 
HETATM   16  C   UNL     1       5.104  31.403  58.521  1.00  0.00     0.039 A 
HETATM   17  C   UNL     1       5.197  32.350  59.559  1.00  0.00    -0.028 A 
HETATM   18  C   UNL     1       6.438  32.552  60.175  1.00  0.00     0.010 A 
HETATM   19  C   UNL     1       7.560  31.841  59.754  1.00  0.00     0.003 A 
HETATM   20  C   UNL     1       7.453  30.912  58.716  1.00  0.00     0.029 A 
BRANCH  17  21
HETATM   21  C   UNL     1       3.953  33.090  60.000  1.00  0.00     0.147 C 
HETATM   22  C   UNL     1       3.339  33.881  58.850  1.00  0.00     0.044 C 
BRANCH  21  23
HETATM   23  O   UNL     1       2.980  32.177  60.507  1.00  0.00    -0.391 OA
HETATM   24  H   UNL     1       3.152  32.084  61.459  1.00  0.00     0.210 HD
ENDBRANCH  21  23
ENDBRANCH  17  21
ENDBRANCH  12  15
ENDBRANCH   1  11
BRANCH   8  25
HETATM   25  C   UNL     1       5.030  26.563  51.305  1.00  0.00     0.409 C 
HETATM   26  F   UNL     1       4.164  27.520  50.908  1.00  0.00    -0.169 F 
HETATM   27  F   UNL     1       6.278  27.002  51.044  1.00  0.00    -0.169 F 
HETATM   28  F   UNL     1       4.820  25.492  50.494  1.00  0.00    -0.169 F 
ENDBRANCH   8  25
BRANCH   6  29
HETATM   29  C   UNL     1       7.312  23.330  53.705  1.00  0.00    -0.035 A 
HETATM   30  C   UNL     1       7.268  23.183  55.105  1.00  0.00     0.012 A 
HETATM   31  C   UNL     1       7.734  22.020  55.717  1.00  0.00     0.043 A 
HETATM   32  C   UNL     1       8.253  20.998  54.932  1.00  0.00     0.116 A 
HETATM   33  F   UNL     1       8.710  19.885  55.517  1.00  0.00    -0.206 F 
HETATM   34  C   UNL     1       8.313  21.121  53.548  1.00  0.00     0.043 A 
HETATM   35  C   UNL     1       7.843  22.284  52.933  1.00  0.00     0.012 A 
ENDBRANCH   6  29
TORSDOF 6
ENDMDL
