MODEL 1
REMARK VINA RESULT:      -9.7      0.000      0.000
REMARK  7 active torsions:
REMARK  status: ('A' for Active; 'I' for Inactive)
REMARK    1  A    between atoms: N_3  and  N_4 
REMARK       I    between atoms: N_4  and  C_5 
REMARK    2  A    between atoms: C_5  and  C_6 
REMARK    3  A    between atoms: C_9  and  O_10 
REMARK    4  A    between atoms: O_10  and  C_11 
REMARK    5  A    between atoms: C_11  and  C_12 
REMARK       I    between atoms: C_12  and  N_13 
REMARK    6  A    between atoms: N_13  and  C_14 
REMARK    7  A    between atoms: C_15  and  O_16 
ROOT
HETATM    1  C   UNL     1       6.871  26.569  56.432  1.00  0.00     0.033 A 
HETATM    2  C   UNL     1       5.759  27.375  56.697  1.00  0.00     0.020 A 
HETATM    3  C   UNL     1       5.931  28.603  57.343  1.00  0.00     0.038 A 
HETATM    4  C   UNL     1       7.202  29.025  57.741  1.00  0.00     0.069 A 
HETATM    5  C   UNL     1       8.314  28.233  57.446  1.00  0.00     0.038 A 
HETATM    6  C   UNL     1       8.149  27.010  56.787  1.00  0.00     0.020 A 
ENDROOT
BRANCH   4   7
HETATM    7  O   UNL     1       7.236  30.229  58.393  1.00  0.00    -0.342 OA
BRANCH   7   8
HETATM    8  C   UNL     1       8.304  30.421  59.315  1.00  0.00     0.278 C 
BRANCH   8   9
HETATM    9  C   UNL     1       8.099  31.610  60.260  1.00  0.00     0.246 C 
HETATM   10  N   UNL     1       7.322  31.280  61.353  1.00  0.00    -0.323 N 
HETATM   11  H   UNL     1       6.898  30.356  61.369  1.00  0.00     0.169 HD
HETATM   12  O   UNL     1       8.580  32.711  60.007  1.00  0.00    -0.271 OA
BRANCH  10  13
HETATM   13  C   UNL     1       7.031  32.064  62.488  1.00  0.00     0.068 A 
HETATM   14  C   UNL     1       5.676  32.379  62.721  1.00  0.00     0.095 A 
HETATM   15  C   UNL     1       5.317  33.111  63.857  1.00  0.00     0.039 A 
HETATM   16  C   UNL     1       6.299  33.539  64.752  1.00  0.00     0.003 A 
HETATM   17  C   UNL     1       7.638  33.240  64.516  1.00  0.00     0.002 A 
HETATM   18  C   UNL     1       8.005  32.504  63.386  1.00  0.00     0.032 A 
BRANCH  14  19
HETATM   19  O   UNL     1       4.784  31.911  61.783  1.00  0.00    -0.354 OA
HETATM   20  C   UNL     1       3.619  32.704  61.572  1.00  0.00     0.210 C 
ENDBRANCH  14  19
ENDBRANCH  10  13
ENDBRANCH   8   9
ENDBRANCH   7   8
ENDBRANCH   4   7
BRANCH   1  21
HETATM   21  C   UNL     1       6.734  25.252  55.760  1.00  0.00     0.270 C 
HETATM   22  N   UNL     1       7.917  24.704  55.325  1.00  0.00    -0.259 N 
HETATM   23  H   UNL     1       8.784  25.216  55.293  1.00  0.00     0.191 HD
HETATM   24  O   UNL     1       5.621  24.766  55.607  1.00  0.00    -0.266 OA
BRANCH  22  25
HETATM   25  N   UNL     1       7.904  23.557  54.623  1.00  0.00    -0.263 N 
HETATM   26  C   UNL     1       8.123  22.332  55.191  1.00  0.00     0.030 A 
HETATM   27  C   UNL     1       8.193  22.113  56.657  1.00  0.00     0.070 C 
HETATM   28  C   UNL     1       8.233  21.431  54.148  1.00  0.00     0.028 A 
HETATM   29  C   UNL     1       8.106  22.156  52.935  1.00  0.00     0.028 A 
HETATM   30  C   UNL     1       7.925  23.489  53.257  1.00  0.00     0.030 A 
HETATM   31  C   UNL     1       7.731  24.665  52.370  1.00  0.00     0.070 C 
ENDBRANCH  22  25
ENDBRANCH   1  21
TORSDOF 7
ENDMDL
MODEL 2
REMARK VINA RESULT:      -9.6      1.617     10.525
REMARK  7 active torsions:
REMARK  status: ('A' for Active; 'I' for Inactive)
REMARK    1  A    between atoms: N_3  and  N_4 
REMARK       I    between atoms: N_4  and  C_5 
REMARK    2  A    between atoms: C_5  and  C_6 
REMARK    3  A    between atoms: C_9  and  O_10 
REMARK    4  A    between atoms: O_10  and  C_11 
REMARK    5  A    between atoms: C_11  and  C_12 
REMARK       I    between atoms: C_12  and  N_13 
REMARK    6  A    between atoms: N_13  and  C_14 
REMARK    7  A    between atoms: C_15  and  O_16 
ROOT
HETATM    1  C   UNL     1       7.273  30.327  58.060  1.00  0.00     0.033 A 
HETATM    2  C   UNL     1       7.936  29.122  57.808  1.00  0.00     0.020 A 
HETATM    3  C   UNL     1       7.498  28.295  56.769  1.00  0.00     0.038 A 
HETATM    4  C   UNL     1       6.393  28.653  55.992  1.00  0.00     0.069 A 
HETATM    5  C   UNL     1       5.754  29.872  56.226  1.00  0.00     0.038 A 
HETATM    6  C   UNL     1       6.197  30.710  57.255  1.00  0.00     0.020 A 
ENDROOT
BRANCH   4   7
HETATM    7  O   UNL     1       6.043  27.745  55.028  1.00  0.00    -0.342 OA
BRANCH   7   8
HETATM    8  C   UNL     1       7.104  26.987  54.457  1.00  0.00     0.278 C 
BRANCH   8   9
HETATM    9  C   UNL     1       6.878  25.471  54.507  1.00  0.00     0.246 C 
HETATM   10  N   UNL     1       7.948  24.767  53.991  1.00  0.00    -0.323 N 
HETATM   11  H   UNL     1       8.697  25.298  53.556  1.00  0.00     0.169 HD
HETATM   12  O   UNL     1       5.834  25.000  54.949  1.00  0.00    -0.271 OA
BRANCH  10  13
HETATM   13  C   UNL     1       8.159  23.372  53.989  1.00  0.00     0.068 A 
HETATM   14  C   UNL     1       8.814  22.820  55.109  1.00  0.00     0.095 A 
HETATM   15  C   UNL     1       9.008  21.438  55.191  1.00  0.00     0.039 A 
HETATM   16  C   UNL     1       8.565  20.608  54.159  1.00  0.00     0.003 A 
HETATM   17  C   UNL     1       7.930  21.154  53.047  1.00  0.00     0.002 A 
HETATM   18  C   UNL     1       7.727  22.534  52.960  1.00  0.00     0.032 A 
BRANCH  14  19
HETATM   19  O   UNL     1       9.211  23.720  56.073  1.00  0.00    -0.354 OA
HETATM   20  C   UNL     1       8.538  23.637  57.326  1.00  0.00     0.210 C 
ENDBRANCH  14  19
ENDBRANCH  10  13
ENDBRANCH   8   9
ENDBRANCH   7   8
ENDBRANCH   4   7
BRANCH   1  21
HETATM   21  C   UNL     1       7.695  31.230  59.161  1.00  0.00     0.270 C 
HETATM   22  N   UNL     1       7.109  30.967  60.376  1.00  0.00    -0.259 N 
HETATM   23  H   UNL     1       6.327  30.340  60.487  1.00  0.00     0.191 HD
HETATM   24  O   UNL     1       8.480  32.141  58.928  1.00  0.00    -0.266 OA
BRANCH  22  25
HETATM   25  N   UNL     1       7.346  31.777  61.422  1.00  0.00    -0.263 N 
HETATM   26  C   UNL     1       8.261  31.486  62.397  1.00  0.00     0.030 A 
HETATM   27  C   UNL     1       9.227  30.364  62.302  1.00  0.00     0.070 C 
HETATM   28  C   UNL     1       8.086  32.430  63.392  1.00  0.00     0.028 A 
HETATM   29  C   UNL     1       7.016  33.276  63.002  1.00  0.00     0.028 A 
HETATM   30  C   UNL     1       6.552  32.833  61.776  1.00  0.00     0.030 A 
HETATM   31  C   UNL     1       5.460  33.365  60.921  1.00  0.00     0.070 C 
ENDBRANCH  22  25
ENDBRANCH   1  21
TORSDOF 7
ENDMDL
MODEL 3
REMARK VINA RESULT:      -9.5      0.966      1.956
REMARK  7 active torsions:
REMARK  status: ('A' for Active; 'I' for Inactive)
REMARK    1  A    between atoms: N_3  and  N_4 
REMARK       I    between atoms: N_4  and  C_5 
REMARK    2  A    between atoms: C_5  and  C_6 
REMARK    3  A    between atoms: C_9  and  O_10 
REMARK    4  A    between atoms: O_10  and  C_11 
REMARK    5  A    between atoms: C_11  and  C_12 
REMARK       I    between atoms: C_12  and  N_13 
REMARK    6  A    between atoms: N_13  and  C_14 
REMARK    7  A    between atoms: C_15  and  O_16 
ROOT
HETATM    1  C   UNL     1       7.016  26.016  56.213  1.00  0.00     0.033 A 
HETATM    2  C   UNL     1       7.914  26.339  57.235  1.00  0.00     0.020 A 
HETATM    3  C   UNL     1       7.941  27.639  57.748  1.00  0.00     0.038 A 
HETATM    4  C   UNL     1       7.091  28.624  57.237  1.00  0.00     0.069 A 
HETATM    5  C   UNL     1       6.173  28.289  56.239  1.00  0.00     0.038 A 
HETATM    6  C   UNL     1       6.132  26.986  55.732  1.00  0.00     0.020 A 
ENDROOT
BRANCH   4   7
HETATM    7  O   UNL     1       7.235  29.864  57.799  1.00  0.00    -0.342 OA
BRANCH   7   8
HETATM    8  C   UNL     1       8.490  30.137  58.416  1.00  0.00     0.278 C 
BRANCH   8   9
HETATM    9  C   UNL     1       8.465  31.347  59.357  1.00  0.00     0.246 C 
HETATM   10  N   UNL     1       7.606  31.162  60.423  1.00  0.00    -0.323 N 
HETATM   11  H   UNL     1       7.026  30.326  60.422  1.00  0.00     0.169 HD
HETATM   12  O   UNL     1       9.140  32.345  59.124  1.00  0.00    -0.271 OA
BRANCH  10  13
HETATM   13  C   UNL     1       7.419  31.988  61.550  1.00  0.00     0.068 A 
HETATM   14  C   UNL     1       6.341  32.897  61.509  1.00  0.00     0.095 A 
HETATM   15  C   UNL     1       6.073  33.708  62.615  1.00  0.00     0.039 A 
HETATM   16  C   UNL     1       6.878  33.628  63.753  1.00  0.00     0.003 A 
HETATM   17  C   UNL     1       7.950  32.741  63.789  1.00  0.00     0.002 A 
HETATM   18  C   UNL     1       8.222  31.922  62.690  1.00  0.00     0.032 A 
BRANCH  14  19
HETATM   19  O   UNL     1       5.607  32.900  60.345  1.00  0.00    -0.354 OA
HETATM   20  C   UNL     1       4.220  32.598  60.475  1.00  0.00     0.210 C 
ENDBRANCH  14  19
ENDBRANCH  10  13
ENDBRANCH   8   9
ENDBRANCH   7   8
ENDBRANCH   4   7
BRANCH   1  21
HETATM   21  C   UNL     1       6.962  24.651  55.629  1.00  0.00     0.270 C 
HETATM   22  N   UNL     1       8.182  24.135  55.263  1.00  0.00    -0.259 N 
HETATM   23  H   UNL     1       9.024  24.687  55.220  1.00  0.00     0.191 HD
HETATM   24  O   UNL     1       5.878  24.101  55.479  1.00  0.00    -0.266 OA
BRANCH  22  25
HETATM   25  N   UNL     1       8.245  22.945  54.640  1.00  0.00    -0.263 N 
HETATM   26  C   UNL     1       8.029  22.794  53.298  1.00  0.00     0.030 A 
HETATM   27  C   UNL     1       7.909  23.936  52.356  1.00  0.00     0.070 C 
HETATM   28  C   UNL     1       7.978  21.433  53.060  1.00  0.00     0.028 A 
HETATM   29  C   UNL     1       8.134  20.771  54.305  1.00  0.00     0.028 A 
HETATM   30  C   UNL     1       8.276  21.739  55.284  1.00  0.00     0.030 A 
HETATM   31  C   UNL     1       8.479  21.591  56.748  1.00  0.00     0.070 C 
ENDBRANCH  22  25
ENDBRANCH   1  21
TORSDOF 7
ENDMDL
MODEL 4
REMARK VINA RESULT:      -9.2      1.098      1.907
REMARK  7 active torsions:
REMARK  status: ('A' for Active; 'I' for Inactive)
REMARK    1  A    between atoms: N_3  and  N_4 
REMARK       I    between atoms: N_4  and  C_5 
REMARK    2  A    between atoms: C_5  and  C_6 
REMARK    3  A    between atoms: C_9  and  O_10 
REMARK    4  A    between atoms: O_10  and  C_11 
REMARK    5  A    between atoms: C_11  and  C_12 
REMARK       I    between atoms: C_12  and  N_13 
REMARK    6  A    between atoms: N_13  and  C_14 
REMARK    7  A    between atoms: C_15  and  O_16 
ROOT
HETATM    1  C   UNL     1       6.868  26.882  56.480  1.00  0.00     0.033 A 
HETATM    2  C   UNL     1       5.808  27.793  56.518  1.00  0.00     0.020 A 
HETATM    3  C   UNL     1       5.983  29.032  57.142  1.00  0.00     0.038 A 
HETATM    4  C   UNL     1       7.202  29.362  57.741  1.00  0.00     0.069 A 
HETATM    5  C   UNL     1       8.267  28.462  57.672  1.00  0.00     0.038 A 
HETATM    6  C   UNL     1       8.102  27.226  57.038  1.00  0.00     0.020 A 
ENDROOT
BRANCH   4   7
HETATM    7  O   UNL     1       7.237  30.590  58.347  1.00  0.00    -0.342 OA
BRANCH   7   8
HETATM    8  C   UNL     1       6.014  31.319  58.371  1.00  0.00     0.278 C 
BRANCH   8   9
HETATM    9  C   UNL     1       5.834  32.183  59.625  1.00  0.00     0.246 C 
HETATM   10  N   UNL     1       6.344  31.574  60.755  1.00  0.00    -0.323 N 
HETATM   11  H   UNL     1       6.678  30.618  60.666  1.00  0.00     0.169 HD
HETATM   12  O   UNL     1       5.274  33.273  59.569  1.00  0.00    -0.271 OA
BRANCH  10  13
HETATM   13  C   UNL     1       6.478  32.110  62.053  1.00  0.00     0.068 A 
HETATM   14  C   UNL     1       7.788  32.252  62.557  1.00  0.00     0.095 A 
HETATM   15  C   UNL     1       7.990  32.824  63.817  1.00  0.00     0.039 A 
HETATM   16  C   UNL     1       6.898  33.241  64.579  1.00  0.00     0.003 A 
HETATM   17  C   UNL     1       5.604  33.089  64.087  1.00  0.00     0.002 A 
HETATM   18  C   UNL     1       5.392  32.524  62.827  1.00  0.00     0.032 A 
BRANCH  14  19
HETATM   19  O   UNL     1       8.797  31.812  61.730  1.00  0.00    -0.354 OA
HETATM   20  C   UNL     1       9.303  30.507  61.995  1.00  0.00     0.210 C 
ENDBRANCH  14  19
ENDBRANCH  10  13
ENDBRANCH   8   9
ENDBRANCH   7   8
ENDBRANCH   4   7
BRANCH   1  21
HETATM   21  C   UNL     1       6.723  25.549  55.841  1.00  0.00     0.270 C 
HETATM   22  N   UNL     1       7.882  25.040  55.305  1.00  0.00    -0.259 N 
HETATM   23  H   UNL     1       8.722  25.585  55.188  1.00  0.00     0.191 HD
HETATM   24  O   UNL     1       5.621  25.017  55.797  1.00  0.00    -0.266 OA
BRANCH  22  25
HETATM   25  N   UNL     1       7.851  23.882  54.622  1.00  0.00    -0.263 N 
HETATM   26  C   UNL     1       8.147  22.674  55.190  1.00  0.00     0.030 A 
HETATM   27  C   UNL     1       8.330  22.480  56.650  1.00  0.00     0.070 C 
HETATM   28  C   UNL     1       8.207  21.759  54.155  1.00  0.00     0.028 A 
HETATM   29  C   UNL     1       7.971  22.460  52.944  1.00  0.00     0.028 A 
HETATM   30  C   UNL     1       7.776  23.794  53.260  1.00  0.00     0.030 A 
HETATM   31  C   UNL     1       7.484  24.949  52.373  1.00  0.00     0.070 C 
ENDBRANCH  22  25
ENDBRANCH   1  21
TORSDOF 7
ENDMDL
MODEL 5
REMARK VINA RESULT:      -9.1      1.487     10.945
REMARK  7 active torsions:
REMARK  status: ('A' for Active; 'I' for Inactive)
REMARK    1  A    between atoms: N_3  and  N_4 
REMARK       I    between atoms: N_4  and  C_5 
REMARK    2  A    between atoms: C_5  and  C_6 
REMARK    3  A    between atoms: C_9  and  O_10 
REMARK    4  A    between atoms: O_10  and  C_11 
REMARK    5  A    between atoms: C_11  and  C_12 
REMARK       I    between atoms: C_12  and  N_13 
REMARK    6  A    between atoms: N_13  and  C_14 
REMARK    7  A    between atoms: C_15  and  O_16 
ROOT
HETATM    1  C   UNL     1       7.638  30.690  58.722  1.00  0.00     0.033 A 
HETATM    2  C   UNL     1       8.811  29.967  58.480  1.00  0.00     0.020 A 
HETATM    3  C   UNL     1       8.783  28.873  57.610  1.00  0.00     0.038 A 
HETATM    4  C   UNL     1       7.590  28.486  56.992  1.00  0.00     0.069 A 
HETATM    5  C   UNL     1       6.429  29.230  57.211  1.00  0.00     0.038 A 
HETATM    6  C   UNL     1       6.455  30.333  58.070  1.00  0.00     0.020 A 
ENDROOT
BRANCH   4   7
HETATM    7  O   UNL     1       7.686  27.380  56.189  1.00  0.00    -0.342 OA
BRANCH   7   8
HETATM    8  C   UNL     1       7.877  26.133  56.848  1.00  0.00     0.278 C 
BRANCH   8   9
HETATM    9  C   UNL     1       7.292  24.936  56.089  1.00  0.00     0.246 C 
HETATM   10  N   UNL     1       8.274  24.132  55.546  1.00  0.00    -0.323 N 
HETATM   11  H   UNL     1       9.237  24.452  55.612  1.00  0.00     0.169 HD
HETATM   12  O   UNL     1       6.078  24.779  55.993  1.00  0.00    -0.271 OA
BRANCH  10  13
HETATM   13  C   UNL     1       8.128  22.886  54.901  1.00  0.00     0.068 A 
HETATM   14  C   UNL     1       8.121  22.891  53.490  1.00  0.00     0.095 A 
HETATM   15  C   UNL     1       8.030  21.683  52.792  1.00  0.00     0.039 A 
HETATM   16  C   UNL     1       7.933  20.478  53.488  1.00  0.00     0.003 A 
HETATM   17  C   UNL     1       7.927  20.474  54.881  1.00  0.00     0.002 A 
HETATM   18  C   UNL     1       8.023  21.675  55.588  1.00  0.00     0.032 A 
BRANCH  14  19
HETATM   19  O   UNL     1       8.223  24.128  52.896  1.00  0.00    -0.354 OA
HETATM   20  C   UNL     1       7.026  24.654  52.330  1.00  0.00     0.210 C 
ENDBRANCH  14  19
ENDBRANCH  10  13
ENDBRANCH   8   9
ENDBRANCH   7   8
ENDBRANCH   4   7
BRANCH   1  21
HETATM   21  C   UNL     1       7.619  31.850  59.649  1.00  0.00     0.270 C 
HETATM   22  N   UNL     1       6.594  31.835  60.565  1.00  0.00    -0.259 N 
HETATM   23  H   UNL     1       5.814  31.199  60.510  1.00  0.00     0.191 HD
HETATM   24  O   UNL     1       8.458  32.734  59.529  1.00  0.00    -0.266 OA
BRANCH  22  25
HETATM   25  N   UNL     1       6.423  32.879  61.395  1.00  0.00    -0.263 N 
HETATM   26  C   UNL     1       7.027  32.966  62.619  1.00  0.00     0.030 A 
HETATM   27  C   UNL     1       8.087  32.030  63.074  1.00  0.00     0.070 C 
HETATM   28  C   UNL     1       6.467  34.057  63.256  1.00  0.00     0.028 A 
HETATM   29  C   UNL     1       5.484  34.604  62.392  1.00  0.00     0.028 A 
HETATM   30  C   UNL     1       5.457  33.835  61.242  1.00  0.00     0.030 A 
HETATM   31  C   UNL     1       4.623  33.977  60.021  1.00  0.00     0.070 C 
ENDBRANCH  22  25
ENDBRANCH   1  21
TORSDOF 7
ENDMDL
MODEL 6
REMARK VINA RESULT:      -9.0      1.267      2.239
REMARK  7 active torsions:
REMARK  status: ('A' for Active; 'I' for Inactive)
REMARK    1  A    between atoms: N_3  and  N_4 
REMARK       I    between atoms: N_4  and  C_5 
REMARK    2  A    between atoms: C_5  and  C_6 
REMARK    3  A    between atoms: C_9  and  O_10 
REMARK    4  A    between atoms: O_10  and  C_11 
REMARK    5  A    between atoms: C_11  and  C_12 
REMARK       I    between atoms: C_12  and  N_13 
REMARK    6  A    between atoms: N_13  and  C_14 
REMARK    7  A    between atoms: C_15  and  O_16 
ROOT
HETATM    1  C   UNL     1       6.456  27.251  56.525  1.00  0.00     0.033 A 
HETATM    2  C   UNL     1       7.523  27.782  57.257  1.00  0.00     0.020 A 
HETATM    3  C   UNL     1       7.416  29.062  57.807  1.00  0.00     0.038 A 
HETATM    4  C   UNL     1       6.260  29.824  57.618  1.00  0.00     0.069 A 
HETATM    5  C   UNL     1       5.185  29.278  56.914  1.00  0.00     0.038 A 
HETATM    6  C   UNL     1       5.281  27.992  56.373  1.00  0.00     0.020 A 
ENDROOT
BRANCH   4   7
HETATM    7  O   UNL     1       6.290  31.074  58.179  1.00  0.00    -0.342 OA
BRANCH   7   8
HETATM    8  C   UNL     1       5.104  31.500  58.841  1.00  0.00     0.278 C 
BRANCH   8   9
HETATM    9  C   UNL     1       5.359  32.458  60.010  1.00  0.00     0.246 C 
HETATM   10  N   UNL     1       5.756  31.793  61.153  1.00  0.00    -0.323 N 
HETATM   11  H   UNL     1       5.742  30.776  61.137  1.00  0.00     0.169 HD
HETATM   12  O   UNL     1       5.190  33.667  59.887  1.00  0.00    -0.271 OA
BRANCH  10  13
HETATM   13  C   UNL     1       6.202  32.340  62.374  1.00  0.00     0.068 A 
HETATM   14  C   UNL     1       5.213  32.723  63.305  1.00  0.00     0.095 A 
HETATM   15  C   UNL     1       5.591  33.225  64.554  1.00  0.00     0.039 A 
HETATM   16  C   UNL     1       6.943  33.360  64.873  1.00  0.00     0.003 A 
HETATM   17  C   UNL     1       7.919  32.994  63.950  1.00  0.00     0.002 A 
HETATM   18  C   UNL     1       7.551  32.485  62.702  1.00  0.00     0.032 A 
BRANCH  14  19
HETATM   19  O   UNL     1       3.910  32.550  62.897  1.00  0.00    -0.354 OA
HETATM   20  C   UNL     1       3.130  33.736  62.766  1.00  0.00     0.210 C 
ENDBRANCH  14  19
ENDBRANCH  10  13
ENDBRANCH   8   9
ENDBRANCH   7   8
ENDBRANCH   4   7
BRANCH   1  21
HETATM   21  C   UNL     1       6.531  25.901  55.910  1.00  0.00     0.270 C 
HETATM   22  N   UNL     1       7.770  25.559  55.425  1.00  0.00    -0.259 N 
HETATM   23  H   UNL     1       8.525  26.220  55.324  1.00  0.00     0.191 HD
HETATM   24  O   UNL     1       5.520  25.213  55.841  1.00  0.00    -0.266 OA
BRANCH  22  25
HETATM   25  N   UNL     1       7.934  24.398  54.767  1.00  0.00    -0.263 N 
HETATM   26  C   UNL     1       7.718  24.266  53.423  1.00  0.00     0.030 A 
HETATM   27  C   UNL     1       7.486  25.419  52.516  1.00  0.00     0.070 C 
HETATM   28  C   UNL     1       7.787  22.914  53.146  1.00  0.00     0.028 A 
HETATM   29  C   UNL     1       8.016  22.233  54.369  1.00  0.00     0.028 A 
HETATM   30  C   UNL     1       8.080  23.182  55.375  1.00  0.00     0.030 A 
HETATM   31  C   UNL     1       8.311  23.011  56.832  1.00  0.00     0.070 C 
ENDBRANCH  22  25
ENDBRANCH   1  21
TORSDOF 7
ENDMDL
MODEL 7
REMARK VINA RESULT:      -8.7      2.349     11.214
REMARK  7 active torsions:
REMARK  status: ('A' for Active; 'I' for Inactive)
REMARK    1  A    between atoms: N_3  and  N_4 
REMARK       I    between atoms: N_4  and  C_5 
REMARK    2  A    between atoms: C_5  and  C_6 
REMARK    3  A    between atoms: C_9  and  O_10 
REMARK    4  A    between atoms: O_10  and  C_11 
REMARK    5  A    between atoms: C_11  and  C_12 
REMARK       I    between atoms: C_12  and  N_13 
REMARK    6  A    between atoms: N_13  and  C_14 
REMARK    7  A    between atoms: C_15  and  O_16 
ROOT
HETATM    1  C   UNL     1       6.880  32.819  62.021  1.00  0.00     0.033 A 
HETATM    2  C   UNL     1       7.947  32.001  62.408  1.00  0.00     0.020 A 
HETATM    3  C   UNL     1       8.478  31.081  61.499  1.00  0.00     0.038 A 
HETATM    4  C   UNL     1       7.943  30.959  60.214  1.00  0.00     0.069 A 
HETATM    5  C   UNL     1       6.899  31.800  59.822  1.00  0.00     0.038 A 
HETATM    6  C   UNL     1       6.373  32.732  60.722  1.00  0.00     0.020 A 
ENDROOT
BRANCH   4   7
HETATM    7  O   UNL     1       8.528  30.001  59.430  1.00  0.00    -0.342 OA
BRANCH   7   8
HETATM    8  C   UNL     1       7.748  29.505  58.346  1.00  0.00     0.278 C 
BRANCH   8   9
HETATM    9  C   UNL     1       8.421  28.368  57.569  1.00  0.00     0.246 C 
HETATM   10  N   UNL     1       7.634  27.235  57.518  1.00  0.00    -0.323 N 
HETATM   11  H   UNL     1       6.774  27.232  58.061  1.00  0.00     0.169 HD
HETATM   12  O   UNL     1       9.542  28.505  57.089  1.00  0.00    -0.271 OA
BRANCH  10  13
HETATM   13  C   UNL     1       7.856  26.047  56.790  1.00  0.00     0.068 A 
HETATM   14  C   UNL     1       7.403  26.018  55.455  1.00  0.00     0.095 A 
HETATM   15  C   UNL     1       7.638  24.888  54.665  1.00  0.00     0.039 A 
HETATM   16  C   UNL     1       8.308  23.787  55.201  1.00  0.00     0.003 A 
HETATM   17  C   UNL     1       8.745  23.811  56.523  1.00  0.00     0.002 A 
HETATM   18  C   UNL     1       8.519  24.938  57.318  1.00  0.00     0.032 A 
BRANCH  14  19
HETATM   19  O   UNL     1       6.754  27.151  55.019  1.00  0.00    -0.354 OA
HETATM   20  C   UNL     1       7.407  27.894  53.993  1.00  0.00     0.210 C 
ENDBRANCH  14  19
ENDBRANCH  10  13
ENDBRANCH   8   9
ENDBRANCH   7   8
ENDBRANCH   4   7
BRANCH   1  21
HETATM   21  C   UNL     1       6.275  33.801  62.957  1.00  0.00     0.270 C 
HETATM   22  N   UNL     1       5.598  33.243  64.015  1.00  0.00    -0.259 N 
HETATM   23  H   UNL     1       5.369  32.263  64.068  1.00  0.00     0.191 HD
HETATM   24  O   UNL     1       6.378  34.999  62.725  1.00  0.00    -0.266 OA
BRANCH  22  25
HETATM   25  N   UNL     1       4.933  34.034  64.875  1.00  0.00    -0.263 N 
HETATM   26  C   UNL     1       5.419  34.367  66.110  1.00  0.00     0.030 A 
HETATM   27  C   UNL     1       6.805  34.068  66.550  1.00  0.00     0.070 C 
HETATM   28  C   UNL     1       4.392  35.012  66.774  1.00  0.00     0.028 A 
HETATM   29  C   UNL     1       3.263  35.026  65.915  1.00  0.00     0.028 A 
HETATM   30  C   UNL     1       3.619  34.386  64.740  1.00  0.00     0.030 A 
HETATM   31  C   UNL     1       2.820  34.136  63.513  1.00  0.00     0.070 C 
ENDBRANCH  22  25
ENDBRANCH   1  21
TORSDOF 7
ENDMDL
MODEL 8
REMARK VINA RESULT:      -8.6      1.328      1.570
REMARK  7 active torsions:
REMARK  status: ('A' for Active; 'I' for Inactive)
REMARK    1  A    between atoms: N_3  and  N_4 
REMARK       I    between atoms: N_4  and  C_5 
REMARK    2  A    between atoms: C_5  and  C_6 
REMARK    3  A    between atoms: C_9  and  O_10 
REMARK    4  A    between atoms: O_10  and  C_11 
REMARK    5  A    between atoms: C_11  and  C_12 
REMARK       I    between atoms: C_12  and  N_13 
REMARK    6  A    between atoms: N_13  and  C_14 
REMARK    7  A    between atoms: C_15  and  O_16 
ROOT
HETATM    1  C   UNL     1       6.751  28.139  56.797  1.00  0.00     0.033 A 
HETATM    2  C   UNL     1       5.926  29.240  56.543  1.00  0.00     0.020 A 
HETATM    3  C   UNL     1       6.156  30.446  57.210  1.00  0.00     0.038 A 
HETATM    4  C   UNL     1       7.193  30.559  58.141  1.00  0.00     0.069 A 
HETATM    5  C   UNL     1       8.033  29.467  58.368  1.00  0.00     0.038 A 
HETATM    6  C   UNL     1       7.816  28.261  57.693  1.00  0.00     0.020 A 
ENDROOT
BRANCH   4   7
HETATM    7  O   UNL     1       7.295  31.780  58.751  1.00  0.00    -0.342 OA
BRANCH   7   8
HETATM    8  C   UNL     1       8.414  31.967  59.612  1.00  0.00     0.278 C 
BRANCH   8   9
HETATM    9  C   UNL     1       8.071  31.862  61.103  1.00  0.00     0.246 C 
HETATM   10  N   UNL     1       7.476  33.013  61.583  1.00  0.00    -0.323 N 
HETATM   11  H   UNL     1       7.422  33.812  60.957  1.00  0.00     0.169 HD
HETATM   12  O   UNL     1       8.339  30.852  61.746  1.00  0.00    -0.271 OA
BRANCH  10  13
HETATM   13  C   UNL     1       6.909  33.240  62.854  1.00  0.00     0.068 A 
HETATM   14  C   UNL     1       5.508  33.390  62.915  1.00  0.00     0.095 A 
HETATM   15  C   UNL     1       4.881  33.567  64.152  1.00  0.00     0.039 A 
HETATM   16  C   UNL     1       5.641  33.608  65.322  1.00  0.00     0.003 A 
HETATM   17  C   UNL     1       7.025  33.472  65.261  1.00  0.00     0.002 A 
HETATM   18  C   UNL     1       7.660  33.289  64.030  1.00  0.00     0.032 A 
BRANCH  14  19
HETATM   19  O   UNL     1       4.848  33.334  61.708  1.00  0.00    -0.354 OA
HETATM   20  C   UNL     1       4.065  34.474  61.366  1.00  0.00     0.210 C 
ENDBRANCH  14  19
ENDBRANCH  10  13
ENDBRANCH   8   9
ENDBRANCH   7   8
ENDBRANCH   4   7
BRANCH   1  21
HETATM   21  C   UNL     1       6.534  26.834  56.122  1.00  0.00     0.270 C 
HETATM   22  N   UNL     1       7.667  26.269  55.588  1.00  0.00    -0.259 N 
HETATM   23  H   UNL     1       8.540  26.765  55.494  1.00  0.00     0.191 HD
HETATM   24  O   UNL     1       5.402  26.372  56.051  1.00  0.00    -0.266 OA
BRANCH  22  25
HETATM   25  N   UNL     1       7.576  25.133  54.874  1.00  0.00    -0.263 N 
HETATM   26  C   UNL     1       7.931  23.910  55.372  1.00  0.00     0.030 A 
HETATM   27  C   UNL     1       8.254  23.672  56.801  1.00  0.00     0.070 C 
HETATM   28  C   UNL     1       7.894  23.028  54.307  1.00  0.00     0.028 A 
HETATM   29  C   UNL     1       7.540  23.765  53.148  1.00  0.00     0.028 A 
HETATM   30  C   UNL     1       7.369  25.087  53.523  1.00  0.00     0.030 A 
HETATM   31  C   UNL     1       6.988  26.267  52.706  1.00  0.00     0.070 C 
ENDBRANCH  22  25
ENDBRANCH   1  21
TORSDOF 7
ENDMDL
MODEL 9
REMARK VINA RESULT:      -8.5      1.541      2.957
REMARK  7 active torsions:
REMARK  status: ('A' for Active; 'I' for Inactive)
REMARK    1  A    between atoms: N_3  and  N_4 
REMARK       I    between atoms: N_4  and  C_5 
REMARK    2  A    between atoms: C_5  and  C_6 
REMARK    3  A    between atoms: C_9  and  O_10 
REMARK    4  A    between atoms: O_10  and  C_11 
REMARK    5  A    between atoms: C_11  and  C_12 
REMARK       I    between atoms: C_12  and  N_13 
REMARK    6  A    between atoms: N_13  and  C_14 
REMARK    7  A    between atoms: C_15  and  O_16 
ROOT
HETATM    1  C   UNL     1       5.934  27.665  56.793  1.00  0.00     0.033 A 
HETATM    2  C   UNL     1       6.865  28.451  57.480  1.00  0.00     0.020 A 
HETATM    3  C   UNL     1       6.564  29.784  57.772  1.00  0.00     0.038 A 
HETATM    4  C   UNL     1       5.348  30.344  57.369  1.00  0.00     0.069 A 
HETATM    5  C   UNL     1       4.408  29.547  56.712  1.00  0.00     0.038 A 
HETATM    6  C   UNL     1       4.698  28.209  56.430  1.00  0.00     0.020 A 
ENDROOT
BRANCH   4   7
HETATM    7  O   UNL     1       5.186  31.667  57.686  1.00  0.00    -0.342 OA
BRANCH   7   8
HETATM    8  C   UNL     1       4.201  31.966  58.670  1.00  0.00     0.278 C 
BRANCH   8   9
HETATM    9  C   UNL     1       4.752  32.719  59.886  1.00  0.00     0.246 C 
HETATM   10  N   UNL     1       5.373  31.875  60.785  1.00  0.00    -0.323 N 
HETATM   11  H   UNL     1       5.315  30.875  60.611  1.00  0.00     0.169 HD
HETATM   12  O   UNL     1       4.606  33.933  60.000  1.00  0.00    -0.271 OA
BRANCH  10  13
HETATM   13  C   UNL     1       6.104  32.214  61.943  1.00  0.00     0.068 A 
HETATM   14  C   UNL     1       7.497  31.989  61.911  1.00  0.00     0.095 A 
HETATM   15  C   UNL     1       8.285  32.351  63.007  1.00  0.00     0.039 A 
HETATM   16  C   UNL     1       7.693  32.921  64.136  1.00  0.00     0.003 A 
HETATM   17  C   UNL     1       6.317  33.131  64.173  1.00  0.00     0.002 A 
HETATM   18  C   UNL     1       5.522  32.778  63.079  1.00  0.00     0.032 A 
BRANCH  14  19
HETATM   19  O   UNL     1       7.984  31.424  60.754  1.00  0.00    -0.354 OA
HETATM   20  C   UNL     1       9.027  32.139  60.097  1.00  0.00     0.210 C 
ENDBRANCH  14  19
ENDBRANCH  10  13
ENDBRANCH   8   9
ENDBRANCH   7   8
ENDBRANCH   4   7
BRANCH   1  21
HETATM   21  C   UNL     1       6.217  26.248  56.449  1.00  0.00     0.270 C 
HETATM   22  N   UNL     1       7.271  26.066  55.587  1.00  0.00    -0.259 N 
HETATM   23  H   UNL     1       7.708  26.821  55.083  1.00  0.00     0.191 HD
HETATM   24  O   UNL     1       5.503  25.362  56.905  1.00  0.00    -0.266 OA
BRANCH  22  25
HETATM   25  N   UNL     1       7.561  24.833  55.136  1.00  0.00    -0.263 N 
HETATM   26  C   UNL     1       6.967  24.285  54.032  1.00  0.00     0.030 A 
HETATM   27  C   UNL     1       6.105  25.056  53.101  1.00  0.00     0.070 C 
HETATM   28  C   UNL     1       7.357  22.959  53.995  1.00  0.00     0.028 A 
HETATM   29  C   UNL     1       8.175  22.718  55.129  1.00  0.00     0.028 A 
HETATM   30  C   UNL     1       8.268  23.900  55.842  1.00  0.00     0.030 A 
HETATM   31  C   UNL     1       9.006  24.201  57.095  1.00  0.00     0.070 C 
ENDBRANCH  22  25
ENDBRANCH   1  21
TORSDOF 7
ENDMDL
MODEL 10
REMARK VINA RESULT:      -8.5      7.360     10.531
REMARK  7 active torsions:
REMARK  status: ('A' for Active; 'I' for Inactive)
REMARK    1  A    between atoms: N_3  and  N_4 
REMARK       I    between atoms: N_4  and  C_5 
REMARK    2  A    between atoms: C_5  and  C_6 
REMARK    3  A    between atoms: C_9  and  O_10 
REMARK    4  A    between atoms: O_10  and  C_11 
REMARK    5  A    between atoms: C_11  and  C_12 
REMARK       I    between atoms: C_12  and  N_13 
REMARK    6  A    between atoms: N_13  and  C_14 
REMARK    7  A    between atoms: C_15  and  O_16 
ROOT
HETATM    1  C   UNL     1       6.742  24.934  53.194  1.00  0.00     0.033 A 
HETATM    2  C   UNL     1       6.688  25.439  51.891  1.00  0.00     0.020 A 
HETATM    3  C   UNL     1       5.792  26.467  51.585  1.00  0.00     0.038 A 
HETATM    4  C   UNL     1       4.938  26.983  52.563  1.00  0.00     0.069 A 
HETATM    5  C   UNL     1       5.019  26.498  53.870  1.00  0.00     0.038 A 
HETATM    6  C   UNL     1       5.923  25.479  54.186  1.00  0.00     0.020 A 
ENDROOT
BRANCH   4   7
HETATM    7  O   UNL     1       4.085  27.964  52.131  1.00  0.00    -0.342 OA
BRANCH   7   8
HETATM    8  C   UNL     1       4.655  28.987  51.321  1.00  0.00     0.278 C 
BRANCH   8   9
HETATM    9  C   UNL     1       4.138  28.993  49.878  1.00  0.00     0.246 C 
HETATM   10  N   UNL     1       2.986  28.246  49.733  1.00  0.00    -0.323 N 
HETATM   11  H   UNL     1       2.668  27.708  50.536  1.00  0.00     0.169 HD
HETATM   12  O   UNL     1       4.737  29.597  48.993  1.00  0.00    -0.271 OA
BRANCH  10  13
HETATM   13  C   UNL     1       2.157  28.125  48.598  1.00  0.00     0.068 A 
HETATM   14  C   UNL     1       2.218  26.910  47.885  1.00  0.00     0.095 A 
HETATM   15  C   UNL     1       1.384  26.710  46.780  1.00  0.00     0.039 A 
HETATM   16  C   UNL     1       0.505  27.716  46.377  1.00  0.00     0.003 A 
HETATM   17  C   UNL     1       0.454  28.921  47.073  1.00  0.00     0.002 A 
HETATM   18  C   UNL     1       1.279  29.127  48.181  1.00  0.00     0.032 A 
BRANCH  14  19
HETATM   19  O   UNL     1       3.115  25.981  48.362  1.00  0.00    -0.354 OA
HETATM   20  C   UNL     1       2.933  24.642  47.911  1.00  0.00     0.210 C 
ENDBRANCH  14  19
ENDBRANCH  10  13
ENDBRANCH   8   9
ENDBRANCH   7   8
ENDBRANCH   4   7
BRANCH   1  21
HETATM   21  C   UNL     1       7.669  23.832  53.562  1.00  0.00     0.270 C 
HETATM   22  N   UNL     1       7.160  22.933  54.468  1.00  0.00    -0.259 N 
HETATM   23  H   UNL     1       6.308  23.090  54.983  1.00  0.00     0.191 HD
HETATM   24  O   UNL     1       8.797  23.809  53.086  1.00  0.00    -0.266 OA
BRANCH  22  25
HETATM   25  N   UNL     1       7.942  21.947  54.942  1.00  0.00    -0.263 N 
HETATM   26  C   UNL     1       8.114  20.755  54.295  1.00  0.00     0.030 A 
HETATM   27  C   UNL     1       7.632  20.499  52.914  1.00  0.00     0.070 C 
HETATM   28  C   UNL     1       8.807  19.933  55.165  1.00  0.00     0.028 A 
HETATM   29  C   UNL     1       9.015  20.655  56.368  1.00  0.00     0.028 A 
HETATM   30  C   UNL     1       8.443  21.906  56.214  1.00  0.00     0.030 A 
HETATM   31  C   UNL     1       8.386  23.050  57.160  1.00  0.00     0.070 C 
ENDBRANCH  22  25
ENDBRANCH   1  21
TORSDOF 7
ENDMDL
