MODEL 1
REMARK VINA RESULT:      -9.7      0.000      0.000
REMARK  4 active torsions:
REMARK  status: ('A' for Active; 'I' for Inactive)
REMARK       I    between atoms: C_2  and  N_3 
REMARK    1  A    between atoms: N_3  and  C_4 
REMARK    2  A    between atoms: C_10  and  C_11 
REMARK    3  A    between atoms: C_14  and  C_15 
REMARK    4  A    between atoms: C_22  and  N_23 
REMARK       I    between atoms: N_23  and  C_24 
ROOT
HETATM    1  C   UNL     1       6.471  30.854  58.820  1.00  0.00     0.010 A 
HETATM    2  C   UNL     1       5.273  30.944  58.097  1.00  0.00     0.016 A 
HETATM    3  C   UNL     1       5.090  30.232  56.907  1.00  0.00     0.017 A 
HETATM    4  C   UNL     1       6.107  29.413  56.400  1.00  0.00     0.017 A 
HETATM    5  C   UNL     1       7.311  29.333  57.114  1.00  0.00     0.017 A 
HETATM    6  C   UNL     1       7.493  30.044  58.310  1.00  0.00     0.016 A 
ENDROOT
BRANCH   1   7
HETATM    7  C   UNL     1       6.601  31.610  60.069  1.00  0.00     0.139 A 
HETATM    8  N   UNL     1       7.572  31.391  61.022  1.00  0.00    -0.338 N 
HETATM    9  C   UNL     1       7.368  32.250  62.070  1.00  0.00     0.063 A 
HETATM   10  H   UNL     1       8.294  30.690  60.970  1.00  0.00     0.167 HD
HETATM   11  C   UNL     1       6.251  32.983  61.697  1.00  0.00     0.088 A 
HETATM   12  C   UNL     1       8.037  32.442  63.277  1.00  0.00     0.034 A 
HETATM   13  C   UNL     1       5.753  33.977  62.557  1.00  0.00     0.063 A 
HETATM   14  N   UNL     1       5.793  32.575  60.470  1.00  0.00    -0.228 NA
HETATM   15  C   UNL     1       6.397  34.202  63.779  1.00  0.00     0.037 A 
HETATM   16  C   UNL     1       7.524  33.436  64.123  1.00  0.00     0.032 A 
BRANCH  15  17
HETATM   17  N   UNL     1       5.979  35.175  64.716  1.00  0.00    -0.327 N 
HETATM   18  C   UNL     1       4.938  35.080  65.621  1.00  0.00     0.218 C 
HETATM   19  C   UNL     1       4.784  36.322  66.466  1.00  0.00     0.117 C 
HETATM   20  O   UNL     1       4.196  34.121  65.793  1.00  0.00    -0.274 OA
HETATM   21  H   UNL     1       6.512  36.035  64.723  1.00  0.00     0.169 HD
ENDBRANCH  15  17
ENDBRANCH   1   7
BRANCH   4  22
HETATM   22  C   UNL     1       5.941  28.655  55.162  1.00  0.00     0.180 A 
HETATM   23  O   UNL     1       6.916  27.729  54.878  1.00  0.00    -0.289 OA
HETATM   24  C   UNL     1       6.524  27.191  53.691  1.00  0.00     0.107 A 
HETATM   25  C   UNL     1       5.344  27.804  53.313  1.00  0.00     0.095 A 
HETATM   26  C   UNL     1       7.167  26.204  52.960  1.00  0.00     0.042 A 
HETATM   27  N   UNL     1       4.982  28.737  54.254  1.00  0.00    -0.221 NA
HETATM   28  C   UNL     1       4.733  27.418  52.112  1.00  0.00     0.064 A 
HETATM   29  C   UNL     1       5.343  26.418  51.330  1.00  0.00     0.037 A 
HETATM   30  C   UNL     1       6.543  25.830  51.760  1.00  0.00     0.032 A 
BRANCH  29  31
HETATM   31  N   UNL     1       4.685  26.064  50.131  1.00  0.00    -0.327 N 
HETATM   32  C   UNL     1       4.671  26.764  48.938  1.00  0.00     0.218 C 
HETATM   33  C   UNL     1       3.861  26.079  47.863  1.00  0.00     0.117 C 
HETATM   34  O   UNL     1       5.220  27.835  48.707  1.00  0.00    -0.274 OA
HETATM   35  H   UNL     1       4.160  25.199  50.158  1.00  0.00     0.169 HD
ENDBRANCH  29  31
ENDBRANCH   4  22
TORSDOF 4
ENDMDL
MODEL 2
REMARK VINA RESULT:      -9.5      2.859     12.513
REMARK  4 active torsions:
REMARK  status: ('A' for Active; 'I' for Inactive)
REMARK       I    between atoms: C_2  and  N_3 
REMARK    1  A    between atoms: N_3  and  C_4 
REMARK    2  A    between atoms: C_10  and  C_11 
REMARK    3  A    between atoms: C_14  and  C_15 
REMARK    4  A    between atoms: C_22  and  N_23 
REMARK       I    between atoms: N_23  and  C_24 
ROOT
HETATM    1  C   UNL     1       7.255  28.593  57.029  1.00  0.00     0.010 A 
HETATM    2  C   UNL     1       8.312  28.765  57.934  1.00  0.00     0.016 A 
HETATM    3  C   UNL     1       8.235  29.705  58.967  1.00  0.00     0.017 A 
HETATM    4  C   UNL     1       7.099  30.508  59.120  1.00  0.00     0.017 A 
HETATM    5  C   UNL     1       6.046  30.349  58.207  1.00  0.00     0.017 A 
HETATM    6  C   UNL     1       6.121  29.403  57.173  1.00  0.00     0.016 A 
ENDROOT
BRANCH   1   7
HETATM    7  C   UNL     1       7.383  27.582  55.976  1.00  0.00     0.139 A 
HETATM    8  N   UNL     1       7.315  27.842  54.625  1.00  0.00    -0.338 N 
HETATM    9  C   UNL     1       7.436  26.661  53.938  1.00  0.00     0.063 A 
HETATM   10  H   UNL     1       7.167  28.748  54.211  1.00  0.00     0.167 HD
HETATM   11  C   UNL     1       7.584  25.704  54.931  1.00  0.00     0.088 A 
HETATM   12  C   UNL     1       7.424  26.355  52.579  1.00  0.00     0.034 A 
HETATM   13  C   UNL     1       7.737  24.353  54.575  1.00  0.00     0.063 A 
HETATM   14  N   UNL     1       7.546  26.285  56.173  1.00  0.00    -0.228 NA
HETATM   15  C   UNL     1       7.731  24.002  53.220  1.00  0.00     0.037 A 
HETATM   16  C   UNL     1       7.575  25.001  52.245  1.00  0.00     0.032 A 
BRANCH  15  17
HETATM   17  N   UNL     1       7.877  22.676  52.755  1.00  0.00    -0.327 N 
HETATM   18  C   UNL     1       8.515  21.626  53.390  1.00  0.00     0.218 C 
HETATM   19  C   UNL     1       8.473  20.347  52.590  1.00  0.00     0.117 C 
HETATM   20  O   UNL     1       9.054  21.647  54.491  1.00  0.00    -0.274 OA
HETATM   21  H   UNL     1       7.459  22.477  51.855  1.00  0.00     0.169 HD
ENDBRANCH  15  17
ENDBRANCH   1   7
BRANCH   4  22
HETATM   22  C   UNL     1       6.990  31.494  60.193  1.00  0.00     0.180 A 
HETATM   23  O   UNL     1       7.726  31.246  61.327  1.00  0.00    -0.289 OA
HETATM   24  C   UNL     1       7.434  32.293  62.146  1.00  0.00     0.107 A 
HETATM   25  C   UNL     1       6.547  33.120  61.481  1.00  0.00     0.095 A 
HETATM   26  C   UNL     1       7.917  32.523  63.424  1.00  0.00     0.042 A 
HETATM   27  N   UNL     1       6.268  32.602  60.240  1.00  0.00    -0.221 NA
HETATM   28  C   UNL     1       6.091  34.280  62.122  1.00  0.00     0.064 A 
HETATM   29  C   UNL     1       6.551  34.564  63.423  1.00  0.00     0.037 A 
HETATM   30  C   UNL     1       7.450  33.689  64.053  1.00  0.00     0.032 A 
BRANCH  29  31
HETATM   31  N   UNL     1       6.063  35.746  64.022  1.00  0.00    -0.327 N 
HETATM   32  C   UNL     1       5.033  35.865  64.938  1.00  0.00     0.218 C 
HETATM   33  C   UNL     1       4.787  37.292  65.366  1.00  0.00     0.117 C 
HETATM   34  O   UNL     1       4.342  34.959  65.389  1.00  0.00    -0.274 OA
HETATM   35  H   UNL     1       6.521  36.603  63.738  1.00  0.00     0.169 HD
ENDBRANCH  29  31
ENDBRANCH   4  22
TORSDOF 4
ENDMDL
MODEL 3
REMARK VINA RESULT:      -9.4      1.224     12.545
REMARK  4 active torsions:
REMARK  status: ('A' for Active; 'I' for Inactive)
REMARK       I    between atoms: C_2  and  N_3 
REMARK    1  A    between atoms: N_3  and  C_4 
REMARK    2  A    between atoms: C_10  and  C_11 
REMARK    3  A    between atoms: C_14  and  C_15 
REMARK    4  A    between atoms: C_22  and  N_23 
REMARK       I    between atoms: N_23  and  C_24 
ROOT
HETATM    1  C   UNL     1       6.041  29.468  56.546  1.00  0.00     0.010 A 
HETATM    2  C   UNL     1       7.232  29.495  57.285  1.00  0.00     0.016 A 
HETATM    3  C   UNL     1       7.335  30.243  58.463  1.00  0.00     0.017 A 
HETATM    4  C   UNL     1       6.249  30.994  58.931  1.00  0.00     0.017 A 
HETATM    5  C   UNL     1       5.062  30.979  58.184  1.00  0.00     0.017 A 
HETATM    6  C   UNL     1       4.957  30.226  57.006  1.00  0.00     0.016 A 
ENDROOT
BRANCH   1   7
HETATM    7  C   UNL     1       5.984  28.654  55.327  1.00  0.00     0.139 A 
HETATM    8  N   UNL     1       6.952  27.754  54.938  1.00  0.00    -0.338 N 
HETATM    9  C   UNL     1       6.590  27.204  53.736  1.00  0.00     0.063 A 
HETATM   10  H   UNL     1       7.803  27.557  55.440  1.00  0.00     0.167 HD
HETATM   11  C   UNL     1       5.376  27.806  53.438  1.00  0.00     0.088 A 
HETATM   12  C   UNL     1       7.200  26.267  52.904  1.00  0.00     0.034 A 
HETATM   13  C   UNL     1       4.706  27.467  52.250  1.00  0.00     0.063 A 
HETATM   14  N   UNL     1       5.022  28.694  54.422  1.00  0.00    -0.228 NA
HETATM   15  C   UNL     1       5.284  26.529  51.387  1.00  0.00     0.037 A 
HETATM   16  C   UNL     1       6.517  25.944  51.723  1.00  0.00     0.032 A 
BRANCH  15  17
HETATM   17  N   UNL     1       4.695  26.118  50.170  1.00  0.00    -0.327 N 
HETATM   18  C   UNL     1       4.634  26.826  48.983  1.00  0.00     0.218 C 
HETATM   19  C   UNL     1       3.924  26.068  47.888  1.00  0.00     0.117 C 
HETATM   20  O   UNL     1       5.103  27.936  48.762  1.00  0.00    -0.274 OA
HETATM   21  H   UNL     1       4.277  25.197  50.173  1.00  0.00     0.169 HD
ENDBRANCH  15  17
ENDBRANCH   1   7
BRANCH   4  22
HETATM   22  C   UNL     1       6.328  31.779  60.161  1.00  0.00     0.180 A 
HETATM   23  O   UNL     1       7.368  31.483  61.009  1.00  0.00    -0.289 OA
HETATM   24  C   UNL     1       7.196  32.337  62.054  1.00  0.00     0.107 A 
HETATM   25  C   UNL     1       6.075  33.105  61.797  1.00  0.00     0.095 A 
HETATM   26  C   UNL     1       7.980  32.447  63.191  1.00  0.00     0.042 A 
HETATM   27  N   UNL     1       5.528  32.741  60.591  1.00  0.00    -0.221 NA
HETATM   28  C   UNL     1       5.684  34.071  62.734  1.00  0.00     0.064 A 
HETATM   29  C   UNL     1       6.447  34.226  63.909  1.00  0.00     0.037 A 
HETATM   30  C   UNL     1       7.575  33.418  64.121  1.00  0.00     0.032 A 
BRANCH  29  31
HETATM   31  N   UNL     1       6.012  35.214  64.819  1.00  0.00    -0.327 N 
HETATM   32  C   UNL     1       4.985  35.120  65.740  1.00  0.00     0.218 C 
HETATM   33  C   UNL     1       4.804  36.380  66.552  1.00  0.00     0.117 C 
HETATM   34  O   UNL     1       4.248  34.158  65.924  1.00  0.00    -0.274 OA
HETATM   35  H   UNL     1       6.513  36.094  64.783  1.00  0.00     0.169 HD
ENDBRANCH  29  31
ENDBRANCH   4  22
TORSDOF 4
ENDMDL
MODEL 4
REMARK VINA RESULT:      -9.3      3.005     12.363
REMARK  4 active torsions:
REMARK  status: ('A' for Active; 'I' for Inactive)
REMARK       I    between atoms: C_2  and  N_3 
REMARK    1  A    between atoms: N_3  and  C_4 
REMARK    2  A    between atoms: C_10  and  C_11 
REMARK    3  A    between atoms: C_14  and  C_15 
REMARK    4  A    between atoms: C_22  and  N_23 
REMARK       I    between atoms: N_23  and  C_24 
ROOT
HETATM    1  C   UNL     1       6.439  28.855  56.693  1.00  0.00     0.010 A 
HETATM    2  C   UNL     1       7.452  29.369  57.515  1.00  0.00     0.016 A 
HETATM    3  C   UNL     1       7.194  30.402  58.421  1.00  0.00     0.017 A 
HETATM    4  C   UNL     1       5.914  30.958  58.527  1.00  0.00     0.017 A 
HETATM    5  C   UNL     1       4.902  30.455  57.695  1.00  0.00     0.017 A 
HETATM    6  C   UNL     1       5.159  29.416  56.789  1.00  0.00     0.016 A 
ENDROOT
BRANCH   1   7
HETATM    7  C   UNL     1       6.762  27.760  55.773  1.00  0.00     0.139 A 
HETATM    8  N   UNL     1       7.159  27.926  54.464  1.00  0.00    -0.338 N 
HETATM    9  C   UNL     1       7.338  26.692  53.894  1.00  0.00     0.063 A 
HETATM   10  H   UNL     1       7.268  28.811  53.994  1.00  0.00     0.167 HD
HETATM   11  C   UNL     1       7.039  25.800  54.913  1.00  0.00     0.088 A 
HETATM   12  C   UNL     1       7.717  26.289  52.615  1.00  0.00     0.034 A 
HETATM   13  C   UNL     1       7.121  24.418  54.672  1.00  0.00     0.063 A 
HETATM   14  N   UNL     1       6.685  26.472  56.056  1.00  0.00    -0.228 NA
HETATM   15  C   UNL     1       7.499  23.971  53.401  1.00  0.00     0.037 A 
HETATM   16  C   UNL     1       7.790  24.907  52.394  1.00  0.00     0.032 A 
BRANCH  15  17
HETATM   17  N   UNL     1       7.612  22.606  53.053  1.00  0.00    -0.327 N 
HETATM   18  C   UNL     1       8.568  21.704  53.482  1.00  0.00     0.218 C 
HETATM   19  C   UNL     1       8.374  20.325  52.899  1.00  0.00     0.117 C 
HETATM   20  O   UNL     1       9.486  21.919  54.265  1.00  0.00    -0.274 OA
HETATM   21  H   UNL     1       6.904  22.253  52.421  1.00  0.00     0.169 HD
ENDBRANCH  15  17
ENDBRANCH   1   7
BRANCH   4  22
HETATM   22  C   UNL     1       5.616  32.035  59.469  1.00  0.00     0.180 A 
HETATM   23  O   UNL     1       4.783  33.030  59.016  1.00  0.00    -0.289 OA
HETATM   24  C   UNL     1       4.688  33.887  60.069  1.00  0.00     0.107 A 
HETATM   25  C   UNL     1       5.456  33.380  61.101  1.00  0.00     0.095 A 
HETATM   26  C   UNL     1       3.964  35.066  60.133  1.00  0.00     0.042 A 
HETATM   27  N   UNL     1       6.045  32.202  60.709  1.00  0.00    -0.221 NA
HETATM   28  C   UNL     1       5.521  34.088  62.309  1.00  0.00     0.064 A 
HETATM   29  C   UNL     1       4.803  35.294  62.429  1.00  0.00     0.037 A 
HETATM   30  C   UNL     1       4.041  35.764  61.348  1.00  0.00     0.032 A 
BRANCH  29  31
HETATM   31  N   UNL     1       4.901  35.967  63.667  1.00  0.00    -0.327 N 
HETATM   32  C   UNL     1       4.267  35.647  64.854  1.00  0.00     0.218 C 
HETATM   33  C   UNL     1       4.611  36.593  65.980  1.00  0.00     0.117 C 
HETATM   34  O   UNL     1       3.486  34.722  65.044  1.00  0.00    -0.274 OA
HETATM   35  H   UNL     1       5.503  36.781  63.678  1.00  0.00     0.169 HD
ENDBRANCH  29  31
ENDBRANCH   4  22
TORSDOF 4
ENDMDL
MODEL 5
REMARK VINA RESULT:      -9.2      2.598      3.694
REMARK  4 active torsions:
REMARK  status: ('A' for Active; 'I' for Inactive)
REMARK       I    between atoms: C_2  and  N_3 
REMARK    1  A    between atoms: N_3  and  C_4 
REMARK    2  A    between atoms: C_10  and  C_11 
REMARK    3  A    between atoms: C_14  and  C_15 
REMARK    4  A    between atoms: C_22  and  N_23 
REMARK       I    between atoms: N_23  and  C_24 
ROOT
HETATM    1  C   UNL     1       5.819  30.916  58.249  1.00  0.00     0.010 A 
HETATM    2  C   UNL     1       4.783  30.168  57.671  1.00  0.00     0.016 A 
HETATM    3  C   UNL     1       5.056  29.069  56.849  1.00  0.00     0.017 A 
HETATM    4  C   UNL     1       6.376  28.691  56.575  1.00  0.00     0.017 A 
HETATM    5  C   UNL     1       7.413  29.448  57.140  1.00  0.00     0.017 A 
HETATM    6  C   UNL     1       7.140  30.548  57.968  1.00  0.00     0.016 A 
ENDROOT
BRANCH   1   7
HETATM    7  C   UNL     1       5.474  32.049  59.114  1.00  0.00     0.139 A 
HETATM    8  N   UNL     1       4.728  33.138  58.723  1.00  0.00    -0.338 N 
HETATM    9  C   UNL     1       4.638  34.015  59.772  1.00  0.00     0.063 A 
HETATM   10  H   UNL     1       4.341  33.282  57.804  1.00  0.00     0.167 HD
HETATM   11  C   UNL     1       5.349  33.400  60.792  1.00  0.00     0.088 A 
HETATM   12  C   UNL     1       4.021  35.257  59.914  1.00  0.00     0.034 A 
HETATM   13  C   UNL     1       5.462  34.035  62.040  1.00  0.00     0.063 A 
HETATM   14  N   UNL     1       5.857  32.198  60.370  1.00  0.00    -0.228 NA
HETATM   15  C   UNL     1       4.857  35.284  62.226  1.00  0.00     0.037 A 
HETATM   16  C   UNL     1       4.148  35.875  61.166  1.00  0.00     0.032 A 
BRANCH  15  17
HETATM   17  N   UNL     1       4.910  36.007  63.438  1.00  0.00    -0.327 N 
HETATM   18  C   UNL     1       4.312  35.679  64.642  1.00  0.00     0.218 C 
HETATM   19  C   UNL     1       4.587  36.693  65.726  1.00  0.00     0.117 C 
HETATM   20  O   UNL     1       3.641  34.683  64.884  1.00  0.00    -0.274 OA
HETATM   21  H   UNL     1       5.455  36.859  63.418  1.00  0.00     0.169 HD
ENDBRANCH  15  17
ENDBRANCH   1   7
BRANCH   4  22
HETATM   22  C   UNL     1       6.690  27.545  55.725  1.00  0.00     0.180 A 
HETATM   23  O   UNL     1       7.100  27.828  54.444  1.00  0.00    -0.289 OA
HETATM   24  C   UNL     1       7.308  26.604  53.885  1.00  0.00     0.107 A 
HETATM   25  C   UNL     1       7.019  25.646  54.839  1.00  0.00     0.095 A 
HETATM   26  C   UNL     1       7.730  26.329  52.595  1.00  0.00     0.042 A 
HETATM   27  N   UNL     1       6.624  26.253  56.006  1.00  0.00    -0.221 NA
HETATM   28  C   UNL     1       7.159  24.292  54.504  1.00  0.00     0.064 A 
HETATM   29  C   UNL     1       7.587  23.954  53.205  1.00  0.00     0.037 A 
HETATM   30  C   UNL     1       7.864  24.968  52.275  1.00  0.00     0.032 A 
BRANCH  29  31
HETATM   31  N   UNL     1       7.713  22.576  52.920  1.00  0.00    -0.327 N 
HETATM   32  C   UNL     1       8.579  21.669  53.503  1.00  0.00     0.218 C 
HETATM   33  C   UNL     1       8.432  20.273  52.946  1.00  0.00     0.117 C 
HETATM   34  O   UNL     1       9.412  21.902  54.370  1.00  0.00    -0.274 OA
HETATM   35  H   UNL     1       7.098  22.220  52.198  1.00  0.00     0.169 HD
ENDBRANCH  29  31
ENDBRANCH   4  22
TORSDOF 4
ENDMDL
MODEL 6
REMARK VINA RESULT:      -9.1      4.141      5.030
REMARK  4 active torsions:
REMARK  status: ('A' for Active; 'I' for Inactive)
REMARK       I    between atoms: C_2  and  N_3 
REMARK    1  A    between atoms: N_3  and  C_4 
REMARK    2  A    between atoms: C_10  and  C_11 
REMARK    3  A    between atoms: C_14  and  C_15 
REMARK    4  A    between atoms: C_22  and  N_23 
REMARK       I    between atoms: N_23  and  C_24 
ROOT
HETATM    1  C   UNL     1       5.970  31.113  58.499  1.00  0.00     0.010 A 
HETATM    2  C   UNL     1       5.062  30.332  57.771  1.00  0.00     0.016 A 
HETATM    3  C   UNL     1       5.439  29.097  57.232  1.00  0.00     0.017 A 
HETATM    4  C   UNL     1       6.742  28.612  57.400  1.00  0.00     0.017 A 
HETATM    5  C   UNL     1       7.656  29.399  58.115  1.00  0.00     0.017 A 
HETATM    6  C   UNL     1       7.277  30.636  58.659  1.00  0.00     0.016 A 
ENDROOT
BRANCH   1   7
HETATM    7  C   UNL     1       5.515  32.392  59.055  1.00  0.00     0.139 A 
HETATM    8  N   UNL     1       5.450  32.684  60.399  1.00  0.00    -0.338 N 
HETATM    9  C   UNL     1       4.945  33.950  60.555  1.00  0.00     0.063 A 
HETATM   10  H   UNL     1       5.701  32.058  61.147  1.00  0.00     0.167 HD
HETATM   11  C   UNL     1       4.724  34.389  59.257  1.00  0.00     0.088 A 
HETATM   12  C   UNL     1       4.665  34.723  61.680  1.00  0.00     0.034 A 
HETATM   13  C   UNL     1       4.200  35.675  59.040  1.00  0.00     0.063 A 
HETATM   14  N   UNL     1       5.076  33.421  58.352  1.00  0.00    -0.228 NA
HETATM   15  C   UNL     1       3.905  36.484  60.143  1.00  0.00     0.037 A 
HETATM   16  C   UNL     1       4.139  36.001  61.442  1.00  0.00     0.032 A 
BRANCH  15  17
HETATM   17  N   UNL     1       3.375  37.790  60.037  1.00  0.00    -0.327 N 
HETATM   18  C   UNL     1       2.103  38.152  59.633  1.00  0.00     0.218 C 
HETATM   19  C   UNL     1       1.890  39.646  59.641  1.00  0.00     0.117 C 
HETATM   20  O   UNL     1       1.188  37.401  59.314  1.00  0.00    -0.274 OA
HETATM   21  H   UNL     1       4.002  38.542  60.292  1.00  0.00     0.169 HD
ENDBRANCH  15  17
ENDBRANCH   1   7
BRANCH   4  22
HETATM   22  C   UNL     1       7.161  27.324  56.852  1.00  0.00     0.180 A 
HETATM   23  O   UNL     1       7.903  26.519  57.683  1.00  0.00    -0.289 OA
HETATM   24  C   UNL     1       8.161  25.414  56.930  1.00  0.00     0.107 A 
HETATM   25  C   UNL     1       7.570  25.595  55.694  1.00  0.00     0.095 A 
HETATM   26  C   UNL     1       8.883  24.292  57.302  1.00  0.00     0.042 A 
HETATM   27  N   UNL     1       6.939  26.814  55.651  1.00  0.00    -0.221 NA
HETATM   28  C   UNL     1       7.693  24.584  54.729  1.00  0.00     0.064 A 
HETATM   29  C   UNL     1       8.416  23.420  55.054  1.00  0.00     0.037 A 
HETATM   30  C   UNL     1       8.998  23.290  56.325  1.00  0.00     0.032 A 
BRANCH  29  31
HETATM   31  N   UNL     1       8.508  22.432  54.049  1.00  0.00    -0.327 N 
HETATM   32  C   UNL     1       8.104  21.111  54.123  1.00  0.00     0.218 C 
HETATM   33  C   UNL     1       8.357  20.345  52.847  1.00  0.00     0.117 C 
HETATM   34  O   UNL     1       7.602  20.550  55.090  1.00  0.00    -0.274 OA
HETATM   35  H   UNL     1       8.925  22.732  53.176  1.00  0.00     0.169 HD
ENDBRANCH  29  31
ENDBRANCH   4  22
TORSDOF 4
ENDMDL
MODEL 7
REMARK VINA RESULT:      -9.0      3.322      4.172
REMARK  4 active torsions:
REMARK  status: ('A' for Active; 'I' for Inactive)
REMARK       I    between atoms: C_2  and  N_3 
REMARK    1  A    between atoms: N_3  and  C_4 
REMARK    2  A    between atoms: C_10  and  C_11 
REMARK    3  A    between atoms: C_14  and  C_15 
REMARK    4  A    between atoms: C_22  and  N_23 
REMARK       I    between atoms: N_23  and  C_24 
ROOT
HETATM    1  C   UNL     1       5.765  30.823  58.293  1.00  0.00     0.010 A 
HETATM    2  C   UNL     1       4.692  30.237  57.607  1.00  0.00     0.016 A 
HETATM    3  C   UNL     1       4.877  29.103  56.809  1.00  0.00     0.017 A 
HETATM    4  C   UNL     1       6.145  28.526  56.667  1.00  0.00     0.017 A 
HETATM    5  C   UNL     1       7.222  29.121  57.341  1.00  0.00     0.017 A 
HETATM    6  C   UNL     1       7.037  30.255  58.145  1.00  0.00     0.016 A 
ENDROOT
BRANCH   1   7
HETATM    7  C   UNL     1       5.512  32.001  59.128  1.00  0.00     0.139 A 
HETATM    8  N   UNL     1       5.969  32.163  60.417  1.00  0.00    -0.338 N 
HETATM    9  C   UNL     1       5.511  33.360  60.904  1.00  0.00     0.063 A 
HETATM   10  H   UNL     1       6.522  31.494  60.930  1.00  0.00     0.167 HD
HETATM   11  C   UNL     1       4.778  33.896  59.856  1.00  0.00     0.088 A 
HETATM   12  C   UNL     1       5.664  34.000  62.133  1.00  0.00     0.034 A 
HETATM   13  C   UNL     1       4.155  35.146  60.012  1.00  0.00     0.063 A 
HETATM   14  N   UNL     1       4.786  33.048  58.777  1.00  0.00    -0.228 NA
HETATM   15  C   UNL     1       4.284  35.822  61.231  1.00  0.00     0.037 A 
HETATM   16  C   UNL     1       5.032  35.244  62.270  1.00  0.00     0.032 A 
BRANCH  15  17
HETATM   17  N   UNL     1       3.698  37.081  61.492  1.00  0.00    -0.327 N 
HETATM   18  C   UNL     1       4.105  38.315  61.017  1.00  0.00     0.218 C 
HETATM   19  C   UNL     1       3.236  39.446  61.509  1.00  0.00     0.117 C 
HETATM   20  O   UNL     1       5.040  38.541  60.258  1.00  0.00    -0.274 OA
HETATM   21  H   UNL     1       2.884  37.071  62.093  1.00  0.00     0.169 HD
ENDBRANCH  15  17
ENDBRANCH   1   7
BRANCH   4  22
HETATM   22  C   UNL     1       6.364  27.339  55.844  1.00  0.00     0.180 A 
HETATM   23  O   UNL     1       5.406  27.066  54.898  1.00  0.00    -0.289 OA
HETATM   24  C   UNL     1       5.847  25.926  54.299  1.00  0.00     0.107 A 
HETATM   25  C   UNL     1       7.039  25.564  54.899  1.00  0.00     0.095 A 
HETATM   26  C   UNL     1       5.238  25.225  53.271  1.00  0.00     0.042 A 
HETATM   27  N   UNL     1       7.359  26.467  55.883  1.00  0.00    -0.221 NA
HETATM   28  C   UNL     1       7.701  24.412  54.453  1.00  0.00     0.064 A 
HETATM   29  C   UNL     1       7.126  23.660  53.408  1.00  0.00     0.037 A 
HETATM   30  C   UNL     1       5.912  24.072  52.836  1.00  0.00     0.032 A 
BRANCH  29  31
HETATM   31  N   UNL     1       7.834  22.510  52.995  1.00  0.00    -0.327 N 
HETATM   32  C   UNL     1       7.979  21.316  53.679  1.00  0.00     0.218 C 
HETATM   33  C   UNL     1       8.805  20.302  52.926  1.00  0.00     0.117 C 
HETATM   34  O   UNL     1       7.528  21.044  54.786  1.00  0.00    -0.274 OA
HETATM   35  H   UNL     1       8.290  22.576  52.093  1.00  0.00     0.169 HD
ENDBRANCH  29  31
ENDBRANCH   4  22
TORSDOF 4
ENDMDL
MODEL 8
REMARK VINA RESULT:      -8.8      2.322     13.066
REMARK  4 active torsions:
REMARK  status: ('A' for Active; 'I' for Inactive)
REMARK       I    between atoms: C_2  and  N_3 
REMARK    1  A    between atoms: N_3  and  C_4 
REMARK    2  A    between atoms: C_10  and  C_11 
REMARK    3  A    between atoms: C_14  and  C_15 
REMARK    4  A    between atoms: C_22  and  N_23 
REMARK       I    between atoms: N_23  and  C_24 
ROOT
HETATM    1  C   UNL     1       4.586  31.395  58.383  1.00  0.00     0.010 A 
HETATM    2  C   UNL     1       3.482  31.424  59.247  1.00  0.00     0.016 A 
HETATM    3  C   UNL     1       3.593  31.933  60.545  1.00  0.00     0.017 A 
HETATM    4  C   UNL     1       4.815  32.423  61.020  1.00  0.00     0.017 A 
HETATM    5  C   UNL     1       5.924  32.381  60.162  1.00  0.00     0.017 A 
HETATM    6  C   UNL     1       5.813  31.874  58.859  1.00  0.00     0.016 A 
ENDROOT
BRANCH   1   7
HETATM    7  C   UNL     1       4.409  30.865  57.028  1.00  0.00     0.139 A 
HETATM    8  N   UNL     1       3.825  31.551  55.986  1.00  0.00    -0.338 N 
HETATM    9  C   UNL     1       3.792  30.739  54.882  1.00  0.00     0.063 A 
HETATM   10  H   UNL     1       3.452  32.486  56.037  1.00  0.00     0.167 HD
HETATM   11  C   UNL     1       4.382  29.558  55.310  1.00  0.00     0.088 A 
HETATM   12  C   UNL     1       3.308  30.924  53.588  1.00  0.00     0.034 A 
HETATM   13  C   UNL     1       4.516  28.485  54.414  1.00  0.00     0.063 A 
HETATM   14  N   UNL     1       4.750  29.652  56.628  1.00  0.00    -0.228 NA
HETATM   15  C   UNL     1       4.044  28.629  53.104  1.00  0.00     0.037 A 
HETATM   16  C   UNL     1       3.449  29.840  52.710  1.00  0.00     0.032 A 
BRANCH  15  17
HETATM   17  N   UNL     1       4.128  27.614  52.125  1.00  0.00    -0.327 N 
HETATM   18  C   UNL     1       4.902  27.611  50.979  1.00  0.00     0.218 C 
HETATM   19  C   UNL     1       4.736  26.351  50.164  1.00  0.00     0.117 C 
HETATM   20  O   UNL     1       5.679  28.485  50.611  1.00  0.00    -0.274 OA
HETATM   21  H   UNL     1       3.559  26.794  52.291  1.00  0.00     0.169 HD
ENDBRANCH  15  17
ENDBRANCH   1   7
BRANCH   4  22
HETATM   22  C   UNL     1       4.957  32.965  62.370  1.00  0.00     0.180 A 
HETATM   23  O   UNL     1       3.837  33.546  62.915  1.00  0.00    -0.289 OA
HETATM   24  C   UNL     1       4.248  33.966  64.143  1.00  0.00     0.107 A 
HETATM   25  C   UNL     1       5.580  33.626  64.286  1.00  0.00     0.095 A 
HETATM   26  C   UNL     1       3.495  34.623  65.103  1.00  0.00     0.042 A 
HETATM   27  N   UNL     1       6.024  32.991  63.152  1.00  0.00    -0.221 NA
HETATM   28  C   UNL     1       6.239  33.954  65.479  1.00  0.00     0.064 A 
HETATM   29  C   UNL     1       5.521  34.622  66.491  1.00  0.00     0.037 A 
HETATM   30  C   UNL     1       4.170  34.946  66.291  1.00  0.00     0.032 A 
BRANCH  29  31
HETATM   31  N   UNL     1       6.231  34.927  67.673  1.00  0.00    -0.327 N 
HETATM   32  C   UNL     1       6.003  34.436  68.946  1.00  0.00     0.218 C 
HETATM   33  C   UNL     1       6.966  34.985  69.971  1.00  0.00     0.117 C 
HETATM   34  O   UNL     1       5.125  33.651  69.284  1.00  0.00    -0.274 OA
HETATM   35  H   UNL     1       6.991  35.589  67.570  1.00  0.00     0.169 HD
ENDBRANCH  29  31
ENDBRANCH   4  22
TORSDOF 4
ENDMDL
MODEL 9
REMARK VINA RESULT:      -8.8      3.406      4.881
REMARK  4 active torsions:
REMARK  status: ('A' for Active; 'I' for Inactive)
REMARK       I    between atoms: C_2  and  N_3 
REMARK    1  A    between atoms: N_3  and  C_4 
REMARK    2  A    between atoms: C_10  and  C_11 
REMARK    3  A    between atoms: C_14  and  C_15 
REMARK    4  A    between atoms: C_22  and  N_23 
REMARK       I    between atoms: N_23  and  C_24 
ROOT
HETATM    1  C   UNL     1       4.825  32.771  62.196  1.00  0.00     0.010 A 
HETATM    2  C   UNL     1       5.877  32.800  61.270  1.00  0.00     0.016 A 
HETATM    3  C   UNL     1       5.676  32.435  59.935  1.00  0.00     0.017 A 
HETATM    4  C   UNL     1       4.415  32.023  59.488  1.00  0.00     0.017 A 
HETATM    5  C   UNL     1       3.364  31.979  60.416  1.00  0.00     0.017 A 
HETATM    6  C   UNL     1       3.564  32.349  61.755  1.00  0.00     0.016 A 
ENDROOT
BRANCH   1   7
HETATM    7  C   UNL     1       5.089  33.179  63.579  1.00  0.00     0.139 A 
HETATM    8  N   UNL     1       4.118  33.486  64.507  1.00  0.00    -0.338 N 
HETATM    9  C   UNL     1       4.723  33.862  65.677  1.00  0.00     0.063 A 
HETATM   10  H   UNL     1       3.124  33.469  64.340  1.00  0.00     0.167 HD
HETATM   11  C   UNL     1       6.080  33.759  65.407  1.00  0.00     0.088 A 
HETATM   12  C   UNL     1       4.221  34.277  66.910  1.00  0.00     0.034 A 
HETATM   13  C   UNL     1       7.014  34.074  66.408  1.00  0.00     0.063 A 
HETATM   14  N   UNL     1       6.285  33.342  64.116  1.00  0.00    -0.228 NA
HETATM   15  C   UNL     1       6.551  34.494  67.661  1.00  0.00     0.037 A 
HETATM   16  C   UNL     1       5.169  34.590  67.894  1.00  0.00     0.032 A 
BRANCH  15  17
HETATM   17  N   UNL     1       7.403  34.836  68.735  1.00  0.00    -0.327 N 
HETATM   18  C   UNL     1       7.551  34.169  69.938  1.00  0.00     0.218 C 
HETATM   19  C   UNL     1       8.556  34.828  70.851  1.00  0.00     0.117 C 
HETATM   20  O   UNL     1       6.982  33.141  70.286  1.00  0.00    -0.274 OA
HETATM   21  H   UNL     1       7.973  35.661  68.600  1.00  0.00     0.169 HD
ENDBRANCH  15  17
ENDBRANCH   1   7
BRANCH   4  22
HETATM   22  C   UNL     1       4.176  31.641  58.098  1.00  0.00     0.180 A 
HETATM   23  O   UNL     1       5.012  30.684  57.575  1.00  0.00    -0.289 OA
HETATM   24  C   UNL     1       4.581  30.534  56.292  1.00  0.00     0.107 A 
HETATM   25  C   UNL     1       3.516  31.394  56.097  1.00  0.00     0.095 A 
HETATM   26  C   UNL     1       5.093  29.683  55.326  1.00  0.00     0.042 A 
HETATM   27  N   UNL     1       3.267  32.097  57.250  1.00  0.00    -0.221 NA
HETATM   28  C   UNL     1       2.891  31.426  54.843  1.00  0.00     0.064 A 
HETATM   29  C   UNL     1       3.371  30.581  53.823  1.00  0.00     0.037 A 
HETATM   30  C   UNL     1       4.457  29.728  54.075  1.00  0.00     0.032 A 
BRANCH  29  31
HETATM   31  N   UNL     1       2.705  30.650  52.579  1.00  0.00    -0.327 N 
HETATM   32  C   UNL     1       2.953  31.524  51.536  1.00  0.00     0.218 C 
HETATM   33  C   UNL     1       2.041  31.304  50.353  1.00  0.00     0.117 C 
HETATM   34  O   UNL     1       3.795  32.414  51.507  1.00  0.00    -0.274 OA
HETATM   35  H   UNL     1       1.955  29.983  52.446  1.00  0.00     0.169 HD
ENDBRANCH  29  31
ENDBRANCH   4  22
TORSDOF 4
ENDMDL
MODEL 10
REMARK VINA RESULT:      -8.7      3.572     12.026
REMARK  4 active torsions:
REMARK  status: ('A' for Active; 'I' for Inactive)
REMARK       I    between atoms: C_2  and  N_3 
REMARK    1  A    between atoms: N_3  and  C_4 
REMARK    2  A    between atoms: C_10  and  C_11 
REMARK    3  A    between atoms: C_14  and  C_15 
REMARK    4  A    between atoms: C_22  and  N_23 
REMARK       I    between atoms: N_23  and  C_24 
ROOT
HETATM    1  C   UNL     1       6.359  28.821  56.076  1.00  0.00     0.010 A 
HETATM    2  C   UNL     1       7.146  29.155  57.187  1.00  0.00     0.016 A 
HETATM    3  C   UNL     1       6.826  30.249  57.997  1.00  0.00     0.017 A 
HETATM    4  C   UNL     1       5.711  31.047  57.714  1.00  0.00     0.017 A 
HETATM    5  C   UNL     1       4.931  30.723  56.595  1.00  0.00     0.017 A 
HETATM    6  C   UNL     1       5.249  29.623  55.784  1.00  0.00     0.016 A 
ENDROOT
BRANCH   1   7
HETATM    7  C   UNL     1       6.733  27.654  55.270  1.00  0.00     0.139 A 
HETATM    8  N   UNL     1       7.048  27.693  53.930  1.00  0.00    -0.338 N 
HETATM    9  C   UNL     1       7.308  26.419  53.497  1.00  0.00     0.063 A 
HETATM   10  H   UNL     1       7.055  28.521  53.355  1.00  0.00     0.167 HD
HETATM   11  C   UNL     1       7.140  25.634  54.629  1.00  0.00     0.088 A 
HETATM   12  C   UNL     1       7.658  25.898  52.253  1.00  0.00     0.034 A 
HETATM   13  C   UNL     1       7.333  24.245  54.544  1.00  0.00     0.063 A 
HETATM   14  N   UNL     1       6.785  26.407  55.704  1.00  0.00    -0.228 NA
HETATM   15  C   UNL     1       7.686  23.681  53.313  1.00  0.00     0.037 A 
HETATM   16  C   UNL     1       7.842  24.509  52.189  1.00  0.00     0.032 A 
BRANCH  15  17
HETATM   17  N   UNL     1       7.903  22.298  53.119  1.00  0.00    -0.327 N 
HETATM   18  C   UNL     1       8.775  21.477  53.812  1.00  0.00     0.218 C 
HETATM   19  C   UNL     1       8.739  20.047  53.328  1.00  0.00     0.117 C 
HETATM   20  O   UNL     1       9.507  21.795  54.741  1.00  0.00    -0.274 OA
HETATM   21  H   UNL     1       7.349  21.863  52.392  1.00  0.00     0.169 HD
ENDBRANCH  15  17
ENDBRANCH   1   7
BRANCH   4  22
HETATM   22  C   UNL     1       5.350  32.192  58.548  1.00  0.00     0.180 A 
HETATM   23  O   UNL     1       5.792  32.164  59.848  1.00  0.00    -0.289 OA
HETATM   24  C   UNL     1       5.315  33.320  60.385  1.00  0.00     0.107 A 
HETATM   25  C   UNL     1       4.615  33.990  59.399  1.00  0.00     0.095 A 
HETATM   26  C   UNL     1       5.479  33.777  61.683  1.00  0.00     0.042 A 
HETATM   27  N   UNL     1       4.640  33.264  58.234  1.00  0.00    -0.221 NA
HETATM   28  C   UNL     1       4.021  35.222  59.707  1.00  0.00     0.064 A 
HETATM   29  C   UNL     1       4.157  35.735  61.012  1.00  0.00     0.037 A 
HETATM   30  C   UNL     1       4.877  35.011  61.975  1.00  0.00     0.032 A 
BRANCH  29  31
HETATM   31  N   UNL     1       3.541  36.980  61.269  1.00  0.00    -0.327 N 
HETATM   32  C   UNL     1       4.067  38.241  61.055  1.00  0.00     0.218 C 
HETATM   33  C   UNL     1       3.119  39.349  61.447  1.00  0.00     0.117 C 
HETATM   34  O   UNL     1       5.179  38.509  60.615  1.00  0.00    -0.274 OA
HETATM   35  H   UNL     1       2.609  36.936  61.661  1.00  0.00     0.169 HD
ENDBRANCH  29  31
ENDBRANCH   4  22
TORSDOF 4
ENDMDL
