MODEL 1
REMARK VINA RESULT:      -9.9      0.000      0.000
REMARK  6 active torsions:
REMARK  status: ('A' for Active; 'I' for Inactive)
REMARK    1  A    between atoms: C_3  and  C_4 
REMARK    2  A    between atoms: C_4  and  C_5 
REMARK    3  A    between atoms: N_8  and  C_10 
REMARK    4  A    between atoms: C_10  and  C_11 
REMARK    5  A    between atoms: N_24  and  C_25 
REMARK    6  A    between atoms: C_25  and  C_26 
ROOT
HETATM    1  C   UNL     1       6.950  27.900  56.392  1.00  0.00     0.149 C 
HETATM    2  N   UNL     1       7.822  27.430  55.323  1.00  0.00    -0.220 NA
HETATM    3  C   UNL     1       7.342  27.772  54.084  1.00  0.00     0.304 C 
HETATM    4  O   UNL     1       7.957  27.562  53.053  1.00  0.00    -0.253 OA
HETATM    5  N   UNL     1       6.105  28.306  54.219  1.00  0.00    -0.270 N 
HETATM    6  C   UNL     1       5.803  28.490  55.541  1.00  0.00     0.257 C 
HETATM    7  O   UNL     1       4.762  28.945  55.992  1.00  0.00    -0.270 OA
HETATM    8  H   UNL     1       8.825  27.577  55.427  1.00  0.00     0.134 HD
ENDROOT
BRANCH   1   9
HETATM    9  C   UNL     1       7.708  28.934  57.220  1.00  0.00     0.067 A 
HETATM   10  C   UNL     1       9.075  29.159  57.086  1.00  0.00     0.030 A 
HETATM   11  C   UNL     1       9.664  30.176  57.836  1.00  0.00     0.003 A 
HETATM   12  C   UNL     1       8.884  30.946  58.690  1.00  0.00     0.019 A 
HETATM   13  C   UNL     1       7.532  30.670  58.763  1.00  0.00     0.117 A 
HETATM   14  N   UNL     1       6.925  29.698  58.045  1.00  0.00    -0.263 NA
ENDBRANCH   1   9
BRANCH   1  15
HETATM   15  C   UNL     1       6.418  26.728  57.295  1.00  0.00     0.028 C 
HETATM   16  C   UNL     1       7.450  26.132  58.269  1.00  0.00     0.035 C 
HETATM   17  C   UNL     1       8.546  25.339  57.576  1.00  0.00     0.235 C 
HETATM   18  N   UNL     1       7.973  24.262  56.681  1.00  0.00    -0.067 N 
HETATM   19  H   UNL     1       7.643  23.507  57.299  1.00  0.00     0.280 HD
HETATM   20  C   UNL     1       6.805  24.662  55.811  1.00  0.00     0.235 C 
HETATM   21  C   UNL     1       5.799  25.534  56.543  1.00  0.00     0.035 C 
BRANCH  18  22
HETATM   22  C   UNL     1       9.050  23.642  55.788  1.00  0.00     0.278 C 
BRANCH  22  23
HETATM   23  C   UNL     1       8.590  22.523  54.906  1.00  0.00     0.028 A 
HETATM   24  C   UNL     1       8.383  21.212  55.359  1.00  0.00     0.045 A 
HETATM   25 CL   UNL     1       8.585  20.777  57.017  1.00  0.00    -0.084 Cl
HETATM   26  C   UNL     1       7.978  20.209  54.472  1.00  0.00     0.024 A 
HETATM   27  C   UNL     1       7.772  20.502  53.124  1.00  0.00     0.005 A 
HETATM   28  C   UNL     1       7.963  21.801  52.662  1.00  0.00     0.043 A 
HETATM   29  C   UNL     1       8.365  22.791  53.553  1.00  0.00     0.126 A 
HETATM   30  F   UNL     1       8.519  24.047  53.110  1.00  0.00    -0.205 F 
ENDBRANCH  22  23
ENDBRANCH  18  22
ENDBRANCH   1  15
BRANCH   5  31
HETATM   31  C   UNL     1       5.275  28.691  53.089  1.00  0.00     0.168 C 
BRANCH  31  32
HETATM   32  C   UNL     1       4.562  27.498  52.449  1.00  0.00     0.140 C 
HETATM   33  O   UNL     1       4.673  26.347  53.308  1.00  0.00    -0.384 OA
HETATM   34  C   UNL     1       5.215  25.260  52.543  1.00  0.00     0.168 C 
HETATM   35  C   UNL     1       4.997  25.615  51.091  1.00  0.00     0.029 C 
HETATM   36  C   UNL     1       5.184  27.110  51.113  1.00  0.00     0.036 C 
ENDBRANCH  31  32
ENDBRANCH   5  31
TORSDOF 6
ENDMDL
MODEL 2
REMARK VINA RESULT:      -9.3      3.244      7.278
REMARK  6 active torsions:
REMARK  status: ('A' for Active; 'I' for Inactive)
REMARK    1  A    between atoms: C_3  and  C_4 
REMARK    2  A    between atoms: C_4  and  C_5 
REMARK    3  A    between atoms: N_8  and  C_10 
REMARK    4  A    between atoms: C_10  and  C_11 
REMARK    5  A    between atoms: N_24  and  C_25 
REMARK    6  A    between atoms: C_25  and  C_26 
ROOT
HETATM    1  C   UNL     1       6.437  25.912  54.441  1.00  0.00     0.149 C 
HETATM    2  N   UNL     1       7.198  26.731  53.505  1.00  0.00    -0.220 NA
HETATM    3  C   UNL     1       7.755  27.825  54.119  1.00  0.00     0.304 C 
HETATM    4  O   UNL     1       8.508  28.593  53.547  1.00  0.00    -0.253 OA
HETATM    5  N   UNL     1       7.292  27.905  55.388  1.00  0.00    -0.270 N 
HETATM    6  C   UNL     1       6.561  26.793  55.705  1.00  0.00     0.257 C 
HETATM    7  O   UNL     1       6.003  26.568  56.770  1.00  0.00    -0.270 OA
HETATM    8  H   UNL     1       7.831  26.256  52.862  1.00  0.00     0.134 HD
ENDROOT
BRANCH   1   9
HETATM    9  C   UNL     1       7.117  24.551  54.561  1.00  0.00     0.067 A 
HETATM   10  C   UNL     1       7.968  24.039  53.586  1.00  0.00     0.030 A 
HETATM   11  C   UNL     1       8.599  22.818  53.820  1.00  0.00     0.003 A 
HETATM   12  C   UNL     1       8.376  22.142  55.014  1.00  0.00     0.019 A 
HETATM   13  C   UNL     1       7.525  22.717  55.938  1.00  0.00     0.117 A 
HETATM   14  N   UNL     1       6.904  23.903  55.749  1.00  0.00    -0.263 NA
ENDBRANCH   1   9
BRANCH   1  15
HETATM   15  C   UNL     1       4.930  25.760  54.022  1.00  0.00     0.028 C 
HETATM   16  C   UNL     1       4.672  24.803  52.844  1.00  0.00     0.035 C 
HETATM   17  C   UNL     1       5.175  25.335  51.512  1.00  0.00     0.235 C 
HETATM   18  N   UNL     1       4.615  26.709  51.216  1.00  0.00    -0.067 N 
HETATM   19  H   UNL     1       3.633  26.576  50.935  1.00  0.00     0.280 HD
HETATM   20  C   UNL     1       4.617  27.697  52.357  1.00  0.00     0.235 C 
HETATM   21  C   UNL     1       4.197  27.071  53.677  1.00  0.00     0.035 C 
BRANCH  18  22
HETATM   22  C   UNL     1       5.316  27.355  50.018  1.00  0.00     0.278 C 
BRANCH  22  23
HETATM   23  C   UNL     1       4.410  27.960  48.990  1.00  0.00     0.028 A 
HETATM   24  C   UNL     1       3.539  27.212  48.186  1.00  0.00     0.045 A 
HETATM   25 CL   UNL     1       3.384  25.502  48.354  1.00  0.00    -0.084 Cl
HETATM   26  C   UNL     1       2.739  27.842  47.226  1.00  0.00     0.024 A 
HETATM   27  C   UNL     1       2.799  29.226  47.060  1.00  0.00     0.005 A 
HETATM   28  C   UNL     1       3.651  29.983  47.858  1.00  0.00     0.043 A 
HETATM   29  C   UNL     1       4.441  29.346  48.810  1.00  0.00     0.126 A 
HETATM   30  F   UNL     1       5.238  30.082  49.597  1.00  0.00    -0.205 F 
ENDBRANCH  22  23
ENDBRANCH  18  22
ENDBRANCH   1  15
BRANCH   5  31
HETATM   31  C   UNL     1       7.614  29.002  56.286  1.00  0.00     0.168 C 
BRANCH  31  32
HETATM   32  C   UNL     1       8.981  28.834  56.954  1.00  0.00     0.140 C 
HETATM   33  O   UNL     1       8.931  29.345  58.300  1.00  0.00    -0.384 OA
HETATM   34  C   UNL     1       9.992  30.297  58.465  1.00  0.00     0.168 C 
HETATM   35  C   UNL     1      10.984  30.021  57.358  1.00  0.00     0.029 C 
HETATM   36  C   UNL     1      10.071  29.615  56.229  1.00  0.00     0.036 C 
ENDBRANCH  31  32
ENDBRANCH   5  31
TORSDOF 6
ENDMDL
MODEL 3
REMARK VINA RESULT:      -9.3      3.344      7.335
REMARK  6 active torsions:
REMARK  status: ('A' for Active; 'I' for Inactive)
REMARK    1  A    between atoms: C_3  and  C_4 
REMARK    2  A    between atoms: C_4  and  C_5 
REMARK    3  A    between atoms: N_8  and  C_10 
REMARK    4  A    between atoms: C_10  and  C_11 
REMARK    5  A    between atoms: N_24  and  C_25 
REMARK    6  A    between atoms: C_25  and  C_26 
ROOT
HETATM    1  C   UNL     1       6.520  25.940  54.541  1.00  0.00     0.149 C 
HETATM    2  N   UNL     1       7.272  26.749  53.590  1.00  0.00    -0.220 NA
HETATM    3  C   UNL     1       7.821  27.859  54.184  1.00  0.00     0.304 C 
HETATM    4  O   UNL     1       8.566  28.624  53.599  1.00  0.00    -0.253 OA
HETATM    5  N   UNL     1       7.358  27.957  55.453  1.00  0.00    -0.270 N 
HETATM    6  C   UNL     1       6.637  26.844  55.789  1.00  0.00     0.257 C 
HETATM    7  O   UNL     1       6.083  26.632  56.859  1.00  0.00    -0.270 OA
HETATM    8  H   UNL     1       7.909  26.269  52.955  1.00  0.00     0.134 HD
ENDROOT
BRANCH   1   9
HETATM    9  C   UNL     1       7.212  24.587  54.683  1.00  0.00     0.067 A 
HETATM   10  C   UNL     1       6.978  23.723  55.749  1.00  0.00     0.030 A 
HETATM   11  C   UNL     1       7.603  22.477  55.753  1.00  0.00     0.003 A 
HETATM   12  C   UNL     1       8.435  22.118  54.700  1.00  0.00     0.019 A 
HETATM   13  C   UNL     1       8.612  23.024  53.672  1.00  0.00     0.117 A 
HETATM   14  N   UNL     1       8.015  24.237  53.631  1.00  0.00    -0.263 NA
ENDBRANCH   1   9
BRANCH   1  15
HETATM   15  C   UNL     1       5.013  25.768  54.126  1.00  0.00     0.028 C 
HETATM   16  C   UNL     1       4.765  24.807  52.950  1.00  0.00     0.035 C 
HETATM   17  C   UNL     1       5.257  25.345  51.616  1.00  0.00     0.235 C 
HETATM   18  N   UNL     1       4.677  26.710  51.321  1.00  0.00    -0.067 N 
HETATM   19  H   UNL     1       3.696  26.564  51.043  1.00  0.00     0.280 HD
HETATM   20  C   UNL     1       4.670  27.699  52.462  1.00  0.00     0.235 C 
HETATM   21  C   UNL     1       4.263  27.068  53.783  1.00  0.00     0.035 C 
BRANCH  18  22
HETATM   22  C   UNL     1       5.366  27.364  50.120  1.00  0.00     0.278 C 
BRANCH  22  23
HETATM   23  C   UNL     1       4.450  27.898  49.063  1.00  0.00     0.028 A 
HETATM   24  C   UNL     1       4.317  29.262  48.767  1.00  0.00     0.045 A 
HETATM   25 CL   UNL     1       5.260  30.465  49.568  1.00  0.00    -0.084 Cl
HETATM   26  C   UNL     1       3.421  29.693  47.783  1.00  0.00     0.024 A 
HETATM   27  C   UNL     1       2.648  28.767  47.081  1.00  0.00     0.005 A 
HETATM   28  C   UNL     1       2.778  27.409  47.356  1.00  0.00     0.043 A 
HETATM   29  C   UNL     1       3.672  26.992  48.336  1.00  0.00     0.126 A 
HETATM   30  F   UNL     1       3.815  25.681  48.577  1.00  0.00    -0.205 F 
ENDBRANCH  22  23
ENDBRANCH  18  22
ENDBRANCH   1  15
BRANCH   5  31
HETATM   31  C   UNL     1       7.672  29.072  56.332  1.00  0.00     0.168 C 
BRANCH  31  32
HETATM   32  C   UNL     1       9.026  28.911  57.026  1.00  0.00     0.140 C 
HETATM   33  O   UNL     1       8.962  29.468  58.354  1.00  0.00    -0.384 OA
HETATM   34  C   UNL     1      10.031  30.413  58.502  1.00  0.00     0.168 C 
HETATM   35  C   UNL     1      11.036  30.088  57.421  1.00  0.00     0.029 C 
HETATM   36  C   UNL     1      10.137  29.653  56.293  1.00  0.00     0.036 C 
ENDBRANCH  31  32
ENDBRANCH   5  31
TORSDOF 6
ENDMDL
MODEL 4
REMARK VINA RESULT:      -9.2      1.851      2.495
REMARK  6 active torsions:
REMARK  status: ('A' for Active; 'I' for Inactive)
REMARK    1  A    between atoms: C_3  and  C_4 
REMARK    2  A    between atoms: C_4  and  C_5 
REMARK    3  A    between atoms: N_8  and  C_10 
REMARK    4  A    between atoms: C_10  and  C_11 
REMARK    5  A    between atoms: N_24  and  C_25 
REMARK    6  A    between atoms: C_25  and  C_26 
ROOT
HETATM    1  C   UNL     1       6.472  27.638  56.114  1.00  0.00     0.149 C 
HETATM    2  N   UNL     1       7.101  27.147  54.894  1.00  0.00    -0.220 NA
HETATM    3  C   UNL     1       6.374  27.472  53.776  1.00  0.00     0.304 C 
HETATM    4  O   UNL     1       6.760  27.243  52.644  1.00  0.00    -0.253 OA
HETATM    5  N   UNL     1       5.194  28.015  54.158  1.00  0.00    -0.270 N 
HETATM    6  C   UNL     1       5.174  28.221  55.510  1.00  0.00     0.257 C 
HETATM    7  O   UNL     1       4.251  28.689  56.161  1.00  0.00    -0.270 OA
HETATM    8  H   UNL     1       8.105  27.290  54.785  1.00  0.00     0.134 HD
ENDROOT
BRANCH   1   9
HETATM    9  C   UNL     1       7.388  28.681  56.748  1.00  0.00     0.067 A 
HETATM   10  C   UNL     1       7.011  29.460  57.838  1.00  0.00     0.030 A 
HETATM   11  C   UNL     1       7.944  30.334  58.393  1.00  0.00     0.003 A 
HETATM   12  C   UNL     1       9.225  30.407  57.860  1.00  0.00     0.019 A 
HETATM   13  C   UNL     1       9.530  29.595  56.784  1.00  0.00     0.117 A 
HETATM   14  N   UNL     1       8.653  28.730  56.226  1.00  0.00    -0.263 NA
ENDBRANCH   1   9
BRANCH   1  15
HETATM   15  C   UNL     1       6.137  26.483  57.126  1.00  0.00     0.028 C 
HETATM   16  C   UNL     1       7.280  26.103  58.085  1.00  0.00     0.035 C 
HETATM   17  C   UNL     1       8.440  25.404  57.396  1.00  0.00     0.235 C 
HETATM   18  N   UNL     1       7.974  24.195  56.614  1.00  0.00    -0.067 N 
HETATM   19  H   UNL     1       7.774  23.455  57.302  1.00  0.00     0.280 HD
HETATM   20  C   UNL     1       6.729  24.372  55.779  1.00  0.00     0.235 C 
HETATM   21  C   UNL     1       5.649  25.165  56.497  1.00  0.00     0.035 C 
BRANCH  18  22
HETATM   22  C   UNL     1       9.085  23.649  55.713  1.00  0.00     0.278 C 
BRANCH  22  23
HETATM   23  C   UNL     1       8.689  22.514  54.819  1.00  0.00     0.028 A 
HETATM   24  C   UNL     1       8.280  22.681  53.488  1.00  0.00     0.045 A 
HETATM   25 CL   UNL     1       8.253  24.230  52.729  1.00  0.00    -0.084 Cl
HETATM   26  C   UNL     1       7.899  21.577  52.717  1.00  0.00     0.024 A 
HETATM   27  C   UNL     1       7.924  20.294  53.265  1.00  0.00     0.005 A 
HETATM   28  C   UNL     1       8.339  20.112  54.581  1.00  0.00     0.043 A 
HETATM   29  C   UNL     1       8.717  21.217  55.338  1.00  0.00     0.126 A 
HETATM   30  F   UNL     1       9.144  21.033  56.595  1.00  0.00    -0.205 F 
ENDBRANCH  22  23
ENDBRANCH  18  22
ENDBRANCH   1  15
BRANCH   5  31
HETATM   31  C   UNL     1       4.148  28.387  53.219  1.00  0.00     0.168 C 
BRANCH  31  32
HETATM   32  C   UNL     1       4.336  29.797  52.656  1.00  0.00     0.140 C 
HETATM   33  O   UNL     1       3.076  30.496  52.660  1.00  0.00    -0.384 OA
HETATM   34  C   UNL     1       2.828  30.993  51.337  1.00  0.00     0.168 C 
HETATM   35  C   UNL     1       4.163  31.001  50.630  1.00  0.00     0.029 C 
HETATM   36  C   UNL     1       4.821  29.776  51.211  1.00  0.00     0.036 C 
ENDBRANCH  31  32
ENDBRANCH   5  31
TORSDOF 6
ENDMDL
MODEL 5
REMARK VINA RESULT:      -9.2      1.640      2.477
REMARK  6 active torsions:
REMARK  status: ('A' for Active; 'I' for Inactive)
REMARK    1  A    between atoms: C_3  and  C_4 
REMARK    2  A    between atoms: C_4  and  C_5 
REMARK    3  A    between atoms: N_8  and  C_10 
REMARK    4  A    between atoms: C_10  and  C_11 
REMARK    5  A    between atoms: N_24  and  C_25 
REMARK    6  A    between atoms: C_25  and  C_26 
ROOT
HETATM    1  C   UNL     1       6.508  28.023  56.311  1.00  0.00     0.149 C 
HETATM    2  N   UNL     1       6.929  27.637  54.970  1.00  0.00    -0.220 NA
HETATM    3  C   UNL     1       6.148  28.218  54.002  1.00  0.00     0.304 C 
HETATM    4  O   UNL     1       6.378  28.108  52.811  1.00  0.00    -0.253 OA
HETATM    5  N   UNL     1       5.108  28.852  54.593  1.00  0.00    -0.270 N 
HETATM    6  C   UNL     1       5.257  28.857  55.953  1.00  0.00     0.257 C 
HETATM    7  O   UNL     1       4.485  29.342  56.768  1.00  0.00    -0.270 OA
HETATM    8  H   UNL     1       7.926  27.660  54.758  1.00  0.00     0.134 HD
ENDROOT
BRANCH   1   9
HETATM    9  C   UNL     1       7.630  28.829  56.960  1.00  0.00     0.067 A 
HETATM   10  C   UNL     1       8.871  29.021  56.361  1.00  0.00     0.030 A 
HETATM   11  C   UNL     1       9.806  29.834  57.000  1.00  0.00     0.003 A 
HETATM   12  C   UNL     1       9.484  30.439  58.209  1.00  0.00     0.019 A 
HETATM   13  C   UNL     1       8.229  30.209  58.738  1.00  0.00     0.117 A 
HETATM   14  N   UNL     1       7.295  29.435  58.142  1.00  0.00    -0.263 NA
ENDBRANCH   1   9
BRANCH   1  15
HETATM   15  C   UNL     1       6.110  26.786  57.197  1.00  0.00     0.028 C 
HETATM   16  C   UNL     1       7.240  26.220  58.075  1.00  0.00     0.035 C 
HETATM   17  C   UNL     1       8.333  25.525  57.280  1.00  0.00     0.235 C 
HETATM   18  N   UNL     1       7.766  24.449  56.381  1.00  0.00    -0.067 N 
HETATM   19  H   UNL     1       7.526  23.651  56.986  1.00  0.00     0.280 HD
HETATM   20  C   UNL     1       6.521  24.806  55.606  1.00  0.00     0.235 C 
HETATM   21  C   UNL     1       5.515  25.585  56.437  1.00  0.00     0.035 C 
BRANCH  18  22
HETATM   22  C   UNL     1       8.816  23.932  55.394  1.00  0.00     0.278 C 
BRANCH  22  23
HETATM   23  C   UNL     1       8.479  22.643  54.710  1.00  0.00     0.028 A 
HETATM   24  C   UNL     1       8.346  21.419  55.381  1.00  0.00     0.045 A 
HETATM   25 CL   UNL     1       8.501  21.298  57.096  1.00  0.00    -0.084 Cl
HETATM   26  C   UNL     1       8.054  20.248  54.674  1.00  0.00     0.024 A 
HETATM   27  C   UNL     1       7.891  20.284  53.289  1.00  0.00     0.005 A 
HETATM   28  C   UNL     1       8.009  21.494  52.611  1.00  0.00     0.043 A 
HETATM   29  C   UNL     1       8.298  22.652  53.324  1.00  0.00     0.126 A 
HETATM   30  F   UNL     1       8.381  23.819  52.670  1.00  0.00    -0.205 F 
ENDBRANCH  22  23
ENDBRANCH  18  22
ENDBRANCH   1  15
BRANCH   5  31
HETATM   31  C   UNL     1       4.038  29.494  53.846  1.00  0.00     0.168 C 
BRANCH  31  32
HETATM   32  C   UNL     1       4.124  31.021  53.891  1.00  0.00     0.140 C 
HETATM   33  O   UNL     1       3.016  31.549  54.647  1.00  0.00    -0.384 OA
HETATM   34  C   UNL     1       2.342  32.527  53.842  1.00  0.00     0.168 C 
HETATM   35  C   UNL     1       3.321  32.937  52.766  1.00  0.00     0.029 C 
HETATM   36  C   UNL     1       4.041  31.640  52.501  1.00  0.00     0.036 C 
ENDBRANCH  31  32
ENDBRANCH   5  31
TORSDOF 6
ENDMDL
MODEL 6
REMARK VINA RESULT:      -8.8      3.260      7.303
REMARK  6 active torsions:
REMARK  status: ('A' for Active; 'I' for Inactive)
REMARK    1  A    between atoms: C_3  and  C_4 
REMARK    2  A    between atoms: C_4  and  C_5 
REMARK    3  A    between atoms: N_8  and  C_10 
REMARK    4  A    between atoms: C_10  and  C_11 
REMARK    5  A    between atoms: N_24  and  C_25 
REMARK    6  A    between atoms: C_25  and  C_26 
ROOT
HETATM    1  C   UNL     1       5.213  28.303  54.461  1.00  0.00     0.149 C 
HETATM    2  N   UNL     1       6.526  28.930  54.544  1.00  0.00    -0.220 NA
HETATM    3  C   UNL     1       7.516  28.112  54.057  1.00  0.00     0.304 C 
HETATM    4  O   UNL     1       8.675  28.469  53.945  1.00  0.00    -0.253 OA
HETATM    5  N   UNL     1       6.992  26.892  53.794  1.00  0.00    -0.270 N 
HETATM    6  C   UNL     1       5.631  26.912  53.933  1.00  0.00     0.257 C 
HETATM    7  O   UNL     1       4.869  25.968  53.772  1.00  0.00    -0.270 OA
HETATM    8  H   UNL     1       6.612  29.899  54.240  1.00  0.00     0.134 HD
ENDROOT
BRANCH   1   9
HETATM    9  C   UNL     1       4.351  29.105  53.490  1.00  0.00     0.067 A 
HETATM   10  C   UNL     1       4.579  30.448  53.206  1.00  0.00     0.030 A 
HETATM   11  C   UNL     1       3.781  31.076  52.249  1.00  0.00     0.003 A 
HETATM   12  C   UNL     1       2.788  30.356  51.597  1.00  0.00     0.019 A 
HETATM   13  C   UNL     1       2.627  29.024  51.925  1.00  0.00     0.117 A 
HETATM   14  N   UNL     1       3.387  28.381  52.840  1.00  0.00    -0.263 NA
ENDBRANCH   1   9
BRANCH   1  15
HETATM   15  C   UNL     1       4.518  28.172  55.865  1.00  0.00     0.028 C 
HETATM   16  C   UNL     1       3.865  29.462  56.394  1.00  0.00     0.035 C 
HETATM   17  C   UNL     1       4.872  30.528  56.792  1.00  0.00     0.235 C 
HETATM   18  N   UNL     1       5.882  29.996  57.785  1.00  0.00    -0.067 N 
HETATM   19  H   UNL     1       5.401  29.931  58.693  1.00  0.00     0.280 HD
HETATM   20  C   UNL     1       6.457  28.631  57.492  1.00  0.00     0.235 C 
HETATM   21  C   UNL     1       5.409  27.644  57.004  1.00  0.00     0.035 C 
BRANCH  18  22
HETATM   22  C   UNL     1       7.041  30.975  57.985  1.00  0.00     0.278 C 
BRANCH  22  23
HETATM   23  C   UNL     1       7.492  31.159  59.402  1.00  0.00     0.028 A 
HETATM   24  C   UNL     1       6.801  31.935  60.342  1.00  0.00     0.045 A 
HETATM   25 CL   UNL     1       5.308  32.714  59.961  1.00  0.00    -0.084 Cl
HETATM   26  C   UNL     1       7.294  32.085  61.642  1.00  0.00     0.024 A 
HETATM   27  C   UNL     1       8.483  31.459  62.020  1.00  0.00     0.005 A 
HETATM   28  C   UNL     1       9.174  30.675  61.100  1.00  0.00     0.043 A 
HETATM   29  C   UNL     1       8.673  30.533  59.810  1.00  0.00     0.126 A 
HETATM   30  F   UNL     1       9.327  29.754  58.937  1.00  0.00    -0.205 F 
ENDBRANCH  22  23
ENDBRANCH  18  22
ENDBRANCH   1  15
BRANCH   5  31
HETATM   31  C   UNL     1       7.791  25.760  53.351  1.00  0.00     0.168 C 
BRANCH  31  32
HETATM   32  C   UNL     1       7.407  24.457  54.055  1.00  0.00     0.140 C 
HETATM   33  O   UNL     1       8.296  24.222  55.164  1.00  0.00    -0.384 OA
HETATM   34  C   UNL     1       8.857  22.908  55.026  1.00  0.00     0.168 C 
HETATM   35  C   UNL     1       7.949  22.157  54.080  1.00  0.00     0.029 C 
HETATM   36  C   UNL     1       7.529  23.251  53.131  1.00  0.00     0.036 C 
ENDBRANCH  31  32
ENDBRANCH   5  31
TORSDOF 6
ENDMDL
MODEL 7
REMARK VINA RESULT:      -8.5      2.036      2.567
REMARK  6 active torsions:
REMARK  status: ('A' for Active; 'I' for Inactive)
REMARK    1  A    between atoms: C_3  and  C_4 
REMARK    2  A    between atoms: C_4  and  C_5 
REMARK    3  A    between atoms: N_8  and  C_10 
REMARK    4  A    between atoms: C_10  and  C_11 
REMARK    5  A    between atoms: N_24  and  C_25 
REMARK    6  A    between atoms: C_25  and  C_26 
ROOT
HETATM    1  C   UNL     1       5.979  28.227  55.881  1.00  0.00     0.149 C 
HETATM    2  N   UNL     1       7.337  28.140  55.360  1.00  0.00    -0.220 NA
HETATM    3  C   UNL     1       7.353  27.990  53.995  1.00  0.00     0.304 C 
HETATM    4  O   UNL     1       8.380  27.990  53.340  1.00  0.00    -0.253 OA
HETATM    5  N   UNL     1       6.086  27.802  53.555  1.00  0.00    -0.270 N 
HETATM    6  C   UNL     1       5.191  27.988  54.573  1.00  0.00     0.257 C 
HETATM    7  O   UNL     1       3.975  27.883  54.500  1.00  0.00    -0.270 OA
HETATM    8  H   UNL     1       8.024  28.809  55.705  1.00  0.00     0.134 HD
ENDROOT
BRANCH   1   9
HETATM    9  C   UNL     1       5.778  29.613  56.487  1.00  0.00     0.067 A 
HETATM   10  C   UNL     1       6.283  29.978  57.731  1.00  0.00     0.030 A 
HETATM   11  C   UNL     1       6.109  31.291  58.167  1.00  0.00     0.003 A 
HETATM   12  C   UNL     1       5.448  32.206  57.357  1.00  0.00     0.019 A 
HETATM   13  C   UNL     1       4.982  31.773  56.131  1.00  0.00     0.117 A 
HETATM   14  N   UNL     1       5.140  30.511  55.672  1.00  0.00    -0.263 NA
ENDBRANCH   1   9
BRANCH   1  15
HETATM   15  C   UNL     1       5.662  27.097  56.928  1.00  0.00     0.028 C 
HETATM   16  C   UNL     1       6.804  26.776  57.909  1.00  0.00     0.035 C 
HETATM   17  C   UNL     1       7.987  26.084  57.253  1.00  0.00     0.235 C 
HETATM   18  N   UNL     1       7.559  24.839  56.507  1.00  0.00    -0.067 N 
HETATM   19  H   UNL     1       7.369  24.117  57.216  1.00  0.00     0.280 HD
HETATM   20  C   UNL     1       6.317  24.959  55.655  1.00  0.00     0.235 C 
HETATM   21  C   UNL     1       5.211  25.747  56.337  1.00  0.00     0.035 C 
BRANCH  18  22
HETATM   22  C   UNL     1       8.691  24.291  55.634  1.00  0.00     0.278 C 
BRANCH  22  23
HETATM   23  C   UNL     1       8.387  23.015  54.911  1.00  0.00     0.028 A 
HETATM   24  C   UNL     1       8.090  22.950  53.542  1.00  0.00     0.045 A 
HETATM   25 CL   UNL     1       8.107  24.354  52.538  1.00  0.00    -0.084 Cl
HETATM   26  C   UNL     1       7.790  21.726  52.936  1.00  0.00     0.024 A 
HETATM   27  C   UNL     1       7.785  20.551  53.689  1.00  0.00     0.005 A 
HETATM   28  C   UNL     1       8.089  20.598  55.046  1.00  0.00     0.043 A 
HETATM   29  C   UNL     1       8.387  21.821  55.638  1.00  0.00     0.126 A 
HETATM   30  F   UNL     1       8.708  21.858  56.938  1.00  0.00    -0.205 F 
ENDBRANCH  22  23
ENDBRANCH  18  22
ENDBRANCH   1  15
BRANCH   5  31
HETATM   31  C   UNL     1       5.759  27.519  52.167  1.00  0.00     0.168 C 
BRANCH  31  32
HETATM   32  C   UNL     1       4.867  28.595  51.542  1.00  0.00     0.140 C 
HETATM   33  O   UNL     1       3.993  27.995  50.566  1.00  0.00    -0.384 OA
HETATM   34  C   UNL     1       4.144  28.702  49.326  1.00  0.00     0.168 C 
HETATM   35  C   UNL     1       4.766  30.035  49.672  1.00  0.00     0.029 C 
HETATM   36  C   UNL     1       5.679  29.657  50.810  1.00  0.00     0.036 C 
ENDBRANCH  31  32
ENDBRANCH   5  31
TORSDOF 6
ENDMDL
MODEL 8
REMARK VINA RESULT:      -8.5      8.209     11.808
REMARK  6 active torsions:
REMARK  status: ('A' for Active; 'I' for Inactive)
REMARK    1  A    between atoms: C_3  and  C_4 
REMARK    2  A    between atoms: C_4  and  C_5 
REMARK    3  A    between atoms: N_8  and  C_10 
REMARK    4  A    between atoms: C_10  and  C_11 
REMARK    5  A    between atoms: N_24  and  C_25 
REMARK    6  A    between atoms: C_25  and  C_26 
ROOT
HETATM    1  C   UNL     1       5.761  33.938  64.530  1.00  0.00     0.149 C 
HETATM    2  N   UNL     1       4.735  33.025  64.040  1.00  0.00    -0.220 NA
HETATM    3  C   UNL     1       5.279  31.940  63.400  1.00  0.00     0.304 C 
HETATM    4  O   UNL     1       4.611  31.005  62.995  1.00  0.00    -0.253 OA
HETATM    5  N   UNL     1       6.614  32.125  63.271  1.00  0.00    -0.270 N 
HETATM    6  C   UNL     1       7.014  33.238  63.959  1.00  0.00     0.257 C 
HETATM    7  O   UNL     1       8.153  33.677  64.032  1.00  0.00    -0.270 OA
HETATM    8  H   UNL     1       3.969  32.787  64.670  1.00  0.00     0.134 HD
ENDROOT
BRANCH   1   9
HETATM    9  C   UNL     1       5.701  33.965  66.054  1.00  0.00     0.067 A 
HETATM   10  C   UNL     1       6.815  34.204  66.853  1.00  0.00     0.030 A 
HETATM   11  C   UNL     1       6.646  34.281  68.235  1.00  0.00     0.003 A 
HETATM   12  C   UNL     1       5.380  34.127  68.786  1.00  0.00     0.019 A 
HETATM   13  C   UNL     1       4.320  33.902  67.929  1.00  0.00     0.117 A 
HETATM   14  N   UNL     1       4.445  33.830  66.585  1.00  0.00    -0.263 NA
ENDBRANCH   1   9
BRANCH   1  15
HETATM   15  C   UNL     1       5.617  35.384  63.929  1.00  0.00     0.028 C 
HETATM   16  C   UNL     1       4.230  36.029  64.103  1.00  0.00     0.035 C 
HETATM   17  C   UNL     1       3.150  35.376  63.256  1.00  0.00     0.235 C 
HETATM   18  N   UNL     1       3.540  35.334  61.795  1.00  0.00    -0.067 N 
HETATM   19  H   UNL     1       3.425  36.290  61.429  1.00  0.00     0.280 HD
HETATM   20  C   UNL     1       4.956  34.911  61.488  1.00  0.00     0.235 C 
HETATM   21  C   UNL     1       5.972  35.525  62.437  1.00  0.00     0.035 C 
BRANCH  18  22
HETATM   22  C   UNL     1       2.586  34.452  60.985  1.00  0.00     0.278 C 
BRANCH  22  23
HETATM   23  C   UNL     1       3.024  34.145  59.586  1.00  0.00     0.028 A 
HETATM   24  C   UNL     1       2.985  35.076  58.538  1.00  0.00     0.045 A 
HETATM   25 CL   UNL     1       2.478  36.707  58.786  1.00  0.00    -0.084 Cl
HETATM   26  C   UNL     1       3.385  34.712  57.248  1.00  0.00     0.024 A 
HETATM   27  C   UNL     1       3.830  33.416  56.989  1.00  0.00     0.005 A 
HETATM   28  C   UNL     1       3.885  32.484  58.021  1.00  0.00     0.043 A 
HETATM   29  C   UNL     1       3.486  32.857  59.301  1.00  0.00     0.126 A 
HETATM   30  F   UNL     1       3.568  31.965  60.298  1.00  0.00    -0.205 F 
ENDBRANCH  22  23
ENDBRANCH  18  22
ENDBRANCH   1  15
BRANCH   5  31
HETATM   31  C   UNL     1       7.481  31.202  62.556  1.00  0.00     0.168 C 
BRANCH  31  32
HETATM   32  C   UNL     1       7.946  31.757  61.207  1.00  0.00     0.140 C 
HETATM   33  O   UNL     1       7.612  30.828  60.158  1.00  0.00    -0.384 OA
HETATM   34  C   UNL     1       8.804  30.539  59.412  1.00  0.00     0.168 C 
HETATM   35  C   UNL     1       9.775  31.656  59.715  1.00  0.00     0.029 C 
HETATM   36  C   UNL     1       9.457  31.949  61.159  1.00  0.00     0.036 C 
ENDBRANCH  31  32
ENDBRANCH   5  31
TORSDOF 6
ENDMDL
MODEL 9
REMARK VINA RESULT:      -8.4      3.013      6.762
REMARK  6 active torsions:
REMARK  status: ('A' for Active; 'I' for Inactive)
REMARK    1  A    between atoms: C_3  and  C_4 
REMARK    2  A    between atoms: C_4  and  C_5 
REMARK    3  A    between atoms: N_8  and  C_10 
REMARK    4  A    between atoms: C_10  and  C_11 
REMARK    5  A    between atoms: N_24  and  C_25 
REMARK    6  A    between atoms: C_25  and  C_26 
ROOT
HETATM    1  C   UNL     1       7.241  24.443  54.121  1.00  0.00     0.149 C 
HETATM    2  N   UNL     1       5.793  24.446  54.291  1.00  0.00    -0.220 NA
HETATM    3  C   UNL     1       5.146  24.882  53.161  1.00  0.00     0.304 C 
HETATM    4  O   UNL     1       3.933  24.877  53.048  1.00  0.00    -0.253 OA
HETATM    5  N   UNL     1       6.061  25.338  52.274  1.00  0.00    -0.270 N 
HETATM    6  C   UNL     1       7.330  25.066  52.709  1.00  0.00     0.257 C 
HETATM    7  O   UNL     1       8.372  25.356  52.139  1.00  0.00    -0.270 OA
HETATM    8  H   UNL     1       5.362  23.627  54.719  1.00  0.00     0.134 HD
ENDROOT
BRANCH   1   9
HETATM    9  C   UNL     1       7.737  23.002  54.199  1.00  0.00     0.067 A 
HETATM   10  C   UNL     1       7.670  22.117  53.127  1.00  0.00     0.030 A 
HETATM   11  C   UNL     1       8.216  20.842  53.274  1.00  0.00     0.003 A 
HETATM   12  C   UNL     1       8.819  20.483  54.472  1.00  0.00     0.019 A 
HETATM   13  C   UNL     1       8.857  21.418  55.489  1.00  0.00     0.117 A 
HETATM   14  N   UNL     1       8.346  22.665  55.379  1.00  0.00    -0.263 NA
ENDBRANCH   1   9
BRANCH   1  15
HETATM   15  C   UNL     1       7.973  25.354  55.172  1.00  0.00     0.028 C 
HETATM   16  C   UNL     1       7.439  25.250  56.612  1.00  0.00     0.035 C 
HETATM   17  C   UNL     1       6.055  25.852  56.788  1.00  0.00     0.235 C 
HETATM   18  N   UNL     1       6.006  27.284  56.304  1.00  0.00    -0.067 N 
HETATM   19  H   UNL     1       6.483  27.856  57.016  1.00  0.00     0.280 HD
HETATM   20  C   UNL     1       6.681  27.571  54.983  1.00  0.00     0.235 C 
HETATM   21  C   UNL     1       8.014  26.858  54.838  1.00  0.00     0.035 C 
BRANCH  18  22
HETATM   22  C   UNL     1       4.568  27.804  56.234  1.00  0.00     0.278 C 
BRANCH  22  23
HETATM   23  C   UNL     1       4.405  29.172  55.644  1.00  0.00     0.028 A 
HETATM   24  C   UNL     1       4.860  30.344  56.265  1.00  0.00     0.045 A 
HETATM   25 CL   UNL     1       5.718  30.310  57.762  1.00  0.00    -0.084 Cl
HETATM   26  C   UNL     1       4.649  31.592  55.669  1.00  0.00     0.024 A 
HETATM   27  C   UNL     1       3.985  31.684  54.445  1.00  0.00     0.005 A 
HETATM   28  C   UNL     1       3.538  30.528  53.812  1.00  0.00     0.043 A 
HETATM   29  C   UNL     1       3.753  29.292  54.414  1.00  0.00     0.126 A 
HETATM   30  F   UNL     1       3.348  28.180  53.786  1.00  0.00    -0.205 F 
ENDBRANCH  22  23
ENDBRANCH  18  22
ENDBRANCH   1  15
BRANCH   5  31
HETATM   31  C   UNL     1       5.705  25.956  51.008  1.00  0.00     0.168 C 
BRANCH  31  32
HETATM   32  C   UNL     1       4.994  27.299  51.188  1.00  0.00     0.140 C 
HETATM   33  O   UNL     1       4.368  27.688  49.950  1.00  0.00    -0.384 OA
HETATM   34  C   UNL     1       4.812  29.011  49.612  1.00  0.00     0.168 C 
HETATM   35  C   UNL     1       5.348  29.616  50.889  1.00  0.00     0.029 C 
HETATM   36  C   UNL     1       5.964  28.414  51.558  1.00  0.00     0.036 C 
ENDBRANCH  31  32
ENDBRANCH   5  31
TORSDOF 6
ENDMDL
MODEL 10
REMARK VINA RESULT:      -8.1      3.518      5.299
REMARK  6 active torsions:
REMARK  status: ('A' for Active; 'I' for Inactive)
REMARK    1  A    between atoms: C_3  and  C_4 
REMARK    2  A    between atoms: C_4  and  C_5 
REMARK    3  A    between atoms: N_8  and  C_10 
REMARK    4  A    between atoms: C_10  and  C_11 
REMARK    5  A    between atoms: N_24  and  C_25 
REMARK    6  A    between atoms: C_25  and  C_26 
ROOT
HETATM    1  C   UNL     1       3.940  30.331  52.116  1.00  0.00     0.149 C 
HETATM    2  N   UNL     1       5.314  30.114  51.679  1.00  0.00    -0.220 NA
HETATM    3  C   UNL     1       5.383  29.805  50.344  1.00  0.00     0.304 C 
HETATM    4  O   UNL     1       6.438  29.675  49.748  1.00  0.00    -0.253 OA
HETATM    5  N   UNL     1       4.130  29.631  49.863  1.00  0.00    -0.270 N 
HETATM    6  C   UNL     1       3.201  29.981  50.804  1.00  0.00     0.257 C 
HETATM    7  O   UNL     1       1.985  29.930  50.681  1.00  0.00    -0.270 OA
HETATM    8  H   UNL     1       6.021  30.784  51.981  1.00  0.00     0.134 HD
ENDROOT
BRANCH   1   9
HETATM    9  C   UNL     1       3.790  31.788  52.546  1.00  0.00     0.067 A 
HETATM   10  C   UNL     1       4.656  32.795  52.132  1.00  0.00     0.030 A 
HETATM   11  C   UNL     1       4.394  34.108  52.520  1.00  0.00     0.003 A 
HETATM   12  C   UNL     1       3.279  34.388  53.300  1.00  0.00     0.019 A 
HETATM   13  C   UNL     1       2.459  33.338  53.665  1.00  0.00     0.117 A 
HETATM   14  N   UNL     1       2.677  32.054  53.300  1.00  0.00    -0.263 NA
ENDBRANCH   1   9
BRANCH   1  15
HETATM   15  C   UNL     1       3.512  29.351  53.268  1.00  0.00     0.028 C 
HETATM   16  C   UNL     1       4.367  29.430  54.545  1.00  0.00     0.035 C 
HETATM   17  C   UNL     1       5.775  28.887  54.364  1.00  0.00     0.235 C 
HETATM   18  N   UNL     1       5.761  27.477  53.818  1.00  0.00    -0.067 N 
HETATM   19  H   UNL     1       5.488  26.859  54.595  1.00  0.00     0.280 HD
HETATM   20  C   UNL     1       4.804  27.204  52.681  1.00  0.00     0.235 C 
HETATM   21  C   UNL     1       3.448  27.860  52.886  1.00  0.00     0.035 C 
BRANCH  18  22
HETATM   22  C   UNL     1       7.160  27.027  53.388  1.00  0.00     0.278 C 
BRANCH  22  23
HETATM   23  C   UNL     1       7.492  25.595  53.673  1.00  0.00     0.028 A 
HETATM   24  C   UNL     1       7.735  25.095  54.960  1.00  0.00     0.045 A 
HETATM   25 CL   UNL     1       7.611  26.091  56.364  1.00  0.00    -0.084 Cl
HETATM   26  C   UNL     1       8.067  23.749  55.149  1.00  0.00     0.024 A 
HETATM   27  C   UNL     1       8.157  22.886  54.057  1.00  0.00     0.005 A 
HETATM   28  C   UNL     1       7.907  23.365  52.774  1.00  0.00     0.043 A 
HETATM   29  C   UNL     1       7.578  24.705  52.598  1.00  0.00     0.126 A 
HETATM   30  F   UNL     1       7.309  25.156  51.365  1.00  0.00    -0.205 F 
ENDBRANCH  22  23
ENDBRANCH  18  22
ENDBRANCH   1  15
BRANCH   5  31
HETATM   31  C   UNL     1       3.851  29.203  48.502  1.00  0.00     0.168 C 
BRANCH  31  32
HETATM   32  C   UNL     1       4.255  27.749  48.247  1.00  0.00     0.140 C 
HETATM   33  O   UNL     1       3.817  27.345  46.935  1.00  0.00    -0.384 OA
HETATM   34  C   UNL     1       3.042  26.144  47.065  1.00  0.00     0.168 C 
HETATM   35  C   UNL     1       3.401  25.552  48.409  1.00  0.00     0.029 C 
HETATM   36  C   UNL     1       3.607  26.793  49.240  1.00  0.00     0.036 C 
ENDBRANCH  31  32
ENDBRANCH   5  31
TORSDOF 6
ENDMDL
