MODEL 1
REMARK VINA RESULT:      -9.2      0.000      0.000
REMARK  6 active torsions:
REMARK  status: ('A' for Active; 'I' for Inactive)
REMARK    1  A    between atoms: O_2  and  C_3 
REMARK    2  A    between atoms: C_3  and  C_4 
REMARK    3  A    between atoms: C_4  and  N_5 
REMARK       I    between atoms: N_5  and  C_6 
REMARK    4  A    between atoms: C_6  and  C_7 
REMARK    5  A    between atoms: C_12  and  C_13 
REMARK    6  A    between atoms: C_22  and  C_23 
ROOT
HETATM    1  C   UNL     1       8.134  29.351  57.599  1.00  0.00     0.148 C 
HETATM    2  N   UNL     1       6.844  28.973  57.771  1.00  0.00    -0.165 NA
HETATM    3  N   UNL     1       6.567  28.309  56.637  1.00  0.00    -0.240 N 
HETATM    4  C   UNL     1       7.647  28.111  55.827  1.00  0.00     0.123 C 
HETATM    5  N   UNL     1       7.572  27.304  54.750  1.00  0.00    -0.366 N 
HETATM    6  C   UNL     1       6.456  26.383  54.536  1.00  0.00     0.118 C 
HETATM    7  C   UNL     1       5.498  26.326  55.749  1.00  0.00     0.066 C 
HETATM    8  C   UNL     1       5.274  27.705  56.384  1.00  0.00     0.221 C 
HETATM    9  C   UNL     1       8.659  28.853  56.372  1.00  0.00     0.088 C 
HETATM   10  H   UNL     1       8.376  27.173  54.137  1.00  0.00     0.161 HD
ENDROOT
BRANCH   1  11
HETATM   11  C   UNL     1       8.873  30.115  58.616  1.00  0.00     0.272 C 
HETATM   12  N   UNL     1       8.266  30.116  59.853  1.00  0.00    -0.354 N 
HETATM   13  H   UNL     1       7.495  29.457  59.948  1.00  0.00     0.162 HD
HETATM   14  O   UNL     1       9.954  30.651  58.391  1.00  0.00    -0.266 OA
BRANCH  12  15
HETATM   15  C   UNL     1       8.988  30.519  61.039  1.00  0.00     0.149 C 
BRANCH  15  16
HETATM   16  C   UNL     1       8.051  31.036  62.127  1.00  0.00     0.186 C 
BRANCH  16  17
HETATM   17  O   UNL     1       8.612  32.228  62.691  1.00  0.00    -0.394 OA
HETATM   18  C   UNL     1       7.771  32.778  63.696  1.00  0.00     0.201 C 
ENDBRANCH  16  17
ENDBRANCH  15  16
ENDBRANCH  12  15
ENDBRANCH   1  11
BRANCH   8  19
HETATM   19  C   UNL     1       4.431  28.618  55.524  1.00  0.00     0.409 C 
HETATM   20  F   UNL     1       5.138  29.649  55.014  1.00  0.00    -0.169 F 
HETATM   21  F   UNL     1       3.822  27.987  54.500  1.00  0.00    -0.169 F 
HETATM   22  F   UNL     1       3.441  29.165  56.279  1.00  0.00    -0.169 F 
ENDBRANCH   8  19
BRANCH   6  23
HETATM   23  C   UNL     1       7.018  25.000  54.234  1.00  0.00    -0.034 A 
HETATM   24  C   UNL     1       7.234  24.075  55.266  1.00  0.00     0.034 A 
HETATM   25  C   UNL     1       7.754  22.804  54.990  1.00  0.00     0.056 A 
HETATM   26 CL   UNL     1       7.985  21.727  56.321  1.00  0.00    -0.083 Cl
HETATM   27  C   UNL     1       8.067  22.445  53.675  1.00  0.00     0.055 A 
HETATM   28 CL   UNL     1       8.714  20.898  53.262  1.00  0.00    -0.083 Cl
HETATM   29  C   UNL     1       7.854  23.357  52.639  1.00  0.00     0.026 A 
HETATM   30  C   UNL     1       7.333  24.622  52.916  1.00  0.00     0.011 A 
ENDBRANCH   6  23
TORSDOF 6
ENDMDL
MODEL 2
REMARK VINA RESULT:      -9.1      2.063      2.952
REMARK  6 active torsions:
REMARK  status: ('A' for Active; 'I' for Inactive)
REMARK    1  A    between atoms: O_2  and  C_3 
REMARK    2  A    between atoms: C_3  and  C_4 
REMARK    3  A    between atoms: C_4  and  N_5 
REMARK       I    between atoms: N_5  and  C_6 
REMARK    4  A    between atoms: C_6  and  C_7 
REMARK    5  A    between atoms: C_12  and  C_13 
REMARK    6  A    between atoms: C_22  and  C_23 
ROOT
HETATM    1  C   UNL     1       6.314  29.098  55.779  1.00  0.00     0.148 C 
HETATM    2  N   UNL     1       5.200  28.646  55.155  1.00  0.00    -0.165 NA
HETATM    3  N   UNL     1       5.664  27.647  54.386  1.00  0.00    -0.240 N 
HETATM    4  C   UNL     1       6.976  27.341  54.601  1.00  0.00     0.123 C 
HETATM    5  N   UNL     1       7.537  26.247  54.046  1.00  0.00    -0.366 N 
HETATM    6  C   UNL     1       6.741  25.184  53.432  1.00  0.00     0.118 C 
HETATM    7  C   UNL     1       5.223  25.383  53.651  1.00  0.00     0.066 C 
HETATM    8  C   UNL     1       4.801  26.854  53.534  1.00  0.00     0.221 C 
HETATM    9  C   UNL     1       7.455  28.321  55.427  1.00  0.00     0.088 C 
HETATM   10  H   UNL     1       8.522  26.031  54.195  1.00  0.00     0.161 HD
ENDROOT
BRANCH   1  11
HETATM   11  C   UNL     1       6.282  30.208  56.743  1.00  0.00     0.272 C 
HETATM   12  N   UNL     1       7.092  30.006  57.841  1.00  0.00    -0.354 N 
HETATM   13  H   UNL     1       7.728  29.216  57.760  1.00  0.00     0.162 HD
HETATM   14  O   UNL     1       5.638  31.235  56.556  1.00  0.00    -0.266 OA
BRANCH  12  15
HETATM   15  C   UNL     1       7.449  31.101  58.717  1.00  0.00     0.149 C 
BRANCH  15  16
HETATM   16  C   UNL     1       8.944  31.402  58.670  1.00  0.00     0.186 C 
BRANCH  16  17
HETATM   17  O   UNL     1       9.206  32.565  59.464  1.00  0.00    -0.394 OA
HETATM   18  C   UNL     1       8.441  32.565  60.662  1.00  0.00     0.201 C 
ENDBRANCH  16  17
ENDBRANCH  15  16
ENDBRANCH  12  15
ENDBRANCH   1  11
BRANCH   8  19
HETATM   19  C   UNL     1       4.853  27.369  52.114  1.00  0.00     0.409 C 
HETATM   20  F   UNL     1       5.938  28.138  51.881  1.00  0.00    -0.169 F 
HETATM   21  F   UNL     1       4.830  26.393  51.183  1.00  0.00    -0.169 F 
HETATM   22  F   UNL     1       3.767  28.151  51.876  1.00  0.00    -0.169 F 
ENDBRANCH   8  19
BRANCH   6  23
HETATM   23  C   UNL     1       7.193  23.847  54.003  1.00  0.00    -0.034 A 
HETATM   24  C   UNL     1       7.560  22.794  53.151  1.00  0.00     0.034 A 
HETATM   25  C   UNL     1       7.973  21.562  53.676  1.00  0.00     0.056 A 
HETATM   26 CL   UNL     1       8.411  20.322  52.555  1.00  0.00    -0.083 Cl
HETATM   27  C   UNL     1       8.022  21.370  55.061  1.00  0.00     0.055 A 
HETATM   28 CL   UNL     1       8.517  19.878  55.776  1.00  0.00    -0.083 Cl
HETATM   29  C   UNL     1       7.660  22.411  55.917  1.00  0.00     0.026 A 
HETATM   30  C   UNL     1       7.251  23.639  55.393  1.00  0.00     0.011 A 
ENDBRANCH   6  23
TORSDOF 6
ENDMDL
MODEL 3
REMARK VINA RESULT:      -9.0      4.826      7.751
REMARK  6 active torsions:
REMARK  status: ('A' for Active; 'I' for Inactive)
REMARK    1  A    between atoms: O_2  and  C_3 
REMARK    2  A    between atoms: C_3  and  C_4 
REMARK    3  A    between atoms: C_4  and  N_5 
REMARK       I    between atoms: N_5  and  C_6 
REMARK    4  A    between atoms: C_6  and  C_7 
REMARK    5  A    between atoms: C_12  and  C_13 
REMARK    6  A    between atoms: C_22  and  C_23 
ROOT
HETATM    1  C   UNL     1       5.421  27.748  51.304  1.00  0.00     0.148 C 
HETATM    2  N   UNL     1       5.999  28.451  52.309  1.00  0.00    -0.165 NA
HETATM    3  N   UNL     1       5.877  27.630  53.364  1.00  0.00    -0.240 N 
HETATM    4  C   UNL     1       5.398  26.390  53.055  1.00  0.00     0.123 C 
HETATM    5  N   UNL     1       5.395  25.397  53.967  1.00  0.00    -0.366 N 
HETATM    6  C   UNL     1       6.145  25.480  55.221  1.00  0.00     0.118 C 
HETATM    7  C   UNL     1       7.050  26.733  55.283  1.00  0.00     0.066 C 
HETATM    8  C   UNL     1       6.378  27.973  54.680  1.00  0.00     0.221 C 
HETATM    9  C   UNL     1       5.003  26.461  51.747  1.00  0.00     0.088 C 
HETATM   10  H   UNL     1       5.020  24.477  53.738  1.00  0.00     0.161 HD
ENDROOT
BRANCH   1  11
HETATM   11  C   UNL     1       5.330  28.267  49.931  1.00  0.00     0.272 C 
HETATM   12  N   UNL     1       5.447  27.290  48.965  1.00  0.00    -0.354 N 
HETATM   13  H   UNL     1       5.404  26.336  49.318  1.00  0.00     0.162 HD
HETATM   14  O   UNL     1       5.114  29.448  49.677  1.00  0.00    -0.266 OA
BRANCH  12  15
HETATM   15  C   UNL     1       5.057  27.544  47.595  1.00  0.00     0.149 C 
BRANCH  15  16
HETATM   16  C   UNL     1       3.563  27.323  47.380  1.00  0.00     0.186 C 
BRANCH  16  17
HETATM   17  O   UNL     1       3.369  26.050  46.753  1.00  0.00    -0.394 OA
HETATM   18  C   UNL     1       2.981  25.057  47.693  1.00  0.00     0.201 C 
ENDBRANCH  16  17
ENDBRANCH  15  16
ENDBRANCH  12  15
ENDBRANCH   1  11
BRANCH   8  19
HETATM   19  C   UNL     1       5.257  28.511  55.540  1.00  0.00     0.409 C 
HETATM   20  F   UNL     1       4.038  28.133  55.099  1.00  0.00    -0.169 F 
HETATM   21  F   UNL     1       5.355  28.159  56.839  1.00  0.00    -0.169 F 
HETATM   22  F   UNL     1       5.274  29.870  55.509  1.00  0.00    -0.169 F 
ENDBRANCH   8  19
BRANCH   6  23
HETATM   23  C   UNL     1       6.974  24.213  55.377  1.00  0.00    -0.034 A 
HETATM   24  C   UNL     1       7.091  23.301  54.317  1.00  0.00     0.034 A 
HETATM   25  C   UNL     1       7.851  22.133  54.460  1.00  0.00     0.056 A 
HETATM   26 CL   UNL     1       7.944  21.068  53.103  1.00  0.00    -0.083 Cl
HETATM   27  C   UNL     1       8.501  21.863  55.668  1.00  0.00     0.055 A 
HETATM   28 CL   UNL     1       9.451  20.442  55.916  1.00  0.00    -0.083 Cl
HETATM   29  C   UNL     1       8.393  22.764  56.729  1.00  0.00     0.026 A 
HETATM   30  C   UNL     1       7.637  23.929  56.584  1.00  0.00     0.011 A 
ENDBRANCH   6  23
TORSDOF 6
ENDMDL
MODEL 4
REMARK VINA RESULT:      -8.6      1.868      1.955
REMARK  6 active torsions:
REMARK  status: ('A' for Active; 'I' for Inactive)
REMARK    1  A    between atoms: O_2  and  C_3 
REMARK    2  A    between atoms: C_3  and  C_4 
REMARK    3  A    between atoms: C_4  and  N_5 
REMARK       I    between atoms: N_5  and  C_6 
REMARK    4  A    between atoms: C_6  and  C_7 
REMARK    5  A    between atoms: C_12  and  C_13 
REMARK    6  A    between atoms: C_22  and  C_23 
ROOT
HETATM    1  C   UNL     1       7.357  29.116  57.376  1.00  0.00     0.148 C 
HETATM    2  N   UNL     1       6.061  28.795  57.147  1.00  0.00    -0.165 NA
HETATM    3  N   UNL     1       6.124  28.043  56.036  1.00  0.00    -0.240 N 
HETATM    4  C   UNL     1       7.393  27.741  55.637  1.00  0.00     0.123 C 
HETATM    5  N   UNL     1       7.621  26.845  54.655  1.00  0.00    -0.366 N 
HETATM    6  C   UNL     1       6.581  25.944  54.159  1.00  0.00     0.118 C 
HETATM    7  C   UNL     1       5.283  26.024  54.997  1.00  0.00     0.066 C 
HETATM    8  C   UNL     1       4.948  27.460  55.422  1.00  0.00     0.221 C 
HETATM    9  C   UNL     1       8.219  28.496  56.425  1.00  0.00     0.088 C 
HETATM   10  H   UNL     1       8.570  26.636  54.348  1.00  0.00     0.161 HD
ENDROOT
BRANCH   1  11
HETATM   11  C   UNL     1       7.775  29.943  58.518  1.00  0.00     0.272 C 
HETATM   12  N   UNL     1       7.140  31.166  58.573  1.00  0.00    -0.354 N 
HETATM   13  H   UNL     1       6.354  31.265  57.934  1.00  0.00     0.162 HD
HETATM   14  O   UNL     1       8.570  29.553  59.368  1.00  0.00    -0.266 OA
BRANCH  12  15
HETATM   15  C   UNL     1       7.164  31.966  59.778  1.00  0.00     0.149 C 
BRANCH  15  16
HETATM   16  C   UNL     1       5.798  32.572  60.085  1.00  0.00     0.186 C 
BRANCH  16  17
HETATM   17  O   UNL     1       4.868  32.147  59.081  1.00  0.00    -0.394 OA
HETATM   18  C   UNL     1       3.603  31.823  59.642  1.00  0.00     0.201 C 
ENDBRANCH  16  17
ENDBRANCH  15  16
ENDBRANCH  12  15
ENDBRANCH   1  11
BRANCH   8  19
HETATM   19  C   UNL     1       4.480  28.320  54.271  1.00  0.00     0.409 C 
HETATM   20  F   UNL     1       5.495  28.966  53.660  1.00  0.00    -0.169 F 
HETATM   21  F   UNL     1       3.796  27.638  53.329  1.00  0.00    -0.169 F 
HETATM   22  F   UNL     1       3.636  29.280  54.736  1.00  0.00    -0.169 F 
ENDBRANCH   8  19
BRANCH   6  23
HETATM   23  C   UNL     1       7.129  24.523  54.157  1.00  0.00    -0.034 A 
HETATM   24  C   UNL     1       7.444  23.878  55.363  1.00  0.00     0.034 A 
HETATM   25  C   UNL     1       7.952  22.572  55.362  1.00  0.00     0.056 A 
HETATM   26 CL   UNL     1       8.310  21.852  56.892  1.00  0.00    -0.083 Cl
HETATM   27  C   UNL     1       8.152  21.897  54.153  1.00  0.00     0.055 A 
HETATM   28 CL   UNL     1       8.777  20.289  54.078  1.00  0.00    -0.083 Cl
HETATM   29  C   UNL     1       7.840  22.529  52.949  1.00  0.00     0.026 A 
HETATM   30  C   UNL     1       7.332  23.830  52.951  1.00  0.00     0.011 A 
ENDBRANCH   6  23
TORSDOF 6
ENDMDL
MODEL 5
REMARK VINA RESULT:      -8.5      4.350      7.101
REMARK  6 active torsions:
REMARK  status: ('A' for Active; 'I' for Inactive)
REMARK    1  A    between atoms: O_2  and  C_3 
REMARK    2  A    between atoms: C_3  and  C_4 
REMARK    3  A    between atoms: C_4  and  N_5 
REMARK       I    between atoms: N_5  and  C_6 
REMARK    4  A    between atoms: C_6  and  C_7 
REMARK    5  A    between atoms: C_12  and  C_13 
REMARK    6  A    between atoms: C_22  and  C_23 
ROOT
HETATM    1  C   UNL     1       4.313  28.559  52.894  1.00  0.00     0.148 C 
HETATM    2  N   UNL     1       5.415  28.964  53.570  1.00  0.00    -0.165 NA
HETATM    3  N   UNL     1       5.699  27.908  54.351  1.00  0.00    -0.240 N 
HETATM    4  C   UNL     1       4.937  26.805  54.097  1.00  0.00     0.123 C 
HETATM    5  N   UNL     1       5.224  25.615  54.663  1.00  0.00    -0.366 N 
HETATM    6  C   UNL     1       6.496  25.353  55.336  1.00  0.00     0.118 C 
HETATM    7  C   UNL     1       7.503  26.514  55.165  1.00  0.00     0.066 C 
HETATM    8  C   UNL     1       6.831  27.891  55.255  1.00  0.00     0.221 C 
HETATM    9  C   UNL     1       3.966  27.218  53.226  1.00  0.00     0.088 C 
HETATM   10  H   UNL     1       4.641  24.798  54.485  1.00  0.00     0.161 HD
ENDROOT
BRANCH   1  11
HETATM   11  C   UNL     1       3.641  29.410  51.899  1.00  0.00     0.272 C 
HETATM   12  N   UNL     1       2.715  28.734  51.134  1.00  0.00    -0.354 N 
HETATM   13  H   UNL     1       2.492  27.798  51.464  1.00  0.00     0.162 HD
HETATM   14  O   UNL     1       3.850  30.615  51.804  1.00  0.00    -0.266 OA
BRANCH  12  15
HETATM   15  C   UNL     1       1.732  29.448  50.349  1.00  0.00     0.149 C 
BRANCH  15  16
HETATM   16  C   UNL     1       1.748  29.013  48.886  1.00  0.00     0.186 C 
BRANCH  16  17
HETATM   17  O   UNL     1       1.209  27.689  48.792  1.00  0.00    -0.394 OA
HETATM   18  C   UNL     1       2.004  26.857  47.958  1.00  0.00     0.201 C 
ENDBRANCH  16  17
ENDBRANCH  15  16
ENDBRANCH  12  15
ENDBRANCH   1  11
BRANCH   8  19
HETATM   19  C   UNL     1       6.384  28.236  56.657  1.00  0.00     0.409 C 
HETATM   20  F   UNL     1       5.076  27.972  56.863  1.00  0.00    -0.169 F 
HETATM   21  F   UNL     1       7.089  27.609  57.620  1.00  0.00    -0.169 F 
HETATM   22  F   UNL     1       6.547  29.569  56.869  1.00  0.00    -0.169 F 
ENDBRANCH   8  19
BRANCH   6  23
HETATM   23  C   UNL     1       7.078  24.056  54.787  1.00  0.00    -0.034 A 
HETATM   24  C   UNL     1       7.398  22.996  55.649  1.00  0.00     0.034 A 
HETATM   25  C   UNL     1       7.935  21.804  55.146  1.00  0.00     0.056 A 
HETATM   26 CL   UNL     1       8.298  20.550  56.277  1.00  0.00    -0.083 Cl
HETATM   27  C   UNL     1       8.161  21.661  53.773  1.00  0.00     0.055 A 
HETATM   28 CL   UNL     1       8.823  20.222  53.084  1.00  0.00    -0.083 Cl
HETATM   29  C   UNL     1       7.844  22.708  52.906  1.00  0.00     0.026 A 
HETATM   30  C   UNL     1       7.306  23.895  53.409  1.00  0.00     0.011 A 
ENDBRANCH   6  23
TORSDOF 6
ENDMDL
MODEL 6
REMARK VINA RESULT:      -8.4      5.213      9.263
REMARK  6 active torsions:
REMARK  status: ('A' for Active; 'I' for Inactive)
REMARK    1  A    between atoms: O_2  and  C_3 
REMARK    2  A    between atoms: C_3  and  C_4 
REMARK    3  A    between atoms: C_4  and  N_5 
REMARK       I    between atoms: N_5  and  C_6 
REMARK    4  A    between atoms: C_6  and  C_7 
REMARK    5  A    between atoms: C_12  and  C_13 
REMARK    6  A    between atoms: C_22  and  C_23 
ROOT
HETATM    1  C   UNL     1       6.887  27.966  57.275  1.00  0.00     0.148 C 
HETATM    2  N   UNL     1       8.204  27.964  57.593  1.00  0.00    -0.165 NA
HETATM    3  N   UNL     1       8.422  29.225  58.000  1.00  0.00    -0.240 N 
HETATM    4  C   UNL     1       7.291  29.981  58.105  1.00  0.00     0.123 C 
HETATM    5  N   UNL     1       7.319  31.202  58.676  1.00  0.00    -0.366 N 
HETATM    6  C   UNL     1       8.460  31.675  59.462  1.00  0.00     0.118 C 
HETATM    7  C   UNL     1       9.514  30.567  59.693  1.00  0.00     0.066 C 
HETATM    8  C   UNL     1       9.718  29.684  58.456  1.00  0.00     0.221 C 
HETATM    9  C   UNL     1       6.289  29.229  57.554  1.00  0.00     0.088 C 
HETATM   10  H   UNL     1       6.475  31.771  58.737  1.00  0.00     0.161 HD
ENDROOT
BRANCH   1  11
HETATM   11  C   UNL     1       6.194  26.767  56.777  1.00  0.00     0.272 C 
HETATM   12  N   UNL     1       7.028  25.879  56.131  1.00  0.00    -0.354 N 
HETATM   13  H   UNL     1       8.021  26.077  56.234  1.00  0.00     0.162 HD
HETATM   14  O   UNL     1       5.001  26.559  56.971  1.00  0.00    -0.266 OA
BRANCH  12  15
HETATM   15  C   UNL     1       6.612  24.519  55.872  1.00  0.00     0.149 C 
BRANCH  15  16
HETATM   16  C   UNL     1       6.982  24.070  54.461  1.00  0.00     0.186 C 
BRANCH  16  17
HETATM   17  O   UNL     1       8.051  24.893  53.980  1.00  0.00    -0.394 OA
HETATM   18  C   UNL     1       7.922  25.161  52.590  1.00  0.00     0.201 C 
ENDBRANCH  16  17
ENDBRANCH  15  16
ENDBRANCH  12  15
ENDBRANCH   1  11
BRANCH   8  19
HETATM   19  C   UNL     1      10.441  30.398  57.337  1.00  0.00     0.409 C 
HETATM   20  F   UNL     1       9.851  30.213  56.137  1.00  0.00    -0.169 F 
HETATM   21  F   UNL     1      10.568  31.726  57.535  1.00  0.00    -0.169 F 
HETATM   22  F   UNL     1      11.704  29.906  57.226  1.00  0.00    -0.169 F 
ENDBRANCH   8  19
BRANCH   6  23
HETATM   23  C   UNL     1       7.946  32.210  60.791  1.00  0.00    -0.034 A 
HETATM   24  C   UNL     1       6.735  32.917  60.856  1.00  0.00     0.034 A 
HETATM   25  C   UNL     1       6.263  33.413  62.079  1.00  0.00     0.056 A 
HETATM   26 CL   UNL     1       4.762  34.269  62.068  1.00  0.00    -0.083 Cl
HETATM   27  C   UNL     1       6.999  33.209  63.250  1.00  0.00     0.055 A 
HETATM   28 CL   UNL     1       6.479  33.795  64.790  1.00  0.00    -0.083 Cl
HETATM   29  C   UNL     1       8.203  32.505  63.197  1.00  0.00     0.026 A 
HETATM   30  C   UNL     1       8.672  32.009  61.979  1.00  0.00     0.011 A 
ENDBRANCH   6  23
TORSDOF 6
ENDMDL
MODEL 7
REMARK VINA RESULT:      -8.4      4.107      5.187
REMARK  6 active torsions:
REMARK  status: ('A' for Active; 'I' for Inactive)
REMARK    1  A    between atoms: O_2  and  C_3 
REMARK    2  A    between atoms: C_3  and  C_4 
REMARK    3  A    between atoms: C_4  and  N_5 
REMARK       I    between atoms: N_5  and  C_6 
REMARK    4  A    between atoms: C_6  and  C_7 
REMARK    5  A    between atoms: C_12  and  C_13 
REMARK    6  A    between atoms: C_22  and  C_23 
ROOT
HETATM    1  C   UNL     1       6.396  28.301  56.461  1.00  0.00     0.148 C 
HETATM    2  N   UNL     1       7.372  27.483  56.000  1.00  0.00    -0.165 NA
HETATM    3  N   UNL     1       6.763  26.805  55.014  1.00  0.00    -0.240 N 
HETATM    4  C   UNL     1       5.508  27.253  54.721  1.00  0.00     0.123 C 
HETATM    5  N   UNL     1       4.842  26.803  53.638  1.00  0.00    -0.366 N 
HETATM    6  C   UNL     1       5.499  26.049  52.571  1.00  0.00     0.118 C 
HETATM    7  C   UNL     1       7.034  25.990  52.750  1.00  0.00     0.066 C 
HETATM    8  C   UNL     1       7.446  25.807  54.217  1.00  0.00     0.221 C 
HETATM    9  C   UNL     1       5.200  28.158  55.700  1.00  0.00     0.088 C 
HETATM   10  H   UNL     1       3.897  27.127  53.433  1.00  0.00     0.161 HD
ENDROOT
BRANCH   1  11
HETATM   11  C   UNL     1       6.617  29.250  57.563  1.00  0.00     0.272 C 
HETATM   12  N   UNL     1       7.824  29.073  58.206  1.00  0.00    -0.354 N 
HETATM   13  H   UNL     1       8.468  28.441  57.735  1.00  0.00     0.162 HD
HETATM   14  O   UNL     1       5.825  30.145  57.841  1.00  0.00    -0.266 OA
BRANCH  12  15
HETATM   15  C   UNL     1       8.362  30.095  59.076  1.00  0.00     0.149 C 
BRANCH  15  16
HETATM   16  C   UNL     1       9.501  30.865  58.413  1.00  0.00     0.186 C 
BRANCH  16  17
HETATM   17  O   UNL     1       9.501  32.209  58.910  1.00  0.00    -0.394 OA
HETATM   18  C   UNL     1       8.866  32.299  60.178  1.00  0.00     0.201 C 
ENDBRANCH  16  17
ENDBRANCH  15  16
ENDBRANCH  12  15
ENDBRANCH   1  11
BRANCH   8  19
HETATM   19  C   UNL     1       7.144  24.422  54.743  1.00  0.00     0.409 C 
HETATM   20  F   UNL     1       6.060  24.399  55.547  1.00  0.00    -0.169 F 
HETATM   21  F   UNL     1       6.961  23.503  53.774  1.00  0.00    -0.169 F 
HETATM   22  F   UNL     1       8.190  23.984  55.494  1.00  0.00    -0.169 F 
ENDBRANCH   8  19
BRANCH   6  23
HETATM   23  C   UNL     1       5.141  26.686  51.235  1.00  0.00    -0.034 A 
HETATM   24  C   UNL     1       4.589  25.914  50.201  1.00  0.00     0.034 A 
HETATM   25  C   UNL     1       4.262  26.498  48.970  1.00  0.00     0.056 A 
HETATM   26 CL   UNL     1       3.585  25.474  47.754  1.00  0.00    -0.083 Cl
HETATM   27  C   UNL     1       4.486  27.862  48.759  1.00  0.00     0.055 A 
HETATM   28 CL   UNL     1       4.110  28.647  47.267  1.00  0.00    -0.083 Cl
HETATM   29  C   UNL     1       5.032  28.640  49.782  1.00  0.00     0.026 A 
HETATM   30  C   UNL     1       5.355  28.057  51.009  1.00  0.00     0.011 A 
ENDBRANCH   6  23
TORSDOF 6
ENDMDL
MODEL 8
REMARK VINA RESULT:      -8.4      1.376      2.096
REMARK  6 active torsions:
REMARK  status: ('A' for Active; 'I' for Inactive)
REMARK    1  A    between atoms: O_2  and  C_3 
REMARK    2  A    between atoms: C_3  and  C_4 
REMARK    3  A    between atoms: C_4  and  N_5 
REMARK       I    between atoms: N_5  and  C_6 
REMARK    4  A    between atoms: C_6  and  C_7 
REMARK    5  A    between atoms: C_12  and  C_13 
REMARK    6  A    between atoms: C_22  and  C_23 
ROOT
HETATM    1  C   UNL     1       7.261  29.618  57.513  1.00  0.00     0.148 C 
HETATM    2  N   UNL     1       5.988  29.217  57.278  1.00  0.00    -0.165 NA
HETATM    3  N   UNL     1       6.137  28.260  56.347  1.00  0.00    -0.240 N 
HETATM    4  C   UNL     1       7.435  27.925  56.093  1.00  0.00     0.123 C 
HETATM    5  N   UNL     1       7.742  26.859  55.327  1.00  0.00    -0.366 N 
HETATM    6  C   UNL     1       6.753  25.843  54.963  1.00  0.00     0.118 C 
HETATM    7  C   UNL     1       5.404  26.048  55.690  1.00  0.00     0.066 C 
HETATM    8  C   UNL     1       5.014  27.528  55.796  1.00  0.00     0.221 C 
HETATM    9  C   UNL     1       8.193  28.849  56.759  1.00  0.00     0.088 C 
HETATM   10  H   UNL     1       8.713  26.623  55.124  1.00  0.00     0.161 HD
ENDROOT
BRANCH   1  11
HETATM   11  C   UNL     1       7.588  30.670  58.487  1.00  0.00     0.272 C 
HETATM   12  N   UNL     1       8.939  30.789  58.735  1.00  0.00    -0.354 N 
HETATM   13  H   UNL     1       9.536  30.267  58.096  1.00  0.00     0.162 HD
HETATM   14  O   UNL     1       6.741  31.404  58.985  1.00  0.00    -0.266 OA
BRANCH  12  15
HETATM   15  C   UNL     1       9.478  31.959  59.392  1.00  0.00     0.149 C 
BRANCH  15  16
HETATM   16  C   UNL     1       9.720  31.716  60.879  1.00  0.00     0.186 C 
BRANCH  16  17
HETATM   17  O   UNL     1       9.115  30.471  61.248  1.00  0.00    -0.394 OA
HETATM   18  C   UNL     1       8.562  30.525  62.556  1.00  0.00     0.201 C 
ENDBRANCH  16  17
ENDBRANCH  15  16
ENDBRANCH  12  15
ENDBRANCH   1  11
BRANCH   8  19
HETATM   19  C   UNL     1       4.603  28.125  54.470  1.00  0.00     0.409 C 
HETATM   20  F   UNL     1       4.289  27.184  53.553  1.00  0.00    -0.169 F 
HETATM   21  F   UNL     1       3.563  28.979  54.559  1.00  0.00    -0.169 F 
HETATM   22  F   UNL     1       5.639  28.837  53.952  1.00  0.00    -0.169 F 
ENDBRANCH   8  19
BRANCH   6  23
HETATM   23  C   UNL     1       7.329  24.470  55.279  1.00  0.00    -0.034 A 
HETATM   24  C   UNL     1       7.340  23.458  54.307  1.00  0.00     0.034 A 
HETATM   25  C   UNL     1       7.867  22.193  54.598  1.00  0.00     0.056 A 
HETATM   26 CL   UNL     1       7.844  21.008  53.341  1.00  0.00    -0.083 Cl
HETATM   27  C   UNL     1       8.386  21.925  55.869  1.00  0.00     0.055 A 
HETATM   28 CL   UNL     1       9.047  20.388  56.298  1.00  0.00    -0.083 Cl
HETATM   29  C   UNL     1       8.382  22.924  56.843  1.00  0.00     0.026 A 
HETATM   30  C   UNL     1       7.859  24.185  56.551  1.00  0.00     0.011 A 
ENDBRANCH   6  23
TORSDOF 6
ENDMDL
MODEL 9
REMARK VINA RESULT:      -8.1      4.071      6.157
REMARK  6 active torsions:
REMARK  status: ('A' for Active; 'I' for Inactive)
REMARK    1  A    between atoms: O_2  and  C_3 
REMARK    2  A    between atoms: C_3  and  C_4 
REMARK    3  A    between atoms: C_4  and  N_5 
REMARK       I    between atoms: N_5  and  C_6 
REMARK    4  A    between atoms: C_6  and  C_7 
REMARK    5  A    between atoms: C_12  and  C_13 
REMARK    6  A    between atoms: C_22  and  C_23 
ROOT
HETATM    1  C   UNL     1       4.580  28.842  53.271  1.00  0.00     0.148 C 
HETATM    2  N   UNL     1       5.651  29.121  54.053  1.00  0.00    -0.165 NA
HETATM    3  N   UNL     1       5.837  27.980  54.735  1.00  0.00    -0.240 N 
HETATM    4  C   UNL     1       5.047  26.947  54.321  1.00  0.00     0.123 C 
HETATM    5  N   UNL     1       5.244  25.693  54.776  1.00  0.00    -0.366 N 
HETATM    6  C   UNL     1       6.457  25.301  55.496  1.00  0.00     0.118 C 
HETATM    7  C   UNL     1       7.521  26.423  55.510  1.00  0.00     0.066 C 
HETATM    8  C   UNL     1       6.904  27.814  55.701  1.00  0.00     0.221 C 
HETATM    9  C   UNL     1       4.155  27.493  53.439  1.00  0.00     0.088 C 
HETATM   10  H   UNL     1       4.640  24.927  54.478  1.00  0.00     0.161 HD
ENDROOT
BRANCH   1  11
HETATM   11  C   UNL     1       4.013  29.822  52.331  1.00  0.00     0.272 C 
HETATM   12  N   UNL     1       4.502  29.698  51.048  1.00  0.00    -0.354 N 
HETATM   13  H   UNL     1       5.045  28.854  50.879  1.00  0.00     0.162 HD
HETATM   14  O   UNL     1       3.148  30.630  52.652  1.00  0.00    -0.266 OA
BRANCH  12  15
HETATM   15  C   UNL     1       3.837  30.333  49.931  1.00  0.00     0.149 C 
BRANCH  15  16
HETATM   16  C   UNL     1       4.641  31.509  49.385  1.00  0.00     0.186 C 
BRANCH  16  17
HETATM   17  O   UNL     1       5.732  31.777  50.274  1.00  0.00    -0.394 OA
HETATM   18  C   UNL     1       5.741  33.133  50.699  1.00  0.00     0.201 C 
ENDBRANCH  16  17
ENDBRANCH  15  16
ENDBRANCH  12  15
ENDBRANCH   1  11
BRANCH   8  19
HETATM   19  C   UNL     1       6.379  28.037  57.101  1.00  0.00     0.409 C 
HETATM   20  F   UNL     1       5.095  27.643  57.242  1.00  0.00    -0.169 F 
HETATM   21  F   UNL     1       7.108  27.425  58.056  1.00  0.00    -0.169 F 
HETATM   22  F   UNL     1       6.409  29.366  57.390  1.00  0.00    -0.169 F 
ENDBRANCH   8  19
BRANCH   6  23
HETATM   23  C   UNL     1       7.017  24.040  54.852  1.00  0.00    -0.034 A 
HETATM   24  C   UNL     1       7.252  22.890  55.620  1.00  0.00     0.034 A 
HETATM   25  C   UNL     1       7.771  21.730  55.030  1.00  0.00     0.056 A 
HETATM   26 CL   UNL     1       8.026  20.359  56.049  1.00  0.00    -0.083 Cl
HETATM   27  C   UNL     1       8.063  21.709  53.662  1.00  0.00     0.055 A 
HETATM   28 CL   UNL     1       8.707  20.316  52.869  1.00  0.00    -0.083 Cl
HETATM   29  C   UNL     1       7.831  22.847  52.888  1.00  0.00     0.026 A 
HETATM   30  C   UNL     1       7.312  24.002  53.477  1.00  0.00     0.011 A 
ENDBRANCH   6  23
TORSDOF 6
ENDMDL
MODEL 10
REMARK VINA RESULT:      -8.0      5.623      8.247
REMARK  6 active torsions:
REMARK  status: ('A' for Active; 'I' for Inactive)
REMARK    1  A    between atoms: O_2  and  C_3 
REMARK    2  A    between atoms: C_3  and  C_4 
REMARK    3  A    between atoms: C_4  and  N_5 
REMARK       I    between atoms: N_5  and  C_6 
REMARK    4  A    between atoms: C_6  and  C_7 
REMARK    5  A    between atoms: C_12  and  C_13 
REMARK    6  A    between atoms: C_22  and  C_23 
ROOT
HETATM    1  C   UNL     1       6.671  24.703  53.562  1.00  0.00     0.148 C 
HETATM    2  N   UNL     1       5.851  25.476  54.314  1.00  0.00    -0.165 NA
HETATM    3  N   UNL     1       5.546  26.491  53.489  1.00  0.00    -0.240 N 
HETATM    4  C   UNL     1       5.999  26.328  52.212  1.00  0.00     0.123 C 
HETATM    5  N   UNL     1       5.617  27.164  51.226  1.00  0.00    -0.366 N 
HETATM    6  C   UNL     1       4.501  28.098  51.377  1.00  0.00     0.118 C 
HETATM    7  C   UNL     1       3.731  27.887  52.701  1.00  0.00     0.066 C 
HETATM    8  C   UNL     1       4.664  27.573  53.878  1.00  0.00     0.221 C 
HETATM    9  C   UNL     1       6.812  25.228  52.245  1.00  0.00     0.088 C 
HETATM   10  H   UNL     1       5.972  27.050  50.277  1.00  0.00     0.161 HD
ENDROOT
BRANCH   1  11
HETATM   11  C   UNL     1       7.257  23.452  54.066  1.00  0.00     0.272 C 
HETATM   12  N   UNL     1       8.139  22.863  53.185  1.00  0.00    -0.354 N 
HETATM   13  H   UNL     1       8.400  23.446  52.392  1.00  0.00     0.162 HD
HETATM   14  O   UNL     1       7.023  23.011  55.187  1.00  0.00    -0.266 OA
BRANCH  12  15
HETATM   15  C   UNL     1       9.053  21.830  53.621  1.00  0.00     0.149 C 
BRANCH  15  16
HETATM   16  C   UNL     1       8.569  20.439  53.224  1.00  0.00     0.186 C 
BRANCH  16  17
HETATM   17  O   UNL     1       8.786  19.543  54.320  1.00  0.00    -0.394 OA
HETATM   18  C   UNL     1       9.111  20.244  55.513  1.00  0.00     0.201 C 
ENDBRANCH  16  17
ENDBRANCH  15  16
ENDBRANCH  12  15
ENDBRANCH   1  11
BRANCH   8  19
HETATM   19  C   UNL     1       5.473  28.770  54.322  1.00  0.00     0.409 C 
HETATM   20  F   UNL     1       6.738  28.746  53.850  1.00  0.00    -0.169 F 
HETATM   21  F   UNL     1       4.925  29.953  53.976  1.00  0.00    -0.169 F 
HETATM   22  F   UNL     1       5.568  28.775  55.679  1.00  0.00    -0.169 F 
ENDBRANCH   8  19
BRANCH   6  23
HETATM   23  C   UNL     1       3.568  27.938  50.184  1.00  0.00    -0.034 A 
HETATM   24  C   UNL     1       3.719  26.859  49.300  1.00  0.00     0.034 A 
HETATM   25  C   UNL     1       2.863  26.712  48.200  1.00  0.00     0.056 A 
HETATM   26 CL   UNL     1       3.117  25.353  47.165  1.00  0.00    -0.083 Cl
HETATM   27  C   UNL     1       1.846  27.645  47.973  1.00  0.00     0.055 A 
HETATM   28 CL   UNL     1       0.758  27.528  46.637  1.00  0.00    -0.083 Cl
HETATM   29  C   UNL     1       1.686  28.721  48.848  1.00  0.00     0.026 A 
HETATM   30  C   UNL     1       2.538  28.865  49.944  1.00  0.00     0.011 A 
ENDBRANCH   6  23
TORSDOF 6
ENDMDL
