MODEL 1
REMARK VINA RESULT:      -9.4      0.000      0.000
REMARK  6 active torsions:
REMARK  status: ('A' for Active; 'I' for Inactive)
REMARK    1  A    between atoms: C_3  and  C_4 
REMARK    2  A    between atoms: C_4  and  O_5 
REMARK    3  A    between atoms: O_5  and  C_6 
REMARK    4  A    between atoms: C_9  and  C_10 
REMARK       I    between atoms: C_10  and  N_11 
REMARK    5  A    between atoms: N_11  and  N_12 
REMARK       I    between atoms: N_12  and  C_13 
REMARK    6  A    between atoms: C_13  and  C_14 
ROOT
HETATM    1  C   UNL     1       7.737  22.988  52.903  1.00  0.00     0.001 A 
HETATM    2  C   UNL     1       7.123  24.199  53.223  1.00  0.00     0.011 A 
HETATM    3  C   UNL     1       7.273  24.775  54.497  1.00  0.00    -0.013 A 
HETATM    4  C   UNL     1       8.096  24.119  55.435  1.00  0.00     0.053 A 
HETATM    5  C   UNL     1       8.342  24.670  56.738  1.00  0.00     0.100 C 
HETATM    6  N   UNL     1       8.535  25.136  57.784  1.00  0.00    -0.191 NA
HETATM    7  C   UNL     1       8.708  22.899  55.106  1.00  0.00     0.023 A 
HETATM    8  C   UNL     1       8.526  22.334  53.845  1.00  0.00     0.002 A 
ENDROOT
BRANCH   3   9
HETATM    9  C   UNL     1       6.611  26.103  54.821  1.00  0.00     0.216 C 
BRANCH   9  10
HETATM   10  O   UNL     1       7.524  27.182  54.592  1.00  0.00    -0.347 OA
BRANCH  10  11
HETATM   11  C   UNL     1       7.768  27.997  55.663  1.00  0.00     0.069 A 
HETATM   12  C   UNL     1       8.915  28.768  55.845  1.00  0.00     0.038 A 
HETATM   13  C   UNL     1       9.062  29.537  57.005  1.00  0.00     0.020 A 
HETATM   14  C   UNL     1       8.059  29.556  57.983  1.00  0.00     0.033 A 
HETATM   15  C   UNL     1       6.897  28.801  57.785  1.00  0.00     0.020 A 
HETATM   16  C   UNL     1       6.754  28.035  56.623  1.00  0.00     0.038 A 
BRANCH  14  17
HETATM   17  C   UNL     1       8.302  30.350  59.220  1.00  0.00     0.270 C 
HETATM   18  N   UNL     1       7.198  30.728  59.955  1.00  0.00    -0.263 N 
HETATM   19  H   UNL     1       6.230  30.607  59.670  1.00  0.00     0.190 HD
HETATM   20  O   UNL     1       9.445  30.653  59.555  1.00  0.00    -0.266 OA
BRANCH  18  21
HETATM   21  N   UNL     1       7.415  31.455  61.129  1.00  0.00    -0.262 N 
HETATM   22  C   UNL     1       6.434  32.308  61.585  1.00  0.00     0.286 C 
HETATM   23  O   UNL     1       5.394  32.497  60.954  1.00  0.00    -0.264 OA
HETATM   24  H   UNL     1       8.277  31.261  61.630  1.00  0.00     0.190 HD
BRANCH  22  25
HETATM   25  C   UNL     1       6.711  32.957  62.847  1.00  0.00     0.102 A 
HETATM   26  N   UNL     1       5.879  33.938  63.349  1.00  0.00    -0.361 N 
HETATM   27  H   UNL     1       5.043  34.261  62.875  1.00  0.00     0.165 HD
HETATM   28  C   UNL     1       6.348  34.392  64.551  1.00  0.00     0.088 A 
HETATM   29  C   UNL     1       7.499  33.697  64.843  1.00  0.00     0.019 A 
HETATM   30  C   UNL     1       7.729  32.796  63.774  1.00  0.00     0.036 A 
ENDBRANCH  22  25
ENDBRANCH  18  21
ENDBRANCH  14  17
ENDBRANCH  10  11
ENDBRANCH   9  10
ENDBRANCH   3   9
TORSDOF 6
ENDMDL
MODEL 2
REMARK VINA RESULT:      -9.0      1.490      1.960
REMARK  6 active torsions:
REMARK  status: ('A' for Active; 'I' for Inactive)
REMARK    1  A    between atoms: C_3  and  C_4 
REMARK    2  A    between atoms: C_4  and  O_5 
REMARK    3  A    between atoms: O_5  and  C_6 
REMARK    4  A    between atoms: C_9  and  C_10 
REMARK       I    between atoms: C_10  and  N_11 
REMARK    5  A    between atoms: N_11  and  N_12 
REMARK       I    between atoms: N_12  and  C_13 
REMARK    6  A    between atoms: C_13  and  C_14 
ROOT
HETATM    1  C   UNL     1       8.552  23.418  55.594  1.00  0.00     0.001 A 
HETATM    2  C   UNL     1       8.085  24.731  55.674  1.00  0.00     0.011 A 
HETATM    3  C   UNL     1       7.274  25.275  54.660  1.00  0.00    -0.013 A 
HETATM    4  C   UNL     1       6.909  24.447  53.579  1.00  0.00     0.053 A 
HETATM    5  C   UNL     1       6.041  24.913  52.534  1.00  0.00     0.100 C 
HETATM    6  N   UNL     1       5.332  25.305  51.702  1.00  0.00    -0.191 NA
HETATM    7  C   UNL     1       7.386  23.129  53.505  1.00  0.00     0.023 A 
HETATM    8  C   UNL     1       8.208  22.618  54.508  1.00  0.00     0.002 A 
ENDROOT
BRANCH   3   9
HETATM    9  C   UNL     1       6.760  26.700  54.774  1.00  0.00     0.216 C 
BRANCH   9  10
HETATM   10  O   UNL     1       7.855  27.622  54.789  1.00  0.00    -0.347 OA
BRANCH  10  11
HETATM   11  C   UNL     1       8.006  28.354  55.935  1.00  0.00     0.069 A 
HETATM   12  C   UNL     1       9.124  29.121  56.260  1.00  0.00     0.038 A 
HETATM   13  C   UNL     1       9.172  29.799  57.483  1.00  0.00     0.020 A 
HETATM   14  C   UNL     1       8.100  29.729  58.384  1.00  0.00     0.033 A 
HETATM   15  C   UNL     1       6.969  28.978  58.043  1.00  0.00     0.020 A 
HETATM   16  C   UNL     1       6.924  28.305  56.817  1.00  0.00     0.038 A 
BRANCH  14  17
HETATM   17  C   UNL     1       8.239  30.427  59.693  1.00  0.00     0.270 C 
HETATM   18  N   UNL     1       7.243  31.313  60.045  1.00  0.00    -0.263 N 
HETATM   19  H   UNL     1       6.481  31.613  59.443  1.00  0.00     0.190 HD
HETATM   20  O   UNL     1       9.210  30.214  60.416  1.00  0.00    -0.266 OA
BRANCH  18  21
HETATM   21  N   UNL     1       7.351  31.957  61.280  1.00  0.00    -0.262 N 
HETATM   22  C   UNL     1       6.209  32.225  62.003  1.00  0.00     0.286 C 
HETATM   23  O   UNL     1       5.088  31.970  61.564  1.00  0.00    -0.264 OA
HETATM   24  H   UNL     1       8.292  32.139  61.617  1.00  0.00     0.190 HD
BRANCH  22  25
HETATM   25  C   UNL     1       6.422  32.821  63.304  1.00  0.00     0.102 A 
HETATM   26  N   UNL     1       5.367  33.290  64.060  1.00  0.00    -0.361 N 
HETATM   27  H   UNL     1       4.399  33.250  63.760  1.00  0.00     0.165 HD
HETATM   28  C   UNL     1       5.820  33.802  65.245  1.00  0.00     0.088 A 
HETATM   29  C   UNL     1       7.188  33.662  65.268  1.00  0.00     0.019 A 
HETATM   30  C   UNL     1       7.568  33.048  64.049  1.00  0.00     0.036 A 
ENDBRANCH  22  25
ENDBRANCH  18  21
ENDBRANCH  14  17
ENDBRANCH  10  11
ENDBRANCH   9  10
ENDBRANCH   3   9
TORSDOF 6
ENDMDL
MODEL 3
REMARK VINA RESULT:      -8.9      2.053     10.253
REMARK  6 active torsions:
REMARK  status: ('A' for Active; 'I' for Inactive)
REMARK    1  A    between atoms: C_3  and  C_4 
REMARK    2  A    between atoms: C_4  and  O_5 
REMARK    3  A    between atoms: O_5  and  C_6 
REMARK    4  A    between atoms: C_9  and  C_10 
REMARK       I    between atoms: C_10  and  N_11 
REMARK    5  A    between atoms: N_11  and  N_12 
REMARK       I    between atoms: N_12  and  C_13 
REMARK    6  A    between atoms: C_13  and  C_14 
ROOT
HETATM    1  C   UNL     1       8.753  32.220  62.282  1.00  0.00     0.001 A 
HETATM    2  C   UNL     1       8.177  32.193  61.011  1.00  0.00     0.011 A 
HETATM    3  C   UNL     1       6.790  32.355  60.840  1.00  0.00    -0.013 A 
HETATM    4  C   UNL     1       5.998  32.590  61.982  1.00  0.00     0.053 A 
HETATM    5  C   UNL     1       4.584  32.818  61.884  1.00  0.00     0.100 C 
HETATM    6  N   UNL     1       3.443  33.010  61.784  1.00  0.00    -0.191 NA
HETATM    7  C   UNL     1       6.586  32.612  63.257  1.00  0.00     0.023 A 
HETATM    8  C   UNL     1       7.959  32.425  63.406  1.00  0.00     0.002 A 
ENDROOT
BRANCH   3   9
HETATM    9  C   UNL     1       6.183  32.341  59.447  1.00  0.00     0.216 C 
BRANCH   9  10
HETATM   10  O   UNL     1       7.156  31.915  58.487  1.00  0.00    -0.347 OA
BRANCH  10  11
HETATM   11  C   UNL     1       7.024  30.632  58.029  1.00  0.00     0.069 A 
HETATM   12  C   UNL     1       5.845  30.069  57.542  1.00  0.00     0.038 A 
HETATM   13  C   UNL     1       5.829  28.730  57.134  1.00  0.00     0.020 A 
HETATM   14  C   UNL     1       6.991  27.949  57.194  1.00  0.00     0.033 A 
HETATM   15  C   UNL     1       8.178  28.526  57.660  1.00  0.00     0.020 A 
HETATM   16  C   UNL     1       8.190  29.865  58.065  1.00  0.00     0.038 A 
BRANCH  14  17
HETATM   17  C   UNL     1       6.893  26.516  56.799  1.00  0.00     0.270 C 
HETATM   18  N   UNL     1       8.051  25.897  56.377  1.00  0.00    -0.263 N 
HETATM   19  H   UNL     1       8.940  26.360  56.208  1.00  0.00     0.190 HD
HETATM   20  O   UNL     1       5.816  25.926  56.848  1.00  0.00    -0.266 OA
BRANCH  18  21
HETATM   21  N   UNL     1       7.976  24.547  56.025  1.00  0.00    -0.262 N 
HETATM   22  C   UNL     1       7.930  24.198  54.693  1.00  0.00     0.286 C 
HETATM   23  O   UNL     1       7.889  25.047  53.802  1.00  0.00    -0.264 OA
HETATM   24  H   UNL     1       8.027  23.875  56.786  1.00  0.00     0.190 HD
BRANCH  22  25
HETATM   25  C   UNL     1       7.935  22.779  54.420  1.00  0.00     0.102 A 
HETATM   26  N   UNL     1       7.703  21.854  55.418  1.00  0.00    -0.361 N 
HETATM   27  H   UNL     1       7.522  22.104  56.384  1.00  0.00     0.165 HD
HETATM   28  C   UNL     1       7.755  20.584  54.913  1.00  0.00     0.088 A 
HETATM   29  C   UNL     1       8.020  20.677  53.567  1.00  0.00     0.019 A 
HETATM   30  C   UNL     1       8.134  22.054  53.255  1.00  0.00     0.036 A 
ENDBRANCH  22  25
ENDBRANCH  18  21
ENDBRANCH  14  17
ENDBRANCH  10  11
ENDBRANCH   9  10
ENDBRANCH   3   9
TORSDOF 6
ENDMDL
MODEL 4
REMARK VINA RESULT:      -8.9      3.023      3.570
REMARK  6 active torsions:
REMARK  status: ('A' for Active; 'I' for Inactive)
REMARK    1  A    between atoms: C_3  and  C_4 
REMARK    2  A    between atoms: C_4  and  O_5 
REMARK    3  A    between atoms: O_5  and  C_6 
REMARK    4  A    between atoms: C_9  and  C_10 
REMARK       I    between atoms: C_10  and  N_11 
REMARK    5  A    between atoms: N_11  and  N_12 
REMARK       I    between atoms: N_12  and  C_13 
REMARK    6  A    between atoms: C_13  and  C_14 
ROOT
HETATM    1  C   UNL     1       8.359  20.342  53.189  1.00  0.00     0.001 A 
HETATM    2  C   UNL     1       8.073  21.675  52.893  1.00  0.00     0.011 A 
HETATM    3  C   UNL     1       8.144  22.670  53.886  1.00  0.00    -0.013 A 
HETATM    4  C   UNL     1       8.555  22.294  55.182  1.00  0.00     0.053 A 
HETATM    5  C   UNL     1       8.704  23.260  56.234  1.00  0.00     0.100 C 
HETATM    6  N   UNL     1       8.826  24.056  57.070  1.00  0.00    -0.191 NA
HETATM    7  C   UNL     1       8.837  20.950  55.471  1.00  0.00     0.023 A 
HETATM    8  C   UNL     1       8.737  19.977  54.478  1.00  0.00     0.002 A 
ENDROOT
BRANCH   3   9
HETATM    9  C   UNL     1       7.846  24.119  53.541  1.00  0.00     0.216 C 
BRANCH   9  10
HETATM   10  O   UNL     1       6.513  24.459  53.935  1.00  0.00    -0.347 OA
BRANCH  10  11
HETATM   11  C   UNL     1       6.380  25.605  54.670  1.00  0.00     0.069 A 
HETATM   12  C   UNL     1       7.018  26.815  54.398  1.00  0.00     0.038 A 
HETATM   13  C   UNL     1       6.828  27.909  55.249  1.00  0.00     0.020 A 
HETATM   14  C   UNL     1       5.986  27.811  56.365  1.00  0.00     0.033 A 
HETATM   15  C   UNL     1       5.328  26.603  56.620  1.00  0.00     0.020 A 
HETATM   16  C   UNL     1       5.520  25.511  55.766  1.00  0.00     0.038 A 
BRANCH  14  17
HETATM   17  C   UNL     1       5.872  28.996  57.262  1.00  0.00     0.270 C 
HETATM   18  N   UNL     1       4.611  29.328  57.710  1.00  0.00    -0.263 N 
HETATM   19  H   UNL     1       3.742  28.903  57.397  1.00  0.00     0.190 HD
HETATM   20  O   UNL     1       6.868  29.643  57.575  1.00  0.00    -0.266 OA
BRANCH  18  21
HETATM   21  N   UNL     1       4.492  30.424  58.569  1.00  0.00    -0.262 N 
HETATM   22  C   UNL     1       3.667  31.470  58.219  1.00  0.00     0.286 C 
HETATM   23  O   UNL     1       3.077  31.497  57.138  1.00  0.00    -0.264 OA
HETATM   24  H   UNL     1       4.981  30.359  59.457  1.00  0.00     0.190 HD
BRANCH  22  25
HETATM   25  C   UNL     1       3.544  32.523  59.202  1.00  0.00     0.102 A 
HETATM   26  N   UNL     1       3.541  33.853  58.835  1.00  0.00    -0.361 N 
HETATM   27  H   UNL     1       3.625  34.170  57.875  1.00  0.00     0.165 HD
HETATM   28  C   UNL     1       3.410  34.652  59.937  1.00  0.00     0.088 A 
HETATM   29  C   UNL     1       3.322  33.836  61.040  1.00  0.00     0.019 A 
HETATM   30  C   UNL     1       3.407  32.498  60.582  1.00  0.00     0.036 A 
ENDBRANCH  22  25
ENDBRANCH  18  21
ENDBRANCH  14  17
ENDBRANCH  10  11
ENDBRANCH   9  10
ENDBRANCH   3   9
TORSDOF 6
ENDMDL
MODEL 5
REMARK VINA RESULT:      -8.6      2.089     10.366
REMARK  6 active torsions:
REMARK  status: ('A' for Active; 'I' for Inactive)
REMARK    1  A    between atoms: C_3  and  C_4 
REMARK    2  A    between atoms: C_4  and  O_5 
REMARK    3  A    between atoms: O_5  and  C_6 
REMARK    4  A    between atoms: C_9  and  C_10 
REMARK       I    between atoms: C_10  and  N_11 
REMARK    5  A    between atoms: N_11  and  N_12 
REMARK       I    between atoms: N_12  and  C_13 
REMARK    6  A    between atoms: C_13  and  C_14 
ROOT
HETATM    1  C   UNL     1       7.976  33.052  63.977  1.00  0.00     0.001 A 
HETATM    2  C   UNL     1       7.380  32.670  62.775  1.00  0.00     0.011 A 
HETATM    3  C   UNL     1       5.991  32.792  62.582  1.00  0.00    -0.013 A 
HETATM    4  C   UNL     1       5.218  33.350  63.620  1.00  0.00     0.053 A 
HETATM    5  C   UNL     1       3.804  33.557  63.479  1.00  0.00     0.100 C 
HETATM    6  N   UNL     1       2.664  33.724  63.343  1.00  0.00    -0.191 NA
HETATM    7  C   UNL     1       5.825  33.729  64.828  1.00  0.00     0.023 A 
HETATM    8  C   UNL     1       7.199  33.577  65.006  1.00  0.00     0.002 A 
ENDROOT
BRANCH   3   9
HETATM    9  C   UNL     1       5.363  32.387  61.259  1.00  0.00     0.216 C 
BRANCH   9  10
HETATM   10  O   UNL     1       6.215  32.761  60.171  1.00  0.00    -0.347 OA
BRANCH  10  11
HETATM   11  C   UNL     1       6.630  31.741  59.358  1.00  0.00     0.069 A 
HETATM   12  C   UNL     1       5.943  31.272  58.240  1.00  0.00     0.038 A 
HETATM   13  C   UNL     1       6.456  30.195  57.508  1.00  0.00     0.020 A 
HETATM   14  C   UNL     1       7.666  29.591  57.876  1.00  0.00     0.033 A 
HETATM   15  C   UNL     1       8.365  30.081  58.984  1.00  0.00     0.020 A 
HETATM   16  C   UNL     1       7.849  31.159  59.712  1.00  0.00     0.038 A 
BRANCH  14  17
HETATM   17  C   UNL     1       8.128  28.413  57.089  1.00  0.00     0.270 C 
HETATM   18  N   UNL     1       7.163  27.665  56.447  1.00  0.00    -0.263 N 
HETATM   19  H   UNL     1       6.159  27.782  56.552  1.00  0.00     0.190 HD
HETATM   20  O   UNL     1       9.322  28.129  57.029  1.00  0.00    -0.266 OA
BRANCH  18  21
HETATM   21  N   UNL     1       7.585  26.571  55.688  1.00  0.00    -0.262 N 
HETATM   22  C   UNL     1       7.290  25.296  56.119  1.00  0.00     0.286 C 
HETATM   23  O   UNL     1       6.719  25.090  57.191  1.00  0.00    -0.264 OA
HETATM   24  H   UNL     1       8.040  26.779  54.803  1.00  0.00     0.190 HD
BRANCH  22  25
HETATM   25  C   UNL     1       7.695  24.229  55.232  1.00  0.00     0.102 A 
HETATM   26  N   UNL     1       8.662  23.315  55.601  1.00  0.00    -0.361 N 
HETATM   27  H   UNL     1       9.141  23.335  56.494  1.00  0.00     0.165 HD
HETATM   28  C   UNL     1       8.866  22.406  54.599  1.00  0.00     0.088 A 
HETATM   29  C   UNL     1       8.020  22.725  53.563  1.00  0.00     0.019 A 
HETATM   30  C   UNL     1       7.284  23.870  53.957  1.00  0.00     0.036 A 
ENDBRANCH  22  25
ENDBRANCH  18  21
ENDBRANCH  14  17
ENDBRANCH  10  11
ENDBRANCH   9  10
ENDBRANCH   3   9
TORSDOF 6
ENDMDL
MODEL 6
REMARK VINA RESULT:      -8.5      1.756     10.310
REMARK  6 active torsions:
REMARK  status: ('A' for Active; 'I' for Inactive)
REMARK    1  A    between atoms: C_3  and  C_4 
REMARK    2  A    between atoms: C_4  and  O_5 
REMARK    3  A    between atoms: O_5  and  C_6 
REMARK    4  A    between atoms: C_9  and  C_10 
REMARK       I    between atoms: C_10  and  N_11 
REMARK    5  A    between atoms: N_11  and  N_12 
REMARK       I    between atoms: N_12  and  C_13 
REMARK    6  A    between atoms: C_13  and  C_14 
ROOT
HETATM    1  C   UNL     1       6.256  34.386  63.426  1.00  0.00     0.001 A 
HETATM    2  C   UNL     1       5.994  33.761  62.206  1.00  0.00     0.011 A 
HETATM    3  C   UNL     1       6.750  32.652  61.783  1.00  0.00    -0.013 A 
HETATM    4  C   UNL     1       7.754  32.159  62.641  1.00  0.00     0.053 A 
HETATM    5  C   UNL     1       8.532  31.000  62.304  1.00  0.00     0.100 C 
HETATM    6  N   UNL     1       9.144  30.057  62.017  1.00  0.00    -0.191 NA
HETATM    7  C   UNL     1       8.012  32.797  63.865  1.00  0.00     0.023 A 
HETATM    8  C   UNL     1       7.267  33.909  64.254  1.00  0.00     0.002 A 
ENDROOT
BRANCH   3   9
HETATM    9  C   UNL     1       6.439  31.973  60.459  1.00  0.00     0.216 C 
BRANCH   9  10
HETATM   10  O   UNL     1       7.625  31.869  59.664  1.00  0.00    -0.347 OA
BRANCH  10  11
HETATM   11  C   UNL     1       7.611  30.907  58.692  1.00  0.00     0.069 A 
HETATM   12  C   UNL     1       6.480  30.479  57.998  1.00  0.00     0.038 A 
HETATM   13  C   UNL     1       6.590  29.459  57.047  1.00  0.00     0.020 A 
HETATM   14  C   UNL     1       7.831  28.868  56.770  1.00  0.00     0.033 A 
HETATM   15  C   UNL     1       8.968  29.318  57.451  1.00  0.00     0.020 A 
HETATM   16  C   UNL     1       8.854  30.340  58.400  1.00  0.00     0.038 A 
BRANCH  14  17
HETATM   17  C   UNL     1       7.870  27.748  55.789  1.00  0.00     0.270 C 
HETATM   18  N   UNL     1       7.606  26.481  56.267  1.00  0.00    -0.263 N 
HETATM   19  H   UNL     1       7.496  26.231  57.246  1.00  0.00     0.190 HD
HETATM   20  O   UNL     1       8.134  27.959  54.607  1.00  0.00    -0.266 OA
BRANCH  18  21
HETATM   21  N   UNL     1       7.618  25.424  55.353  1.00  0.00    -0.262 N 
HETATM   22  C   UNL     1       8.276  24.258  55.678  1.00  0.00     0.286 C 
HETATM   23  O   UNL     1       8.910  24.142  56.727  1.00  0.00    -0.264 OA
HETATM   24  H   UNL     1       7.073  25.551  54.506  1.00  0.00     0.190 HD
BRANCH  22  25
HETATM   25  C   UNL     1       8.169  23.192  54.708  1.00  0.00     0.102 A 
HETATM   26  N   UNL     1       8.341  21.871  55.070  1.00  0.00    -0.361 N 
HETATM   27  H   UNL     1       8.551  21.571  56.015  1.00  0.00     0.165 HD
HETATM   28  C   UNL     1       8.187  21.055  53.983  1.00  0.00     0.088 A 
HETATM   29  C   UNL     1       7.907  21.849  52.896  1.00  0.00     0.019 A 
HETATM   30  C   UNL     1       7.896  23.192  53.349  1.00  0.00     0.036 A 
ENDBRANCH  22  25
ENDBRANCH  18  21
ENDBRANCH  14  17
ENDBRANCH  10  11
ENDBRANCH   9  10
ENDBRANCH   3   9
TORSDOF 6
ENDMDL
MODEL 7
REMARK VINA RESULT:      -8.4      2.124      2.358
REMARK  6 active torsions:
REMARK  status: ('A' for Active; 'I' for Inactive)
REMARK    1  A    between atoms: C_3  and  C_4 
REMARK    2  A    between atoms: C_4  and  O_5 
REMARK    3  A    between atoms: O_5  and  C_6 
REMARK    4  A    between atoms: C_9  and  C_10 
REMARK       I    between atoms: C_10  and  N_11 
REMARK    5  A    between atoms: N_11  and  N_12 
REMARK       I    between atoms: N_12  and  C_13 
REMARK    6  A    between atoms: C_13  and  C_14 
ROOT
HETATM    1  C   UNL     1       8.027  22.269  52.874  1.00  0.00     0.001 A 
HETATM    2  C   UNL     1       7.295  23.379  53.299  1.00  0.00     0.011 A 
HETATM    3  C   UNL     1       7.492  23.931  54.578  1.00  0.00    -0.013 A 
HETATM    4  C   UNL     1       8.479  23.362  55.409  1.00  0.00     0.053 A 
HETATM    5  C   UNL     1       8.775  23.902  56.705  1.00  0.00     0.100 C 
HETATM    6  N   UNL     1       9.007  24.358  57.748  1.00  0.00    -0.191 NA
HETATM    7  C   UNL     1       9.208  22.243  54.974  1.00  0.00     0.023 A 
HETATM    8  C   UNL     1       8.980  21.697  53.712  1.00  0.00     0.002 A 
ENDROOT
BRANCH   3   9
HETATM    9  C   UNL     1       6.698  25.150  55.016  1.00  0.00     0.216 C 
BRANCH   9  10
HETATM   10  O   UNL     1       7.445  26.345  54.763  1.00  0.00    -0.347 OA
BRANCH  10  11
HETATM   11  C   UNL     1       7.280  27.357  55.668  1.00  0.00     0.069 A 
HETATM   12  C   UNL     1       8.201  27.717  56.651  1.00  0.00     0.038 A 
HETATM   13  C   UNL     1       7.899  28.751  57.544  1.00  0.00     0.020 A 
HETATM   14  C   UNL     1       6.685  29.445  57.453  1.00  0.00     0.033 A 
HETATM   15  C   UNL     1       5.774  29.097  56.449  1.00  0.00     0.020 A 
HETATM   16  C   UNL     1       6.081  28.064  55.557  1.00  0.00     0.038 A 
BRANCH  14  17
HETATM   17  C   UNL     1       6.401  30.497  58.470  1.00  0.00     0.270 C 
HETATM   18  N   UNL     1       5.116  30.992  58.523  1.00  0.00    -0.263 N 
HETATM   19  H   UNL     1       4.374  30.783  57.859  1.00  0.00     0.190 HD
HETATM   20  O   UNL     1       7.289  30.899  59.219  1.00  0.00    -0.266 OA
BRANCH  18  21
HETATM   21  N   UNL     1       4.831  31.964  59.486  1.00  0.00    -0.262 N 
HETATM   22  C   UNL     1       3.626  31.921  60.152  1.00  0.00     0.286 C 
HETATM   23  O   UNL     1       2.763  31.087  59.878  1.00  0.00    -0.264 OA
HETATM   24  H   UNL     1       5.573  32.625  59.696  1.00  0.00     0.190 HD
BRANCH  22  25
HETATM   25  C   UNL     1       3.451  32.916  61.187  1.00  0.00     0.102 A 
HETATM   26  N   UNL     1       2.334  33.726  61.224  1.00  0.00    -0.361 N 
HETATM   27  H   UNL     1       1.584  33.678  60.543  1.00  0.00     0.165 HD
HETATM   28  C   UNL     1       2.397  34.577  62.293  1.00  0.00     0.088 A 
HETATM   29  C   UNL     1       3.568  34.320  62.967  1.00  0.00     0.019 A 
HETATM   30  C   UNL     1       4.232  33.278  62.274  1.00  0.00     0.036 A 
ENDBRANCH  22  25
ENDBRANCH  18  21
ENDBRANCH  14  17
ENDBRANCH  10  11
ENDBRANCH   9  10
ENDBRANCH   3   9
TORSDOF 6
ENDMDL
MODEL 8
REMARK VINA RESULT:      -8.3      2.012      2.533
REMARK  6 active torsions:
REMARK  status: ('A' for Active; 'I' for Inactive)
REMARK    1  A    between atoms: C_3  and  C_4 
REMARK    2  A    between atoms: C_4  and  O_5 
REMARK    3  A    between atoms: O_5  and  C_6 
REMARK    4  A    between atoms: C_9  and  C_10 
REMARK       I    between atoms: C_10  and  N_11 
REMARK    5  A    between atoms: N_11  and  N_12 
REMARK       I    between atoms: N_12  and  C_13 
REMARK    6  A    between atoms: C_13  and  C_14 
ROOT
HETATM    1  C   UNL     1       9.086  22.589  55.129  1.00  0.00     0.001 A 
HETATM    2  C   UNL     1       8.577  23.686  55.825  1.00  0.00     0.011 A 
HETATM    3  C   UNL     1       7.496  24.429  55.318  1.00  0.00    -0.013 A 
HETATM    4  C   UNL     1       6.908  24.014  54.106  1.00  0.00     0.053 A 
HETATM    5  C   UNL     1       5.768  24.688  53.551  1.00  0.00     0.100 C 
HETATM    6  N   UNL     1       4.841  25.241  53.123  1.00  0.00    -0.191 NA
HETATM    7  C   UNL     1       7.428  22.911  53.410  1.00  0.00     0.023 A 
HETATM    8  C   UNL     1       8.515  22.203  53.919  1.00  0.00     0.002 A 
ENDROOT
BRANCH   3   9
HETATM    9  C   UNL     1       6.944  25.610  56.100  1.00  0.00     0.216 C 
BRANCH   9  10
HETATM   10  O   UNL     1       7.619  26.814  55.721  1.00  0.00    -0.347 OA
BRANCH  10  11
HETATM   11  C   UNL     1       7.270  27.940  56.416  1.00  0.00     0.069 A 
HETATM   12  C   UNL     1       6.183  28.762  56.123  1.00  0.00     0.038 A 
HETATM   13  C   UNL     1       5.950  29.909  56.890  1.00  0.00     0.020 A 
HETATM   14  C   UNL     1       6.789  30.235  57.964  1.00  0.00     0.033 A 
HETATM   15  C   UNL     1       7.865  29.393  58.270  1.00  0.00     0.020 A 
HETATM   16  C   UNL     1       8.093  28.247  57.502  1.00  0.00     0.038 A 
BRANCH  14  17
HETATM   17  C   UNL     1       6.520  31.500  58.704  1.00  0.00     0.270 C 
HETATM   18  N   UNL     1       6.539  31.441  60.082  1.00  0.00    -0.263 N 
HETATM   19  H   UNL     1       6.612  30.592  60.636  1.00  0.00     0.190 HD
HETATM   20  O   UNL     1       6.287  32.543  58.098  1.00  0.00    -0.266 OA
BRANCH  18  21
HETATM   21  N   UNL     1       6.310  32.625  60.788  1.00  0.00    -0.262 N 
HETATM   22  C   UNL     1       5.097  32.814  61.414  1.00  0.00     0.286 C 
HETATM   23  O   UNL     1       4.183  31.994  61.317  1.00  0.00    -0.264 OA
HETATM   24  H   UNL     1       7.091  33.271  60.858  1.00  0.00     0.190 HD
BRANCH  22  25
HETATM   25  C   UNL     1       4.977  34.030  62.186  1.00  0.00     0.102 A 
HETATM   26  N   UNL     1       3.750  34.488  62.620  1.00  0.00    -0.361 N 
HETATM   27  H   UNL     1       2.874  34.014  62.427  1.00  0.00     0.165 HD
HETATM   28  C   UNL     1       3.897  35.648  63.329  1.00  0.00     0.088 A 
HETATM   29  C   UNL     1       5.238  35.952  63.365  1.00  0.00     0.019 A 
HETATM   30  C   UNL     1       5.918  34.938  62.647  1.00  0.00     0.036 A 
ENDBRANCH  22  25
ENDBRANCH  18  21
ENDBRANCH  14  17
ENDBRANCH  10  11
ENDBRANCH   9  10
ENDBRANCH   3   9
TORSDOF 6
ENDMDL
MODEL 9
REMARK VINA RESULT:      -8.2      4.188     10.440
REMARK  6 active torsions:
REMARK  status: ('A' for Active; 'I' for Inactive)
REMARK    1  A    between atoms: C_3  and  C_4 
REMARK    2  A    between atoms: C_4  and  O_5 
REMARK    3  A    between atoms: O_5  and  C_6 
REMARK    4  A    between atoms: C_9  and  C_10 
REMARK       I    between atoms: C_10  and  N_11 
REMARK    5  A    between atoms: N_11  and  N_12 
REMARK       I    between atoms: N_12  and  C_13 
REMARK    6  A    between atoms: C_13  and  C_14 
ROOT
HETATM    1  C   UNL     1       8.461  31.076  62.527  1.00  0.00     0.001 A 
HETATM    2  C   UNL     1       8.799  30.518  61.293  1.00  0.00     0.011 A 
HETATM    3  C   UNL     1       8.103  30.871  60.122  1.00  0.00    -0.013 A 
HETATM    4  C   UNL     1       7.080  31.837  60.217  1.00  0.00     0.053 A 
HETATM    5  C   UNL     1       6.361  32.288  59.059  1.00  0.00     0.100 C 
HETATM    6  N   UNL     1       5.796  32.647  58.110  1.00  0.00    -0.191 NA
HETATM    7  C   UNL     1       6.744  32.390  61.463  1.00  0.00     0.023 A 
HETATM    8  C   UNL     1       7.431  32.008  62.614  1.00  0.00     0.002 A 
ENDROOT
BRANCH   3   9
HETATM    9  C   UNL     1       8.498  30.267  58.785  1.00  0.00     0.216 C 
BRANCH   9  10
HETATM   10  O   UNL     1       8.087  28.897  58.720  1.00  0.00    -0.347 OA
BRANCH  10  11
HETATM   11  C   UNL     1       7.468  28.512  57.562  1.00  0.00     0.069 A 
HETATM   12  C   UNL     1       6.661  29.328  56.771  1.00  0.00     0.038 A 
HETATM   13  C   UNL     1       6.054  28.805  55.623  1.00  0.00     0.020 A 
HETATM   14  C   UNL     1       6.261  27.471  55.248  1.00  0.00     0.033 A 
HETATM   15  C   UNL     1       7.092  26.662  56.031  1.00  0.00     0.020 A 
HETATM   16  C   UNL     1       7.699  27.190  57.177  1.00  0.00     0.038 A 
BRANCH  14  17
HETATM   17  C   UNL     1       5.540  26.961  54.048  1.00  0.00     0.270 C 
HETATM   18  N   UNL     1       5.063  27.897  53.154  1.00  0.00    -0.263 N 
HETATM   19  H   UNL     1       5.064  28.903  53.296  1.00  0.00     0.190 HD
HETATM   20  O   UNL     1       5.379  25.754  53.879  1.00  0.00    -0.266 OA
BRANCH  18  21
HETATM   21  N   UNL     1       4.404  27.431  52.013  1.00  0.00    -0.262 N 
HETATM   22  C   UNL     1       4.773  27.912  50.776  1.00  0.00     0.286 C 
HETATM   23  O   UNL     1       5.627  28.790  50.651  1.00  0.00    -0.264 OA
HETATM   24  H   UNL     1       3.716  26.696  52.154  1.00  0.00     0.190 HD
BRANCH  22  25
HETATM   25  C   UNL     1       4.093  27.316  49.648  1.00  0.00     0.102 A 
HETATM   26  N   UNL     1       2.786  27.639  49.344  1.00  0.00    -0.361 N 
HETATM   27  H   UNL     1       2.231  28.296  49.881  1.00  0.00     0.165 HD
HETATM   28  C   UNL     1       2.370  26.951  48.237  1.00  0.00     0.088 A 
HETATM   29  C   UNL     1       3.419  26.172  47.807  1.00  0.00     0.019 A 
HETATM   30  C   UNL     1       4.502  26.398  48.692  1.00  0.00     0.036 A 
ENDBRANCH  22  25
ENDBRANCH  18  21
ENDBRANCH  14  17
ENDBRANCH  10  11
ENDBRANCH   9  10
ENDBRANCH   3   9
TORSDOF 6
ENDMDL
MODEL 10
REMARK VINA RESULT:      -8.1      6.909     10.983
REMARK  6 active torsions:
REMARK  status: ('A' for Active; 'I' for Inactive)
REMARK    1  A    between atoms: C_3  and  C_4 
REMARK    2  A    between atoms: C_4  and  O_5 
REMARK    3  A    between atoms: O_5  and  C_6 
REMARK    4  A    between atoms: C_9  and  C_10 
REMARK       I    between atoms: C_10  and  N_11 
REMARK    5  A    between atoms: N_11  and  N_12 
REMARK       I    between atoms: N_12  and  C_13 
REMARK    6  A    between atoms: C_13  and  C_14 
ROOT
HETATM    1  C   UNL     1       8.081  21.949  52.965  1.00  0.00     0.001 A 
HETATM    2  C   UNL     1       7.522  23.212  53.166  1.00  0.00     0.011 A 
HETATM    3  C   UNL     1       7.699  23.899  54.381  1.00  0.00    -0.013 A 
HETATM    4  C   UNL     1       8.492  23.298  55.380  1.00  0.00     0.053 A 
HETATM    5  C   UNL     1       8.763  23.959  56.625  1.00  0.00     0.100 C 
HETATM    6  N   UNL     1       8.979  24.512  57.623  1.00  0.00    -0.191 NA
HETATM    7  C   UNL     1       9.048  22.026  55.170  1.00  0.00     0.023 A 
HETATM    8  C   UNL     1       8.840  21.353  53.967  1.00  0.00     0.002 A 
ENDROOT
BRANCH   3   9
HETATM    9  C   UNL     1       7.098  25.281  54.574  1.00  0.00     0.216 C 
BRANCH   9  10
HETATM   10  O   UNL     1       7.624  26.191  53.603  1.00  0.00    -0.347 OA
BRANCH  10  11
HETATM   11  C   UNL     1       6.704  26.804  52.797  1.00  0.00     0.069 A 
HETATM   12  C   UNL     1       6.241  28.110  52.951  1.00  0.00     0.038 A 
HETATM   13  C   UNL     1       5.269  28.613  52.079  1.00  0.00     0.020 A 
HETATM   14  C   UNL     1       4.762  27.822  51.039  1.00  0.00     0.033 A 
HETATM   15  C   UNL     1       5.247  26.520  50.872  1.00  0.00     0.020 A 
HETATM   16  C   UNL     1       6.221  26.022  51.745  1.00  0.00     0.038 A 
BRANCH  14  17
HETATM   17  C   UNL     1       3.687  28.397  50.182  1.00  0.00     0.270 C 
HETATM   18  N   UNL     1       3.439  27.773  48.978  1.00  0.00    -0.263 N 
HETATM   19  H   UNL     1       3.995  27.024  48.575  1.00  0.00     0.190 HD
HETATM   20  O   UNL     1       3.061  29.390  50.545  1.00  0.00    -0.266 OA
BRANCH  18  21
HETATM   21  N   UNL     1       2.418  28.289  48.175  1.00  0.00    -0.262 N 
HETATM   22  C   UNL     1       1.718  27.442  47.345  1.00  0.00     0.286 C 
HETATM   23  O   UNL     1       2.007  26.249  47.243  1.00  0.00    -0.264 OA
HETATM   24  H   UNL     1       2.198  29.273  48.298  1.00  0.00     0.190 HD
BRANCH  22  25
HETATM   25  C   UNL     1       0.629  28.047  46.612  1.00  0.00     0.102 A 
HETATM   26  N   UNL     1       0.270  29.364  46.816  1.00  0.00    -0.361 N 
HETATM   27  H   UNL     1       0.733  29.976  47.478  1.00  0.00     0.165 HD
HETATM   28  C   UNL     1      -0.779  29.704  46.006  1.00  0.00     0.088 A 
HETATM   29  C   UNL     1      -1.109  28.597  45.259  1.00  0.00     0.019 A 
HETATM   30  C   UNL     1      -0.227  27.555  45.638  1.00  0.00     0.036 A 
ENDBRANCH  22  25
ENDBRANCH  18  21
ENDBRANCH  14  17
ENDBRANCH  10  11
ENDBRANCH   9  10
ENDBRANCH   3   9
TORSDOF 6
ENDMDL
