MODEL 1
REMARK VINA RESULT:     -11.3      0.000      0.000
REMARK  8 active torsions:
REMARK  status: ('A' for Active; 'I' for Inactive)
REMARK    1  A    between atoms: C_7  and  C_8 
REMARK    2  A    between atoms: C_9  and  O_10 
REMARK    3  A    between atoms: C_12  and  N_13 
REMARK    4  A    between atoms: C_14  and  N_15 
REMARK       I    between atoms: N_15  and  C_16 
REMARK    5  A    between atoms: C_16  and  C_17 
REMARK    6  A    between atoms: C_19  and  O_20 
REMARK    7  A    between atoms: O_20  and  C_21 
REMARK    8  A    between atoms: C_21  and  C_22 
ROOT
HETATM    1  C   UNL     1       6.726  27.471  56.298  1.00  0.00     0.050 A 
HETATM    2  C   UNL     1       5.443  27.793  56.764  1.00  0.00     0.082 A 
HETATM    3  C   UNL     1       5.136  29.079  57.208  1.00  0.00     0.067 A 
HETATM    4  C   UNL     1       6.094  30.094  57.141  1.00  0.00     0.036 A 
HETATM    5  C   UNL     1       7.378  29.790  56.685  1.00  0.00     0.030 A 
HETATM    6  C   UNL     1       7.693  28.487  56.273  1.00  0.00     0.021 A 
ENDROOT
BRANCH   4   7
HETATM    7  N   UNL     1       5.717  31.367  57.610  1.00  0.00    -0.337 N 
HETATM    8  C   UNL     1       5.503  31.806  58.869  1.00  0.00     0.157 C 
HETATM    9  S   UNL     1       4.350  32.994  59.129  1.00  0.00    -0.047 SA
HETATM   10  H   UNL     1       5.380  31.997  56.890  1.00  0.00     0.168 HD
BRANCH   8  11
HETATM   11  N   UNL     1       6.248  31.410  59.937  1.00  0.00    -0.201 NA
HETATM   12  C   UNL     1       7.176  32.245  60.551  1.00  0.00     0.237 C 
HETATM   13  O   UNL     1       8.181  32.714  60.031  1.00  0.00    -0.274 OA
HETATM   14  H   UNL     1       5.608  30.970  60.583  1.00  0.00     0.139 HD
BRANCH  12  15
HETATM   15  C   UNL     1       6.927  32.553  61.988  1.00  0.00     0.029 A 
HETATM   16  C   UNL     1       5.639  32.709  62.524  1.00  0.00     0.053 A 
HETATM   17  C   UNL     1       5.488  33.069  63.865  1.00  0.00     0.069 A 
HETATM   18  C   UNL     1       6.618  33.232  64.671  1.00  0.00     0.037 A 
HETATM   19  C   UNL     1       7.898  33.047  64.150  1.00  0.00     0.004 A 
HETATM   20  C   UNL     1       8.052  32.709  62.809  1.00  0.00     0.017 A 
BRANCH  17  21
HETATM   21  O   UNL     1       4.304  33.289  64.511  1.00  0.00    -0.351 OA
BRANCH  21  22
HETATM   22  C   UNL     1       3.584  34.480  64.196  1.00  0.00     0.179 C 
BRANCH  22  23
HETATM   23  C   UNL     1       3.644  35.450  65.389  1.00  0.00     0.002 C 
HETATM   24  C   UNL     1       3.915  34.712  66.701  1.00  0.00     0.011 C 
HETATM   25  C   UNL     1       4.708  36.527  65.167  1.00  0.00     0.011 C 
ENDBRANCH  22  23
ENDBRANCH  21  22
ENDBRANCH  17  21
ENDBRANCH  12  15
ENDBRANCH   8  11
ENDBRANCH   4   7
BRANCH   2  26
HETATM   26  O   UNL     1       4.418  26.880  56.812  1.00  0.00    -0.360 OA
HETATM   27  H   UNL     1       4.289  26.612  57.747  1.00  0.00     0.217 HD
ENDBRANCH   2  26
BRANCH   1  28
HETATM   28  C   UNL     1       7.028  26.123  55.836  1.00  0.00     0.183 A 
HETATM   29  O   UNL     1       7.202  25.942  54.489  1.00  0.00    -0.288 OA
HETATM   30  C   UNL     1       7.481  24.610  54.368  1.00  0.00     0.112 A 
HETATM   31  C   UNL     1       7.449  24.059  55.639  1.00  0.00     0.094 A 
HETATM   32  C   UNL     1       7.745  23.903  53.195  1.00  0.00    -0.025 A 
HETATM   33  C   UNL     1       7.657  22.682  55.792  1.00  0.00     0.041 A 
HETATM   34  N   UNL     1       7.202  25.036  56.570  1.00  0.00    -0.221 NA
HETATM   35  C   UNL     1       7.895  21.908  54.644  1.00  0.00    -0.059 A 
HETATM   36  C   UNL     1       8.083  20.421  54.758  1.00  0.00     0.048 C 
HETATM   37  C   UNL     1       7.941  22.519  53.376  1.00  0.00     0.016 A 
HETATM   38  C   UNL     1       7.806  24.521  51.836  1.00  0.00     0.051 C 
ENDBRANCH   1  28
TORSDOF 8
ENDMDL
MODEL 2
REMARK VINA RESULT:     -11.0      1.170      1.906
REMARK  8 active torsions:
REMARK  status: ('A' for Active; 'I' for Inactive)
REMARK    1  A    between atoms: C_7  and  C_8 
REMARK    2  A    between atoms: C_9  and  O_10 
REMARK    3  A    between atoms: C_12  and  N_13 
REMARK    4  A    between atoms: C_14  and  N_15 
REMARK       I    between atoms: N_15  and  C_16 
REMARK    5  A    between atoms: C_16  and  C_17 
REMARK    6  A    between atoms: C_19  and  O_20 
REMARK    7  A    between atoms: O_20  and  C_21 
REMARK    8  A    between atoms: C_21  and  C_22 
ROOT
HETATM    1  C   UNL     1       7.021  26.940  55.685  1.00  0.00     0.050 A 
HETATM    2  C   UNL     1       5.724  27.470  55.636  1.00  0.00     0.082 A 
HETATM    3  C   UNL     1       5.457  28.771  56.059  1.00  0.00     0.067 A 
HETATM    4  C   UNL     1       6.498  29.599  56.488  1.00  0.00     0.036 A 
HETATM    5  C   UNL     1       7.795  29.087  56.548  1.00  0.00     0.030 A 
HETATM    6  C   UNL     1       8.053  27.765  56.156  1.00  0.00     0.021 A 
ENDROOT
BRANCH   4   7
HETATM    7  N   UNL     1       6.156  30.900  56.905  1.00  0.00    -0.337 N 
HETATM    8  C   UNL     1       5.985  31.403  58.146  1.00  0.00     0.157 C 
HETATM    9  S   UNL     1       4.860  32.623  58.379  1.00  0.00    -0.047 SA
HETATM   10  H   UNL     1       5.810  31.500  56.164  1.00  0.00     0.168 HD
BRANCH   8  11
HETATM   11  N   UNL     1       6.752  31.045  59.212  1.00  0.00    -0.201 NA
HETATM   12  C   UNL     1       7.604  31.939  59.852  1.00  0.00     0.237 C 
HETATM   13  O   UNL     1       8.571  32.500  59.351  1.00  0.00    -0.274 OA
HETATM   14  H   UNL     1       6.145  30.540  59.842  1.00  0.00     0.139 HD
BRANCH  12  15
HETATM   15  C   UNL     1       7.320  32.194  61.292  1.00  0.00     0.029 A 
HETATM   16  C   UNL     1       6.022  32.215  61.824  1.00  0.00     0.053 A 
HETATM   17  C   UNL     1       5.831  32.533  63.171  1.00  0.00     0.069 A 
HETATM   18  C   UNL     1       6.937  32.788  63.986  1.00  0.00     0.037 A 
HETATM   19  C   UNL     1       8.231  32.736  63.470  1.00  0.00     0.004 A 
HETATM   20  C   UNL     1       8.423  32.440  62.123  1.00  0.00     0.017 A 
BRANCH  17  21
HETATM   21  O   UNL     1       4.628  32.626  63.813  1.00  0.00    -0.351 OA
BRANCH  21  22
HETATM   22  C   UNL     1       4.525  33.536  64.907  1.00  0.00     0.179 C 
BRANCH  22  23
HETATM   23  C   UNL     1       3.494  34.628  64.574  1.00  0.00     0.002 C 
HETATM   24  C   UNL     1       4.173  35.939  64.177  1.00  0.00     0.011 C 
HETATM   25  C   UNL     1       2.550  34.170  63.460  1.00  0.00     0.011 C 
ENDBRANCH  22  23
ENDBRANCH  21  22
ENDBRANCH  17  21
ENDBRANCH  12  15
ENDBRANCH   8  11
ENDBRANCH   4   7
BRANCH   2  26
HETATM   26  O   UNL     1       4.646  26.755  55.173  1.00  0.00    -0.360 OA
HETATM   27  H   UNL     1       4.961  25.869  54.895  1.00  0.00     0.217 HD
ENDBRANCH   2  26
BRANCH   1  28
HETATM   28  C   UNL     1       7.282  25.579  55.236  1.00  0.00     0.183 A 
HETATM   29  O   UNL     1       7.586  24.646  56.193  1.00  0.00    -0.288 OA
HETATM   30  C   UNL     1       7.761  23.491  55.484  1.00  0.00     0.112 A 
HETATM   31  C   UNL     1       7.566  23.788  54.145  1.00  0.00     0.094 A 
HETATM   32  C   UNL     1       8.084  22.231  55.986  1.00  0.00    -0.025 A 
HETATM   33  C   UNL     1       7.734  22.778  53.189  1.00  0.00     0.041 A 
HETATM   34  N   UNL     1       7.221  25.109  54.001  1.00  0.00    -0.221 NA
HETATM   35  C   UNL     1       8.094  21.492  53.629  1.00  0.00    -0.059 A 
HETATM   36  C   UNL     1       8.325  20.389  52.635  1.00  0.00     0.048 C 
HETATM   37  C   UNL     1       8.256  21.235  55.004  1.00  0.00     0.016 A 
HETATM   38  C   UNL     1       8.259  21.922  57.438  1.00  0.00     0.051 C 
ENDBRANCH   1  28
TORSDOF 8
ENDMDL
MODEL 3
REMARK VINA RESULT:     -10.8      3.105      9.415
REMARK  8 active torsions:
REMARK  status: ('A' for Active; 'I' for Inactive)
REMARK    1  A    between atoms: C_7  and  C_8 
REMARK    2  A    between atoms: C_9  and  O_10 
REMARK    3  A    between atoms: C_12  and  N_13 
REMARK    4  A    between atoms: C_14  and  N_15 
REMARK       I    between atoms: N_15  and  C_16 
REMARK    5  A    between atoms: C_16  and  C_17 
REMARK    6  A    between atoms: C_19  and  O_20 
REMARK    7  A    between atoms: O_20  and  C_21 
REMARK    8  A    between atoms: C_21  and  C_22 
ROOT
HETATM    1  C   UNL     1       5.031  31.639  58.573  1.00  0.00     0.050 A 
HETATM    2  C   UNL     1       3.856  30.882  58.459  1.00  0.00     0.082 A 
HETATM    3  C   UNL     1       3.350  30.516  57.212  1.00  0.00     0.067 A 
HETATM    4  C   UNL     1       4.043  30.851  56.045  1.00  0.00     0.036 A 
HETATM    5  C   UNL     1       5.211  31.609  56.141  1.00  0.00     0.030 A 
HETATM    6  C   UNL     1       5.698  32.005  57.395  1.00  0.00     0.021 A 
ENDROOT
BRANCH   4   7
HETATM    7  N   UNL     1       3.471  30.453  54.821  1.00  0.00    -0.337 N 
HETATM    8  C   UNL     1       3.686  29.349  54.074  1.00  0.00     0.157 C 
HETATM    9  S   UNL     1       3.560  29.460  52.408  1.00  0.00    -0.047 SA
HETATM   10  H   UNL     1       2.960  31.186  54.340  1.00  0.00     0.168 HD
BRANCH   8  11
HETATM   11  N   UNL     1       3.902  28.115  54.607  1.00  0.00    -0.201 NA
HETATM   12  C   UNL     1       5.075  27.401  54.383  1.00  0.00     0.237 C 
HETATM   13  O   UNL     1       5.480  26.999  53.300  1.00  0.00    -0.274 OA
HETATM   14  H   UNL     1       3.642  28.176  55.581  1.00  0.00     0.139 HD
BRANCH  12  15
HETATM   15  C   UNL     1       5.877  27.069  55.594  1.00  0.00     0.029 A 
HETATM   16  C   UNL     1       6.530  28.041  56.368  1.00  0.00     0.053 A 
HETATM   17  C   UNL     1       7.324  27.646  57.448  1.00  0.00     0.069 A 
HETATM   18  C   UNL     1       7.429  26.290  57.771  1.00  0.00     0.037 A 
HETATM   19  C   UNL     1       6.756  25.324  57.024  1.00  0.00     0.004 A 
HETATM   20  C   UNL     1       5.982  25.713  55.936  1.00  0.00     0.017 A 
BRANCH  17  21
HETATM   21  O   UNL     1       8.043  28.473  58.263  1.00  0.00    -0.351 OA
BRANCH  21  22
HETATM   22  C   UNL     1       8.368  29.774  57.775  1.00  0.00     0.179 C 
BRANCH  22  23
HETATM   23  C   UNL     1       9.884  29.872  57.537  1.00  0.00     0.002 C 
HETATM   24  C   UNL     1      10.236  29.681  56.061  1.00  0.00     0.011 C 
HETATM   25  C   UNL     1      10.432  31.212  58.034  1.00  0.00     0.011 C 
ENDBRANCH  22  23
ENDBRANCH  21  22
ENDBRANCH  17  21
ENDBRANCH  12  15
ENDBRANCH   8  11
ENDBRANCH   4   7
BRANCH   2  26
HETATM   26  O   UNL     1       3.138  30.455  59.548  1.00  0.00    -0.360 OA
HETATM   27  H   UNL     1       3.396  31.002  60.320  1.00  0.00     0.217 HD
ENDBRANCH   2  26
BRANCH   1  28
HETATM   28  C   UNL     1       5.547  32.010  59.884  1.00  0.00     0.183 A 
HETATM   29  O   UNL     1       6.872  31.762  60.135  1.00  0.00    -0.288 OA
HETATM   30  C   UNL     1       7.058  32.220  61.409  1.00  0.00     0.112 A 
HETATM   31  C   UNL     1       5.842  32.706  61.861  1.00  0.00     0.094 A 
HETATM   32  C   UNL     1       8.240  32.208  62.148  1.00  0.00    -0.025 A 
HETATM   33  C   UNL     1       5.746  33.197  63.169  1.00  0.00     0.041 A 
HETATM   34  N   UNL     1       4.897  32.607  60.870  1.00  0.00    -0.221 NA
HETATM   35  C   UNL     1       6.895  33.180  63.978  1.00  0.00    -0.059 A 
HETATM   36  C   UNL     1       6.827  33.659  65.401  1.00  0.00     0.048 C 
HETATM   37  C   UNL     1       8.114  32.698  63.463  1.00  0.00     0.016 A 
HETATM   38  C   UNL     1       9.551  31.708  61.632  1.00  0.00     0.051 C 
ENDBRANCH   1  28
TORSDOF 8
ENDMDL
MODEL 4
REMARK VINA RESULT:     -10.2      3.547      5.358
REMARK  8 active torsions:
REMARK  status: ('A' for Active; 'I' for Inactive)
REMARK    1  A    between atoms: C_7  and  C_8 
REMARK    2  A    between atoms: C_9  and  O_10 
REMARK    3  A    between atoms: C_12  and  N_13 
REMARK    4  A    between atoms: C_14  and  N_15 
REMARK       I    between atoms: N_15  and  C_16 
REMARK    5  A    between atoms: C_16  and  C_17 
REMARK    6  A    between atoms: C_19  and  O_20 
REMARK    7  A    between atoms: O_20  and  C_21 
REMARK    8  A    between atoms: C_21  and  C_22 
ROOT
HETATM    1  C   UNL     1       6.091  26.600  53.498  1.00  0.00     0.050 A 
HETATM    2  C   UNL     1       4.716  26.769  53.286  1.00  0.00     0.082 A 
HETATM    3  C   UNL     1       4.156  28.038  53.139  1.00  0.00     0.067 A 
HETATM    4  C   UNL     1       4.973  29.172  53.143  1.00  0.00     0.036 A 
HETATM    5  C   UNL     1       6.344  29.023  53.359  1.00  0.00     0.030 A 
HETATM    6  C   UNL     1       6.898  27.747  53.542  1.00  0.00     0.021 A 
ENDROOT
BRANCH   4   7
HETATM    7  N   UNL     1       4.341  30.421  52.995  1.00  0.00    -0.337 N 
HETATM    8  C   UNL     1       3.800  31.242  53.920  1.00  0.00     0.157 C 
HETATM    9  S   UNL     1       2.475  32.177  53.499  1.00  0.00    -0.047 SA
HETATM   10  H   UNL     1       4.093  30.655  52.039  1.00  0.00     0.168 HD
BRANCH   8  11
HETATM   11  N   UNL     1       4.336  31.433  55.157  1.00  0.00    -0.201 NA
HETATM   12  C   UNL     1       4.055  30.592  56.229  1.00  0.00     0.237 C 
HETATM   13  O   UNL     1       2.955  30.413  56.737  1.00  0.00    -0.274 OA
HETATM   14  H   UNL     1       5.322  31.599  55.017  1.00  0.00     0.139 HD
BRANCH  12  15
HETATM   15  C   UNL     1       5.222  29.883  56.825  1.00  0.00     0.029 A 
HETATM   16  C   UNL     1       6.323  30.554  57.379  1.00  0.00     0.053 A 
HETATM   17  C   UNL     1       7.413  29.820  57.853  1.00  0.00     0.069 A 
HETATM   18  C   UNL     1       7.381  28.424  57.808  1.00  0.00     0.037 A 
HETATM   19  C   UNL     1       6.275  27.752  57.288  1.00  0.00     0.004 A 
HETATM   20  C   UNL     1       5.197  28.481  56.796  1.00  0.00     0.017 A 
BRANCH  17  21
HETATM   21  O   UNL     1       8.562  30.337  58.381  1.00  0.00    -0.351 OA
BRANCH  21  22
HETATM   22  C   UNL     1       8.684  30.376  59.802  1.00  0.00     0.179 C 
BRANCH  22  23
HETATM   23  C   UNL     1       8.820  31.836  60.268  1.00  0.00     0.002 C 
HETATM   24  C   UNL     1       7.456  32.464  60.555  1.00  0.00     0.011 C 
HETATM   25  C   UNL     1       9.711  31.935  61.509  1.00  0.00     0.011 C 
ENDBRANCH  22  23
ENDBRANCH  21  22
ENDBRANCH  17  21
ENDBRANCH  12  15
ENDBRANCH   8  11
ENDBRANCH   4   7
BRANCH   2  26
HETATM   26  O   UNL     1       3.841  25.713  53.206  1.00  0.00    -0.360 OA
HETATM   27  H   UNL     1       4.119  25.034  53.857  1.00  0.00     0.217 HD
ENDBRANCH   2  26
BRANCH   1  28
HETATM   28  C   UNL     1       6.659  25.267  53.647  1.00  0.00     0.183 A 
HETATM   29  O   UNL     1       7.164  24.928  54.875  1.00  0.00    -0.288 OA
HETATM   30  C   UNL     1       7.602  23.644  54.710  1.00  0.00     0.112 A 
HETATM   31  C   UNL     1       7.350  23.283  53.396  1.00  0.00     0.094 A 
HETATM   32  C   UNL     1       8.202  22.825  55.665  1.00  0.00    -0.025 A 
HETATM   33  C   UNL     1       7.749  22.017  52.947  1.00  0.00     0.041 A 
HETATM   34  N   UNL     1       6.713  24.305  52.739  1.00  0.00    -0.221 NA
HETATM   35  C   UNL     1       8.392  21.156  53.854  1.00  0.00    -0.059 A 
HETATM   36  C   UNL     1       8.874  19.806  53.405  1.00  0.00     0.048 C 
HETATM   37  C   UNL     1       8.603  21.562  55.186  1.00  0.00     0.016 A 
HETATM   38  C   UNL     1       8.436  23.223  57.087  1.00  0.00     0.051 C 
ENDBRANCH   1  28
TORSDOF 8
ENDMDL
MODEL 5
REMARK VINA RESULT:     -10.1      2.642     10.968
REMARK  8 active torsions:
REMARK  status: ('A' for Active; 'I' for Inactive)
REMARK    1  A    between atoms: C_7  and  C_8 
REMARK    2  A    between atoms: C_9  and  O_10 
REMARK    3  A    between atoms: C_12  and  N_13 
REMARK    4  A    between atoms: C_14  and  N_15 
REMARK       I    between atoms: N_15  and  C_16 
REMARK    5  A    between atoms: C_16  and  C_17 
REMARK    6  A    between atoms: C_19  and  O_20 
REMARK    7  A    between atoms: O_20  and  C_21 
REMARK    8  A    between atoms: C_21  and  C_22 
ROOT
HETATM    1  C   UNL     1       5.502  31.204  58.290  1.00  0.00     0.050 A 
HETATM    2  C   UNL     1       4.148  31.254  57.926  1.00  0.00     0.082 A 
HETATM    3  C   UNL     1       3.715  30.794  56.684  1.00  0.00     0.067 A 
HETATM    4  C   UNL     1       4.623  30.215  55.792  1.00  0.00     0.036 A 
HETATM    5  C   UNL     1       5.975  30.161  56.136  1.00  0.00     0.030 A 
HETATM    6  C   UNL     1       6.411  30.658  57.372  1.00  0.00     0.021 A 
ENDROOT
BRANCH   4   7
HETATM    7  N   UNL     1       4.117  29.775  54.554  1.00  0.00    -0.337 N 
HETATM    8  C   UNL     1       4.271  28.595  53.916  1.00  0.00     0.157 C 
HETATM    9  S   UNL     1       4.300  28.576  52.241  1.00  0.00    -0.047 SA
HETATM   10  H   UNL     1       3.733  30.513  53.972  1.00  0.00     0.168 HD
BRANCH   8  11
HETATM   11  N   UNL     1       4.303  27.395  54.558  1.00  0.00    -0.201 NA
HETATM   12  C   UNL     1       5.081  26.331  54.113  1.00  0.00     0.237 C 
HETATM   13  O   UNL     1       4.964  25.750  53.042  1.00  0.00    -0.274 OA
HETATM   14  H   UNL     1       4.419  27.601  55.540  1.00  0.00     0.139 HD
BRANCH  12  15
HETATM   15  C   UNL     1       6.123  25.844  55.060  1.00  0.00     0.029 A 
HETATM   16  C   UNL     1       6.850  24.662  54.854  1.00  0.00     0.053 A 
HETATM   17  C   UNL     1       7.759  24.231  55.825  1.00  0.00     0.069 A 
HETATM   18  C   UNL     1       7.965  25.002  56.972  1.00  0.00     0.037 A 
HETATM   19  C   UNL     1       7.268  26.194  57.165  1.00  0.00     0.004 A 
HETATM   20  C   UNL     1       6.347  26.614  56.210  1.00  0.00     0.017 A 
BRANCH  17  21
HETATM   21  O   UNL     1       8.506  23.089  55.776  1.00  0.00    -0.351 OA
BRANCH  21  22
HETATM   22  C   UNL     1       8.825  22.553  54.493  1.00  0.00     0.179 C 
BRANCH  22  23
HETATM   23  C   UNL     1       8.610  21.030  54.501  1.00  0.00     0.002 C 
HETATM   24  C   UNL     1       7.760  20.589  55.693  1.00  0.00     0.011 C 
HETATM   25  C   UNL     1       7.962  20.561  53.196  1.00  0.00     0.011 C 
ENDBRANCH  22  23
ENDBRANCH  21  22
ENDBRANCH  17  21
ENDBRANCH  12  15
ENDBRANCH   8  11
ENDBRANCH   4   7
BRANCH   2  26
HETATM   26  O   UNL     1       3.173  31.749  58.757  1.00  0.00    -0.360 OA
HETATM   27  H   UNL     1       3.437  32.652  59.037  1.00  0.00     0.217 HD
ENDBRANCH   2  26
BRANCH   1  28
HETATM   28  C   UNL     1       5.936  31.687  59.594  1.00  0.00     0.183 A 
HETATM   29  O   UNL     1       7.223  31.410  59.973  1.00  0.00    -0.288 OA
HETATM   30  C   UNL     1       7.336  31.990  61.205  1.00  0.00     0.112 A 
HETATM   31  C   UNL     1       6.116  32.572  61.507  1.00  0.00     0.094 A 
HETATM   32  C   UNL     1       8.457  32.004  62.035  1.00  0.00    -0.025 A 
HETATM   33  C   UNL     1       5.947  33.201  62.748  1.00  0.00     0.041 A 
HETATM   34  N   UNL     1       5.245  32.411  60.460  1.00  0.00    -0.221 NA
HETATM   35  C   UNL     1       7.030  33.218  63.644  1.00  0.00    -0.059 A 
HETATM   36  C   UNL     1       6.880  33.845  65.001  1.00  0.00     0.048 C 
HETATM   37  C   UNL     1       8.258  32.633  63.279  1.00  0.00     0.016 A 
HETATM   38  C   UNL     1       9.776  31.397  61.678  1.00  0.00     0.051 C 
ENDBRANCH   1  28
TORSDOF 8
ENDMDL
MODEL 6
REMARK VINA RESULT:     -10.0      2.735     11.404
REMARK  8 active torsions:
REMARK  status: ('A' for Active; 'I' for Inactive)
REMARK    1  A    between atoms: C_7  and  C_8 
REMARK    2  A    between atoms: C_9  and  O_10 
REMARK    3  A    between atoms: C_12  and  N_13 
REMARK    4  A    between atoms: C_14  and  N_15 
REMARK       I    between atoms: N_15  and  C_16 
REMARK    5  A    between atoms: C_16  and  C_17 
REMARK    6  A    between atoms: C_19  and  O_20 
REMARK    7  A    between atoms: O_20  and  C_21 
REMARK    8  A    between atoms: C_21  and  C_22 
ROOT
HETATM    1  C   UNL     1       4.891  31.992  58.768  1.00  0.00     0.050 A 
HETATM    2  C   UNL     1       3.812  31.109  58.624  1.00  0.00     0.082 A 
HETATM    3  C   UNL     1       3.295  30.796  57.368  1.00  0.00     0.067 A 
HETATM    4  C   UNL     1       3.885  31.318  56.214  1.00  0.00     0.036 A 
HETATM    5  C   UNL     1       4.957  32.203  56.338  1.00  0.00     0.030 A 
HETATM    6  C   UNL     1       5.452  32.543  57.606  1.00  0.00     0.021 A 
ENDROOT
BRANCH   4   7
HETATM    7  N   UNL     1       3.308  30.964  54.979  1.00  0.00    -0.337 N 
HETATM    8  C   UNL     1       3.885  30.530  53.837  1.00  0.00     0.157 C 
HETATM    9  S   UNL     1       3.188  30.941  52.370  1.00  0.00    -0.047 SA
HETATM   10  H   UNL     1       2.340  31.247  54.872  1.00  0.00     0.168 HD
BRANCH   8  11
HETATM   11  N   UNL     1       4.953  29.687  53.811  1.00  0.00    -0.201 NA
HETATM   12  C   UNL     1       4.906  28.407  54.354  1.00  0.00     0.237 C 
HETATM   13  O   UNL     1       4.722  28.129  55.533  1.00  0.00    -0.274 OA
HETATM   14  H   UNL     1       5.314  29.715  52.868  1.00  0.00     0.139 HD
BRANCH  12  15
HETATM   15  C   UNL     1       5.144  27.285  53.403  1.00  0.00     0.029 A 
HETATM   16  C   UNL     1       5.669  26.045  53.799  1.00  0.00     0.053 A 
HETATM   17  C   UNL     1       5.932  25.067  52.836  1.00  0.00     0.069 A 
HETATM   18  C   UNL     1       5.634  25.317  51.494  1.00  0.00     0.037 A 
HETATM   19  C   UNL     1       5.083  26.535  51.101  1.00  0.00     0.004 A 
HETATM   20  C   UNL     1       4.839  27.519  52.055  1.00  0.00     0.017 A 
BRANCH  17  21
HETATM   21  O   UNL     1       6.473  23.834  53.070  1.00  0.00    -0.351 OA
BRANCH  21  22
HETATM   22  C   UNL     1       7.449  23.718  54.104  1.00  0.00     0.179 C 
BRANCH  22  23
HETATM   23  C   UNL     1       8.490  22.656  53.715  1.00  0.00     0.002 C 
HETATM   24  C   UNL     1       9.264  22.152  54.934  1.00  0.00     0.011 C 
HETATM   25  C   UNL     1       7.830  21.478  52.993  1.00  0.00     0.011 C 
ENDBRANCH  22  23
ENDBRANCH  21  22
ENDBRANCH  17  21
ENDBRANCH  12  15
ENDBRANCH   8  11
ENDBRANCH   4   7
BRANCH   2  26
HETATM   26  O   UNL     1       3.204  30.499  59.694  1.00  0.00    -0.360 OA
HETATM   27  H   UNL     1       2.333  30.927  59.837  1.00  0.00     0.217 HD
ENDBRANCH   2  26
BRANCH   1  28
HETATM   28  C   UNL     1       5.421  32.306  60.088  1.00  0.00     0.183 A 
HETATM   29  O   UNL     1       6.729  31.980  60.337  1.00  0.00    -0.288 OA
HETATM   30  C   UNL     1       6.934  32.399  61.622  1.00  0.00     0.112 A 
HETATM   31  C   UNL     1       5.744  32.941  62.080  1.00  0.00     0.094 A 
HETATM   32  C   UNL     1       8.110  32.305  62.365  1.00  0.00    -0.025 A 
HETATM   33  C   UNL     1       5.669  33.408  63.399  1.00  0.00     0.041 A 
HETATM   34  N   UNL     1       4.800  32.916  61.085  1.00  0.00    -0.221 NA
HETATM   35  C   UNL     1       6.812  33.310  64.211  1.00  0.00    -0.059 A 
HETATM   36  C   UNL     1       6.765  33.760  65.644  1.00  0.00     0.048 C 
HETATM   37  C   UNL     1       8.005  32.772  63.690  1.00  0.00     0.016 A 
HETATM   38  C   UNL     1       9.394  31.745  61.842  1.00  0.00     0.051 C 
ENDBRANCH   1  28
TORSDOF 8
ENDMDL
MODEL 7
REMARK VINA RESULT:      -9.8      1.361      2.192
REMARK  8 active torsions:
REMARK  status: ('A' for Active; 'I' for Inactive)
REMARK    1  A    between atoms: C_7  and  C_8 
REMARK    2  A    between atoms: C_9  and  O_10 
REMARK    3  A    between atoms: C_12  and  N_13 
REMARK    4  A    between atoms: C_14  and  N_15 
REMARK       I    between atoms: N_15  and  C_16 
REMARK    5  A    between atoms: C_16  and  C_17 
REMARK    6  A    between atoms: C_19  and  O_20 
REMARK    7  A    between atoms: O_20  and  C_21 
REMARK    8  A    between atoms: C_21  and  C_22 
ROOT
HETATM    1  C   UNL     1       6.602  27.463  55.609  1.00  0.00     0.050 A 
HETATM    2  C   UNL     1       7.585  28.249  56.227  1.00  0.00     0.082 A 
HETATM    3  C   UNL     1       7.313  29.550  56.647  1.00  0.00     0.067 A 
HETATM    4  C   UNL     1       6.026  30.079  56.511  1.00  0.00     0.036 A 
HETATM    5  C   UNL     1       5.036  29.312  55.894  1.00  0.00     0.030 A 
HETATM    6  C   UNL     1       5.324  28.016  55.440  1.00  0.00     0.021 A 
ENDROOT
BRANCH   4   7
HETATM    7  N   UNL     1       5.823  31.400  56.953  1.00  0.00    -0.337 N 
HETATM    8  C   UNL     1       5.472  31.871  58.169  1.00  0.00     0.157 C 
HETATM    9  S   UNL     1       4.543  33.262  58.263  1.00  0.00    -0.047 SA
HETATM   10  H   UNL     1       5.751  32.085  56.208  1.00  0.00     0.168 HD
BRANCH   8  11
HETATM   11  N   UNL     1       5.919  31.334  59.337  1.00  0.00    -0.201 NA
HETATM   12  C   UNL     1       7.167  31.642  59.871  1.00  0.00     0.237 C 
HETATM   13  O   UNL     1       8.251  31.406  59.354  1.00  0.00    -0.274 OA
HETATM   14  H   UNL     1       5.161  31.422  59.999  1.00  0.00     0.139 HD
BRANCH  12  15
HETATM   15  C   UNL     1       7.161  32.281  61.217  1.00  0.00     0.029 A 
HETATM   16  C   UNL     1       6.294  33.329  61.561  1.00  0.00     0.053 A 
HETATM   17  C   UNL     1       6.398  33.927  62.820  1.00  0.00     0.069 A 
HETATM   18  C   UNL     1       7.336  33.449  63.739  1.00  0.00     0.037 A 
HETATM   19  C   UNL     1       8.177  32.386  63.412  1.00  0.00     0.004 A 
HETATM   20  C   UNL     1       8.090  31.803  62.152  1.00  0.00     0.017 A 
BRANCH  17  21
HETATM   21  O   UNL     1       5.650  34.975  63.278  1.00  0.00    -0.351 OA
BRANCH  21  22
HETATM   22  C   UNL     1       4.366  35.185  62.691  1.00  0.00     0.179 C 
BRANCH  22  23
HETATM   23  C   UNL     1       3.271  34.916  63.736  1.00  0.00     0.002 C 
HETATM   24  C   UNL     1       2.138  34.067  63.158  1.00  0.00     0.011 C 
HETATM   25  C   UNL     1       3.852  34.235  64.978  1.00  0.00     0.011 C 
ENDBRANCH  22  23
ENDBRANCH  21  22
ENDBRANCH  17  21
ENDBRANCH  12  15
ENDBRANCH   8  11
ENDBRANCH   4   7
BRANCH   2  26
HETATM   26  O   UNL     1       8.861  27.797  56.458  1.00  0.00    -0.360 OA
HETATM   27  H   UNL     1       9.463  28.239  55.822  1.00  0.00     0.217 HD
ENDBRANCH   2  26
BRANCH   1  28
HETATM   28  C   UNL     1       6.904  26.104  55.179  1.00  0.00     0.183 A 
HETATM   29  O   UNL     1       7.366  25.229  56.126  1.00  0.00    -0.288 OA
HETATM   30  C   UNL     1       7.542  24.061  55.440  1.00  0.00     0.112 A 
HETATM   31  C   UNL     1       7.189  24.294  54.120  1.00  0.00     0.094 A 
HETATM   32  C   UNL     1       7.997  22.843  55.944  1.00  0.00    -0.025 A 
HETATM   33  C   UNL     1       7.322  23.260  53.185  1.00  0.00     0.041 A 
HETATM   34  N   UNL     1       6.745  25.584  53.972  1.00  0.00    -0.221 NA
HETATM   35  C   UNL     1       7.810  22.017  53.624  1.00  0.00    -0.059 A 
HETATM   36  C   UNL     1       8.008  20.893  52.646  1.00  0.00     0.048 C 
HETATM   37  C   UNL     1       8.132  21.823  54.981  1.00  0.00     0.016 A 
HETATM   38  C   UNL     1       8.343  22.602  57.378  1.00  0.00     0.051 C 
ENDBRANCH   1  28
TORSDOF 8
ENDMDL
MODEL 8
REMARK VINA RESULT:      -9.8      3.514     11.756
REMARK  8 active torsions:
REMARK  status: ('A' for Active; 'I' for Inactive)
REMARK    1  A    between atoms: C_7  and  C_8 
REMARK    2  A    between atoms: C_9  and  O_10 
REMARK    3  A    between atoms: C_12  and  N_13 
REMARK    4  A    between atoms: C_14  and  N_15 
REMARK       I    between atoms: N_15  and  C_16 
REMARK    5  A    between atoms: C_16  and  C_17 
REMARK    6  A    between atoms: C_19  and  O_20 
REMARK    7  A    between atoms: O_20  and  C_21 
REMARK    8  A    between atoms: C_21  and  C_22 
ROOT
HETATM    1  C   UNL     1       4.903  32.055  58.639  1.00  0.00     0.050 A 
HETATM    2  C   UNL     1       3.866  31.124  58.485  1.00  0.00     0.082 A 
HETATM    3  C   UNL     1       3.331  30.838  57.229  1.00  0.00     0.067 A 
HETATM    4  C   UNL     1       3.864  31.437  56.084  1.00  0.00     0.036 A 
HETATM    5  C   UNL     1       4.893  32.371  56.220  1.00  0.00     0.030 A 
HETATM    6  C   UNL     1       5.404  32.682  57.489  1.00  0.00     0.021 A 
ENDROOT
BRANCH   4   7
HETATM    7  N   UNL     1       3.272  31.106  54.850  1.00  0.00    -0.337 N 
HETATM    8  C   UNL     1       3.825  30.617  53.720  1.00  0.00     0.157 C 
HETATM    9  S   UNL     1       3.169  31.053  52.241  1.00  0.00    -0.047 SA
HETATM   10  H   UNL     1       2.327  31.455  54.731  1.00  0.00     0.168 HD
BRANCH   8  11
HETATM   11  N   UNL     1       4.831  29.700  53.714  1.00  0.00    -0.201 NA
HETATM   12  C   UNL     1       4.672  28.414  54.220  1.00  0.00     0.237 C 
HETATM   13  O   UNL     1       4.419  28.121  55.382  1.00  0.00    -0.274 OA
HETATM   14  H   UNL     1       5.234  29.727  52.788  1.00  0.00     0.139 HD
BRANCH  12  15
HETATM   15  C   UNL     1       4.872  27.302  53.248  1.00  0.00     0.029 A 
HETATM   16  C   UNL     1       4.948  27.502  51.862  1.00  0.00     0.053 A 
HETATM   17  C   UNL     1       5.063  26.401  51.009  1.00  0.00     0.069 A 
HETATM   18  C   UNL     1       5.143  25.114  51.547  1.00  0.00     0.037 A 
HETATM   19  C   UNL     1       5.101  24.913  52.926  1.00  0.00     0.004 A 
HETATM   20  C   UNL     1       4.964  26.006  53.776  1.00  0.00     0.017 A 
BRANCH  17  21
HETATM   21  O   UNL     1       5.111  26.442  49.644  1.00  0.00    -0.351 OA
BRANCH  21  22
HETATM   22  C   UNL     1       3.904  26.192  48.926  1.00  0.00     0.179 C 
BRANCH  22  23
HETATM   23  C   UNL     1       3.965  26.886  47.556  1.00  0.00     0.002 C 
HETATM   24  C   UNL     1       2.657  27.611  47.234  1.00  0.00     0.011 C 
HETATM   25  C   UNL     1       5.136  27.869  47.490  1.00  0.00     0.011 C 
ENDBRANCH  22  23
ENDBRANCH  21  22
ENDBRANCH  17  21
ENDBRANCH  12  15
ENDBRANCH   8  11
ENDBRANCH   4   7
BRANCH   2  26
HETATM   26  O   UNL     1       3.318  30.440  59.542  1.00  0.00    -0.360 OA
HETATM   27  H   UNL     1       3.464  29.481  59.396  1.00  0.00     0.217 HD
ENDBRANCH   2  26
BRANCH   1  28
HETATM   28  C   UNL     1       5.452  32.340  59.959  1.00  0.00     0.183 A 
HETATM   29  O   UNL     1       6.761  32.004  60.184  1.00  0.00    -0.288 OA
HETATM   30  C   UNL     1       6.985  32.396  61.474  1.00  0.00     0.112 A 
HETATM   31  C   UNL     1       5.804  32.934  61.959  1.00  0.00     0.094 A 
HETATM   32  C   UNL     1       8.171  32.283  62.199  1.00  0.00    -0.025 A 
HETATM   33  C   UNL     1       5.749  33.374  63.287  1.00  0.00     0.041 A 
HETATM   34  N   UNL     1       4.847  32.932  60.976  1.00  0.00    -0.221 NA
HETATM   35  C   UNL     1       6.902  33.255  64.082  1.00  0.00    -0.059 A 
HETATM   36  C   UNL     1       6.875  33.676  65.524  1.00  0.00     0.048 C 
HETATM   37  C   UNL     1       8.086  32.724  63.534  1.00  0.00     0.016 A 
HETATM   38  C   UNL     1       9.445  31.729  61.647  1.00  0.00     0.051 C 
ENDBRANCH   1  28
TORSDOF 8
ENDMDL
MODEL 9
REMARK VINA RESULT:      -9.8      1.546      2.279
REMARK  8 active torsions:
REMARK  status: ('A' for Active; 'I' for Inactive)
REMARK    1  A    between atoms: C_7  and  C_8 
REMARK    2  A    between atoms: C_9  and  O_10 
REMARK    3  A    between atoms: C_12  and  N_13 
REMARK    4  A    between atoms: C_14  and  N_15 
REMARK       I    between atoms: N_15  and  C_16 
REMARK    5  A    between atoms: C_16  and  C_17 
REMARK    6  A    between atoms: C_19  and  O_20 
REMARK    7  A    between atoms: O_20  and  C_21 
REMARK    8  A    between atoms: C_21  and  C_22 
ROOT
HETATM    1  C   UNL     1       6.719  27.346  56.065  1.00  0.00     0.050 A 
HETATM    2  C   UNL     1       7.139  28.163  57.124  1.00  0.00     0.082 A 
HETATM    3  C   UNL     1       6.699  29.481  57.241  1.00  0.00     0.067 A 
HETATM    4  C   UNL     1       5.777  29.999  56.326  1.00  0.00     0.036 A 
HETATM    5  C   UNL     1       5.353  29.201  55.261  1.00  0.00     0.030 A 
HETATM    6  C   UNL     1       5.826  27.888  55.129  1.00  0.00     0.021 A 
ENDROOT
BRANCH   4   7
HETATM    7  N   UNL     1       5.380  31.338  56.501  1.00  0.00    -0.337 N 
HETATM    8  C   UNL     1       4.703  31.924  57.512  1.00  0.00     0.157 C 
HETATM    9  S   UNL     1       3.688  33.211  57.169  1.00  0.00    -0.047 SA
HETATM   10  H   UNL     1       5.452  31.909  55.666  1.00  0.00     0.168 HD
BRANCH   8  11
HETATM   11  N   UNL     1       4.876  31.592  58.821  1.00  0.00    -0.201 NA
HETATM   12  C   UNL     1       5.679  32.336  59.679  1.00  0.00     0.237 C 
HETATM   13  O   UNL     1       6.886  32.511  59.569  1.00  0.00    -0.274 OA
HETATM   14  H   UNL     1       3.955  31.400  59.189  1.00  0.00     0.139 HD
BRANCH  12  15
HETATM   15  C   UNL     1       4.993  32.935  60.859  1.00  0.00     0.029 A 
HETATM   16  C   UNL     1       5.267  32.549  62.179  1.00  0.00     0.053 A 
HETATM   17  C   UNL     1       4.531  33.104  63.229  1.00  0.00     0.069 A 
HETATM   18  C   UNL     1       3.556  34.069  62.957  1.00  0.00     0.037 A 
HETATM   19  C   UNL     1       3.304  34.479  61.649  1.00  0.00     0.004 A 
HETATM   20  C   UNL     1       4.021  33.912  60.600  1.00  0.00     0.017 A 
BRANCH  17  21
HETATM   21  O   UNL     1       4.662  32.798  64.554  1.00  0.00    -0.351 OA
BRANCH  21  22
HETATM   22  C   UNL     1       5.052  33.842  65.445  1.00  0.00     0.179 C 
BRANCH  22  23
HETATM   23  C   UNL     1       6.489  33.594  65.933  1.00  0.00     0.002 C 
HETATM   24  C   UNL     1       7.520  34.031  64.892  1.00  0.00     0.011 C 
HETATM   25  C   UNL     1       6.749  34.312  67.260  1.00  0.00     0.011 C 
ENDBRANCH  22  23
ENDBRANCH  21  22
ENDBRANCH  17  21
ENDBRANCH  12  15
ENDBRANCH   8  11
ENDBRANCH   4   7
BRANCH   2  26
HETATM   26  O   UNL     1       7.995  27.726  58.106  1.00  0.00    -0.360 OA
HETATM   27  H   UNL     1       8.523  28.493  58.415  1.00  0.00     0.217 HD
ENDBRANCH   2  26
BRANCH   1  28
HETATM   28  C   UNL     1       7.187  25.971  55.960  1.00  0.00     0.183 A 
HETATM   29  O   UNL     1       7.271  25.425  54.706  1.00  0.00    -0.288 OA
HETATM   30  C   UNL     1       7.742  24.161  54.926  1.00  0.00     0.112 A 
HETATM   31  C   UNL     1       7.905  24.008  56.294  1.00  0.00     0.094 A 
HETATM   32  C   UNL     1       8.011  23.180  53.973  1.00  0.00    -0.025 A 
HETATM   33  C   UNL     1       8.337  22.774  56.796  1.00  0.00     0.041 A 
HETATM   34  N   UNL     1       7.590  25.177  56.940  1.00  0.00    -0.221 NA
HETATM   35  C   UNL     1       8.593  21.733  55.887  1.00  0.00    -0.059 A 
HETATM   36  C   UNL     1       9.018  20.380  56.385  1.00  0.00     0.048 C 
HETATM   37  C   UNL     1       8.435  21.946  54.505  1.00  0.00     0.016 A 
HETATM   38  C   UNL     1       7.859  23.375  52.498  1.00  0.00     0.051 C 
ENDBRANCH   1  28
TORSDOF 8
ENDMDL
MODEL 10
REMARK VINA RESULT:      -9.7      2.235      3.410
REMARK  8 active torsions:
REMARK  status: ('A' for Active; 'I' for Inactive)
REMARK    1  A    between atoms: C_7  and  C_8 
REMARK    2  A    between atoms: C_9  and  O_10 
REMARK    3  A    between atoms: C_12  and  N_13 
REMARK    4  A    between atoms: C_14  and  N_15 
REMARK       I    between atoms: N_15  and  C_16 
REMARK    5  A    between atoms: C_16  and  C_17 
REMARK    6  A    between atoms: C_19  and  O_20 
REMARK    7  A    between atoms: O_20  and  C_21 
REMARK    8  A    between atoms: C_21  and  C_22 
ROOT
HETATM    1  C   UNL     1       6.024  27.022  54.580  1.00  0.00     0.050 A 
HETATM    2  C   UNL     1       4.798  27.405  54.019  1.00  0.00     0.082 A 
HETATM    3  C   UNL     1       4.298  28.696  54.183  1.00  0.00     0.067 A 
HETATM    4  C   UNL     1       5.047  29.659  54.867  1.00  0.00     0.036 A 
HETATM    5  C   UNL     1       6.268  29.293  55.436  1.00  0.00     0.030 A 
HETATM    6  C   UNL     1       6.749  27.983  55.299  1.00  0.00     0.021 A 
ENDROOT
BRANCH   4   7
HETATM    7  N   UNL     1       4.480  30.941  54.998  1.00  0.00    -0.337 N 
HETATM    8  C   UNL     1       3.857  31.517  56.048  1.00  0.00     0.157 C 
HETATM    9  S   UNL     1       2.626  32.616  55.758  1.00  0.00    -0.047 SA
HETATM   10  H   UNL     1       4.360  31.438  54.122  1.00  0.00     0.168 HD
BRANCH   8  11
HETATM   11  N   UNL     1       4.242  31.333  57.341  1.00  0.00    -0.201 NA
HETATM   12  C   UNL     1       5.351  31.970  57.887  1.00  0.00     0.237 C 
HETATM   13  O   UNL     1       6.514  31.832  57.527  1.00  0.00    -0.274 OA
HETATM   14  H   UNL     1       3.406  31.419  57.901  1.00  0.00     0.139 HD
BRANCH  12  15
HETATM   15  C   UNL     1       5.083  32.870  59.045  1.00  0.00     0.029 A 
HETATM   16  C   UNL     1       5.515  32.587  60.349  1.00  0.00     0.053 A 
HETATM   17  C   UNL     1       5.162  33.443  61.395  1.00  0.00     0.069 A 
HETATM   18  C   UNL     1       4.415  34.593  61.127  1.00  0.00     0.037 A 
HETATM   19  C   UNL     1       4.011  34.895  59.827  1.00  0.00     0.004 A 
HETATM   20  C   UNL     1       4.344  34.033  58.787  1.00  0.00     0.017 A 
BRANCH  17  21
HETATM   21  O   UNL     1       5.479  33.276  62.714  1.00  0.00    -0.351 OA
BRANCH  21  22
HETATM   22  C   UNL     1       6.045  32.028  63.111  1.00  0.00     0.179 C 
BRANCH  22  23
HETATM   23  C   UNL     1       7.465  32.256  63.657  1.00  0.00     0.002 C 
HETATM   24  C   UNL     1       8.504  32.271  62.535  1.00  0.00     0.011 C 
HETATM   25  C   UNL     1       7.543  33.558  64.457  1.00  0.00     0.011 C 
ENDBRANCH  22  23
ENDBRANCH  21  22
ENDBRANCH  17  21
ENDBRANCH  12  15
ENDBRANCH   8  11
ENDBRANCH   4   7
BRANCH   2  26
HETATM   26  O   UNL     1       4.018  26.549  53.280  1.00  0.00    -0.360 OA
HETATM   27  H   UNL     1       3.523  27.078  52.619  1.00  0.00     0.217 HD
ENDBRANCH   2  26
BRANCH   1  28
HETATM   28  C   UNL     1       6.532  25.669  54.396  1.00  0.00     0.183 A 
HETATM   29  O   UNL     1       7.073  25.044  55.489  1.00  0.00    -0.288 OA
HETATM   30  C   UNL     1       7.440  23.814  55.018  1.00  0.00     0.112 A 
HETATM   31  C   UNL     1       7.113  23.767  53.672  1.00  0.00     0.094 A 
HETATM   32  C   UNL     1       8.041  22.779  55.732  1.00  0.00    -0.025 A 
HETATM   33  C   UNL     1       7.429  22.621  52.932  1.00  0.00     0.041 A 
HETATM   34  N   UNL     1       6.498  24.935  53.296  1.00  0.00    -0.221 NA
HETATM   35  C   UNL     1       8.068  21.554  53.588  1.00  0.00    -0.059 A 
HETATM   36  C   UNL     1       8.463  20.322  52.823  1.00  0.00     0.048 C 
HETATM   37  C   UNL     1       8.357  21.642  54.963  1.00  0.00     0.016 A 
HETATM   38  C   UNL     1       8.357  22.837  57.192  1.00  0.00     0.051 C 
ENDBRANCH   1  28
TORSDOF 8
ENDMDL
