MODEL 1
REMARK VINA RESULT:      -9.0      0.000      0.000
REMARK  5 active torsions:
REMARK  status: ('A' for Active; 'I' for Inactive)
REMARK    1  A    between atoms: C_2  and  C_3 
REMARK    2  A    between atoms: C_3  and  C_4 
REMARK    3  A    between atoms: C_7  and  N_8 
REMARK       I    between atoms: N_8  and  C_9 
REMARK       I    between atoms: C_9  and  N_10 
REMARK    4  A    between atoms: N_10  and  N_11 
REMARK       I    between atoms: N_11  and  C_12 
REMARK    5  A    between atoms: C_12  and  C_13 
ROOT
HETATM    1  N   UNL     1       6.344  26.368  55.364  1.00  0.00    -0.337 N 
HETATM    2  C   UNL     1       6.789  26.921  56.542  1.00  0.00     0.335 C 
HETATM    3  N   UNL     1       6.987  26.019  57.551  1.00  0.00    -0.249 N 
HETATM    4  O   UNL     1       7.007  28.117  56.704  1.00  0.00    -0.246 OA
HETATM    5  H   UNL     1       5.791  25.535  55.511  1.00  0.00     0.164 HD
HETATM    6  H   UNL     1       7.323  26.368  58.448  1.00  0.00     0.192 HD
ENDROOT
BRANCH   3   7
HETATM    7  N   UNL     1       7.033  24.629  57.350  1.00  0.00    -0.262 N 
HETATM    8  C   UNL     1       8.297  24.084  57.154  1.00  0.00     0.272 C 
HETATM    9  O   UNL     1       9.320  24.739  57.345  1.00  0.00    -0.266 OA
HETATM   10  H   UNL     1       6.253  24.228  56.838  1.00  0.00     0.190 HD
BRANCH   8  11
HETATM   11  C   UNL     1       8.316  22.708  56.659  1.00  0.00     0.061 A 
HETATM   12  C   UNL     1       8.210  22.296  55.286  1.00  0.00     0.008 A 
HETATM   13  C   UNL     1       8.284  20.902  55.253  1.00  0.00     0.043 A 
HETATM   14  C   UNL     1       8.053  22.982  54.061  1.00  0.00     0.015 A 
HETATM   15  C   UNL     1       8.211  20.164  54.065  1.00  0.00     0.030 A 
HETATM   16  N   UNL     1       8.437  20.477  56.550  1.00  0.00    -0.364 N 
HETATM   17  C   UNL     1       8.053  20.872  52.870  1.00  0.00     0.002 A 
HETATM   18  C   UNL     1       7.974  22.261  52.864  1.00  0.00     0.001 A 
HETATM   19  H   UNL     1       8.530  19.507  56.823  1.00  0.00     0.165 HD
HETATM   20  C   UNL     1       8.455  21.549  57.405  1.00  0.00     0.106 A 
ENDBRANCH   8  11
ENDBRANCH   3   7
BRANCH   1  21
HETATM   21  C   UNL     1       5.973  27.236  54.250  1.00  0.00     0.086 C 
HETATM   22  C   UNL     1       7.101  27.317  53.215  1.00  0.00     0.026 C 
HETATM   23  C   UNL     1       7.197  26.077  52.326  1.00  0.00     0.006 C 
HETATM   24  C   UNL     1       5.863  25.720  51.653  1.00  0.00    -0.014 C 
HETATM   25  C   UNL     1       4.781  25.557  52.735  1.00  0.00     0.006 C 
HETATM   26  C   UNL     1       4.640  26.796  53.623  1.00  0.00     0.026 C 
BRANCH  24  27
HETATM   27  C   UNL     1       5.407  26.730  50.576  1.00  0.00     0.004 C 
BRANCH  27  28
HETATM   28  C   UNL     1       4.421  26.152  49.559  1.00  0.00    -0.004 C 
HETATM   29  C   UNL     1       4.714  26.669  48.157  1.00  0.00     0.005 C 
ENDBRANCH  27  28
ENDBRANCH  24  27
ENDBRANCH   1  21
TORSDOF 5
ENDMDL
MODEL 2
REMARK VINA RESULT:      -8.8      3.527      7.285
REMARK  5 active torsions:
REMARK  status: ('A' for Active; 'I' for Inactive)
REMARK    1  A    between atoms: C_2  and  C_3 
REMARK    2  A    between atoms: C_3  and  C_4 
REMARK    3  A    between atoms: C_7  and  N_8 
REMARK       I    between atoms: N_8  and  C_9 
REMARK       I    between atoms: C_9  and  N_10 
REMARK    4  A    between atoms: N_10  and  N_11 
REMARK       I    between atoms: N_11  and  C_12 
REMARK    5  A    between atoms: C_12  and  C_13 
ROOT
HETATM    1  N   UNL     1       5.859  27.124  54.054  1.00  0.00    -0.337 N 
HETATM    2  C   UNL     1       4.888  28.097  54.023  1.00  0.00     0.335 C 
HETATM    3  N   UNL     1       5.173  29.203  54.774  1.00  0.00    -0.249 N 
HETATM    4  O   UNL     1       3.848  28.012  53.380  1.00  0.00    -0.246 OA
HETATM    5  H   UNL     1       6.372  27.115  54.925  1.00  0.00     0.164 HD
HETATM    6  H   UNL     1       4.493  29.963  54.785  1.00  0.00     0.192 HD
ENDROOT
BRANCH   3   7
HETATM    7  N   UNL     1       6.449  29.482  55.292  1.00  0.00    -0.262 N 
HETATM    8  C   UNL     1       6.666  29.103  56.612  1.00  0.00     0.272 C 
HETATM    9  O   UNL     1       5.868  28.392  57.219  1.00  0.00    -0.266 OA
HETATM   10  H   UNL     1       6.887  30.336  54.960  1.00  0.00     0.190 HD
BRANCH   8  11
HETATM   11  C   UNL     1       7.873  29.651  57.230  1.00  0.00     0.061 A 
HETATM   12  C   UNL     1       7.921  30.622  58.289  1.00  0.00     0.008 A 
HETATM   13  C   UNL     1       9.264  30.858  58.589  1.00  0.00     0.043 A 
HETATM   14  C   UNL     1       6.942  31.329  59.022  1.00  0.00     0.015 A 
HETATM   15  C   UNL     1       9.675  31.759  59.579  1.00  0.00     0.030 A 
HETATM   16  N   UNL     1      10.009  30.060  57.755  1.00  0.00    -0.364 N 
HETATM   17  C   UNL     1       8.683  32.445  60.286  1.00  0.00     0.002 A 
HETATM   18  C   UNL     1       7.335  32.236  60.013  1.00  0.00     0.001 A 
HETATM   19  H   UNL     1      11.020  30.019  57.761  1.00  0.00     0.165 HD
HETATM   20  C   UNL     1       9.189  29.332  56.932  1.00  0.00     0.106 A 
ENDBRANCH   8  11
ENDBRANCH   3   7
BRANCH   1  21
HETATM   21  C   UNL     1       5.622  25.840  53.398  1.00  0.00     0.086 C 
HETATM   22  C   UNL     1       6.554  25.655  52.196  1.00  0.00     0.026 C 
HETATM   23  C   UNL     1       7.984  25.283  52.590  1.00  0.00     0.006 C 
HETATM   24  C   UNL     1       8.048  24.066  53.525  1.00  0.00    -0.014 C 
HETATM   25  C   UNL     1       7.173  24.333  54.762  1.00  0.00     0.006 C 
HETATM   26  C   UNL     1       5.726  24.678  54.400  1.00  0.00     0.026 C 
BRANCH  24  27
HETATM   27  C   UNL     1       7.649  22.732  52.854  1.00  0.00     0.004 C 
BRANCH  27  28
HETATM   28  C   UNL     1       7.883  21.500  53.731  1.00  0.00    -0.004 C 
HETATM   29  C   UNL     1       8.517  20.370  52.932  1.00  0.00     0.005 C 
ENDBRANCH  27  28
ENDBRANCH  24  27
ENDBRANCH   1  21
TORSDOF 5
ENDMDL
MODEL 3
REMARK VINA RESULT:      -8.6      3.199      6.788
REMARK  5 active torsions:
REMARK  status: ('A' for Active; 'I' for Inactive)
REMARK    1  A    between atoms: C_2  and  C_3 
REMARK    2  A    between atoms: C_3  and  C_4 
REMARK    3  A    between atoms: C_7  and  N_8 
REMARK       I    between atoms: N_8  and  C_9 
REMARK       I    between atoms: C_9  and  N_10 
REMARK    4  A    between atoms: N_10  and  N_11 
REMARK       I    between atoms: N_11  and  C_12 
REMARK    5  A    between atoms: C_12  and  C_13 
ROOT
HETATM    1  N   UNL     1       5.711  27.187  53.592  1.00  0.00    -0.337 N 
HETATM    2  C   UNL     1       4.919  28.228  53.169  1.00  0.00     0.335 C 
HETATM    3  N   UNL     1       5.044  29.370  53.910  1.00  0.00    -0.249 N 
HETATM    4  O   UNL     1       4.161  28.171  52.207  1.00  0.00    -0.246 OA
HETATM    5  H   UNL     1       5.889  27.214  54.586  1.00  0.00     0.164 HD
HETATM    6  H   UNL     1       4.486  30.180  53.641  1.00  0.00     0.192 HD
ENDROOT
BRANCH   3   7
HETATM    7  N   UNL     1       6.086  29.590  54.827  1.00  0.00    -0.262 N 
HETATM    8  C   UNL     1       5.742  29.502  56.171  1.00  0.00     0.272 C 
HETATM    9  O   UNL     1       4.652  29.063  56.532  1.00  0.00    -0.266 OA
HETATM   10  H   UNL     1       6.780  30.279  54.554  1.00  0.00     0.190 HD
BRANCH   8  11
HETATM   11  C   UNL     1       6.742  30.014  57.108  1.00  0.00     0.061 A 
HETATM   12  C   UNL     1       8.169  29.896  56.979  1.00  0.00     0.008 A 
HETATM   13  C   UNL     1       8.750  30.529  58.079  1.00  0.00     0.043 A 
HETATM   14  C   UNL     1       9.025  29.302  56.025  1.00  0.00     0.015 A 
HETATM   15  C   UNL     1      10.135  30.599  58.272  1.00  0.00     0.030 A 
HETATM   16  N   UNL     1       7.723  31.022  58.848  1.00  0.00    -0.364 N 
HETATM   17  C   UNL     1      10.956  30.000  57.312  1.00  0.00     0.002 A 
HETATM   18  C   UNL     1      10.412  29.359  56.203  1.00  0.00     0.001 A 
HETATM   19  H   UNL     1       7.855  31.541  59.706  1.00  0.00     0.165 HD
HETATM   20  C   UNL     1       6.513  30.718  58.280  1.00  0.00     0.106 A 
ENDBRANCH   8  11
ENDBRANCH   3   7
BRANCH   1  21
HETATM   21  C   UNL     1       5.579  25.873  52.966  1.00  0.00     0.086 C 
HETATM   22  C   UNL     1       6.673  25.652  51.914  1.00  0.00     0.026 C 
HETATM   23  C   UNL     1       8.036  25.318  52.520  1.00  0.00     0.006 C 
HETATM   24  C   UNL     1       7.979  24.142  53.506  1.00  0.00    -0.014 C 
HETATM   25  C   UNL     1       6.937  24.448  54.596  1.00  0.00     0.006 C 
HETATM   26  C   UNL     1       5.552  24.756  54.021  1.00  0.00     0.026 C 
BRANCH  24  27
HETATM   27  C   UNL     1       7.690  22.775  52.844  1.00  0.00     0.004 C 
BRANCH  27  28
HETATM   28  C   UNL     1       8.046  21.573  53.721  1.00  0.00    -0.004 C 
HETATM   29  C   UNL     1       8.364  20.350  52.871  1.00  0.00     0.005 C 
ENDBRANCH  27  28
ENDBRANCH  24  27
ENDBRANCH   1  21
TORSDOF 5
ENDMDL
MODEL 4
REMARK VINA RESULT:      -8.2      2.576      5.175
REMARK  5 active torsions:
REMARK  status: ('A' for Active; 'I' for Inactive)
REMARK    1  A    between atoms: C_2  and  C_3 
REMARK    2  A    between atoms: C_3  and  C_4 
REMARK    3  A    between atoms: C_7  and  N_8 
REMARK       I    between atoms: N_8  and  C_9 
REMARK       I    between atoms: C_9  and  N_10 
REMARK    4  A    between atoms: N_10  and  N_11 
REMARK       I    between atoms: N_11  and  C_12 
REMARK    5  A    between atoms: C_12  and  C_13 
ROOT
HETATM    1  N   UNL     1       5.820  26.725  54.820  1.00  0.00    -0.337 N 
HETATM    2  C   UNL     1       5.184  26.640  53.604  1.00  0.00     0.335 C 
HETATM    3  N   UNL     1       5.412  25.474  52.927  1.00  0.00    -0.249 N 
HETATM    4  O   UNL     1       4.461  27.515  53.141  1.00  0.00    -0.246 OA
HETATM    5  H   UNL     1       6.686  26.204  54.842  1.00  0.00     0.164 HD
HETATM    6  H   UNL     1       4.962  25.349  52.021  1.00  0.00     0.192 HD
ENDROOT
BRANCH   3   7
HETATM    7  N   UNL     1       5.984  24.334  53.517  1.00  0.00    -0.262 N 
HETATM    8  C   UNL     1       7.193  23.910  52.975  1.00  0.00     0.272 C 
HETATM    9  O   UNL     1       7.818  24.600  52.173  1.00  0.00    -0.266 OA
HETATM   10  H   UNL     1       5.332  23.628  53.844  1.00  0.00     0.190 HD
BRANCH   8  11
HETATM   11  C   UNL     1       7.630  22.577  53.386  1.00  0.00     0.061 A 
HETATM   12  C   UNL     1       7.927  22.155  54.728  1.00  0.00     0.008 A 
HETATM   13  C   UNL     1       8.295  20.809  54.679  1.00  0.00     0.043 A 
HETATM   14  C   UNL     1       7.921  22.797  55.986  1.00  0.00     0.015 A 
HETATM   15  C   UNL     1       8.654  20.077  55.818  1.00  0.00     0.030 A 
HETATM   16  N   UNL     1       8.221  20.419  53.364  1.00  0.00    -0.364 N 
HETATM   17  C   UNL     1       8.641  20.741  57.048  1.00  0.00     0.002 A 
HETATM   18  C   UNL     1       8.280  22.082  57.134  1.00  0.00     0.001 A 
HETATM   19  H   UNL     1       8.423  19.483  53.037  1.00  0.00     0.165 HD
HETATM   20  C   UNL     1       7.826  21.469  52.576  1.00  0.00     0.106 A 
ENDBRANCH   8  11
ENDBRANCH   3   7
BRANCH   1  21
HETATM   21  C   UNL     1       5.762  27.969  55.584  1.00  0.00     0.086 C 
HETATM   22  C   UNL     1       5.873  27.697  57.088  1.00  0.00     0.026 C 
HETATM   23  C   UNL     1       7.298  27.385  57.544  1.00  0.00     0.006 C 
HETATM   24  C   UNL     1       8.312  28.453  57.106  1.00  0.00    -0.014 C 
HETATM   25  C   UNL     1       8.233  28.627  55.579  1.00  0.00     0.006 C 
HETATM   26  C   UNL     1       6.822  28.970  55.094  1.00  0.00     0.026 C 
BRANCH  24  27
HETATM   27  C   UNL     1       8.144  29.815  57.818  1.00  0.00     0.004 C 
BRANCH  27  28
HETATM   28  C   UNL     1       9.408  30.307  58.525  1.00  0.00    -0.004 C 
HETATM   29  C   UNL     1      10.519  30.593  57.524  1.00  0.00     0.005 C 
ENDBRANCH  27  28
ENDBRANCH  24  27
ENDBRANCH   1  21
TORSDOF 5
ENDMDL
MODEL 5
REMARK VINA RESULT:      -8.2      2.930      7.565
REMARK  5 active torsions:
REMARK  status: ('A' for Active; 'I' for Inactive)
REMARK    1  A    between atoms: C_2  and  C_3 
REMARK    2  A    between atoms: C_3  and  C_4 
REMARK    3  A    between atoms: C_7  and  N_8 
REMARK       I    between atoms: N_8  and  C_9 
REMARK       I    between atoms: C_9  and  N_10 
REMARK    4  A    between atoms: N_10  and  N_11 
REMARK       I    between atoms: N_11  and  C_12 
REMARK    5  A    between atoms: C_12  and  C_13 
ROOT
HETATM    1  N   UNL     1       6.557  27.130  53.422  1.00  0.00    -0.337 N 
HETATM    2  C   UNL     1       6.388  28.308  54.111  1.00  0.00     0.335 C 
HETATM    3  N   UNL     1       5.401  29.115  53.618  1.00  0.00    -0.249 N 
HETATM    4  O   UNL     1       7.046  28.632  55.094  1.00  0.00    -0.246 OA
HETATM    5  H   UNL     1       6.315  27.214  52.445  1.00  0.00     0.164 HD
HETATM    6  H   UNL     1       5.223  30.000  54.091  1.00  0.00     0.192 HD
ENDROOT
BRANCH   3   7
HETATM    7  N   UNL     1       4.436  28.682  52.692  1.00  0.00    -0.262 N 
HETATM    8  C   UNL     1       4.691  28.989  51.360  1.00  0.00     0.272 C 
HETATM    9  O   UNL     1       5.780  29.427  50.994  1.00  0.00    -0.266 OA
HETATM   10  H   UNL     1       3.473  28.701  53.012  1.00  0.00     0.190 HD
BRANCH   8  11
HETATM   11  C   UNL     1       3.564  28.803  50.448  1.00  0.00     0.061 A 
HETATM   12  C   UNL     1       3.468  27.822  49.401  1.00  0.00     0.008 A 
HETATM   13  C   UNL     1       2.228  27.980  48.781  1.00  0.00     0.043 A 
HETATM   14  C   UNL     1       4.329  26.811  48.918  1.00  0.00     0.015 A 
HETATM   15  C   UNL     1       1.805  27.182  47.710  1.00  0.00     0.030 A 
HETATM   16  N   UNL     1       1.584  29.010  49.424  1.00  0.00    -0.364 N 
HETATM   17  C   UNL     1       2.680  26.192  47.253  1.00  0.00     0.002 A 
HETATM   18  C   UNL     1       3.925  26.007  47.846  1.00  0.00     0.001 A 
HETATM   19  H   UNL     1       0.656  29.335  49.189  1.00  0.00     0.165 HD
HETATM   20  C   UNL     1       2.374  29.515  50.425  1.00  0.00     0.106 A 
ENDBRANCH   8  11
ENDBRANCH   3   7
BRANCH   1  21
HETATM   21  C   UNL     1       7.662  26.239  53.768  1.00  0.00     0.086 C 
HETATM   22  C   UNL     1       7.230  25.207  54.816  1.00  0.00     0.026 C 
HETATM   23  C   UNL     1       6.386  24.072  54.236  1.00  0.00     0.006 C 
HETATM   24  C   UNL     1       7.054  23.385  53.035  1.00  0.00    -0.014 C 
HETATM   25  C   UNL     1       7.386  24.444  51.969  1.00  0.00     0.006 C 
HETATM   26  C   UNL     1       8.257  25.579  52.513  1.00  0.00     0.026 C 
BRANCH  24  27
HETATM   27  C   UNL     1       8.312  22.563  53.396  1.00  0.00     0.004 C 
BRANCH  27  28
HETATM   28  C   UNL     1       8.084  21.051  53.411  1.00  0.00    -0.004 C 
HETATM   29  C   UNL     1       7.934  20.533  54.835  1.00  0.00     0.005 C 
ENDBRANCH  27  28
ENDBRANCH  24  27
ENDBRANCH   1  21
TORSDOF 5
ENDMDL
MODEL 6
REMARK VINA RESULT:      -8.1      3.437      8.279
REMARK  5 active torsions:
REMARK  status: ('A' for Active; 'I' for Inactive)
REMARK    1  A    between atoms: C_2  and  C_3 
REMARK    2  A    between atoms: C_3  and  C_4 
REMARK    3  A    between atoms: C_7  and  N_8 
REMARK       I    between atoms: N_8  and  C_9 
REMARK       I    between atoms: C_9  and  N_10 
REMARK    4  A    between atoms: N_10  and  N_11 
REMARK       I    between atoms: N_11  and  C_12 
REMARK    5  A    between atoms: C_12  and  C_13 
ROOT
HETATM    1  N   UNL     1       6.353  26.673  52.606  1.00  0.00    -0.337 N 
HETATM    2  C   UNL     1       5.829  27.878  53.010  1.00  0.00     0.335 C 
HETATM    3  N   UNL     1       4.795  28.332  52.239  1.00  0.00    -0.249 N 
HETATM    4  O   UNL     1       6.228  28.513  53.980  1.00  0.00    -0.246 OA
HETATM    5  H   UNL     1       6.268  26.528  51.609  1.00  0.00     0.164 HD
HETATM    6  H   UNL     1       4.361  29.219  52.493  1.00  0.00     0.192 HD
ENDROOT
BRANCH   3   7
HETATM    7  N   UNL     1       4.113  27.532  51.307  1.00  0.00    -0.262 N 
HETATM    8  C   UNL     1       4.519  27.660  49.983  1.00  0.00     0.272 C 
HETATM    9  O   UNL     1       5.537  28.276  49.676  1.00  0.00    -0.266 OA
HETATM   10  H   UNL     1       3.128  27.374  51.493  1.00  0.00     0.190 HD
BRANCH   8  11
HETATM   11  C   UNL     1       3.626  27.059  48.993  1.00  0.00     0.061 A 
HETATM   12  C   UNL     1       2.551  27.719  48.303  1.00  0.00     0.008 A 
HETATM   13  C   UNL     1       1.964  26.790  47.443  1.00  0.00     0.043 A 
HETATM   14  C   UNL     1       2.019  29.027  48.334  1.00  0.00     0.015 A 
HETATM   15  C   UNL     1       0.878  27.101  46.615  1.00  0.00     0.030 A 
HETATM   16  N   UNL     1       2.653  25.611  47.592  1.00  0.00    -0.364 N 
HETATM   17  C   UNL     1       0.371  28.403  46.669  1.00  0.00     0.002 A 
HETATM   18  C   UNL     1       0.931  29.355  47.516  1.00  0.00     0.001 A 
HETATM   19  H   UNL     1       2.448  24.764  47.078  1.00  0.00     0.165 HD
HETATM   20  C   UNL     1       3.651  25.755  48.521  1.00  0.00     0.106 A 
ENDBRANCH   8  11
ENDBRANCH   3   7
BRANCH   1  21
HETATM   21  C   UNL     1       7.542  26.140  53.266  1.00  0.00     0.086 C 
HETATM   22  C   UNL     1       7.211  25.639  54.676  1.00  0.00     0.026 C 
HETATM   23  C   UNL     1       6.498  24.286  54.686  1.00  0.00     0.006 C 
HETATM   24  C   UNL     1       7.247  23.210  53.885  1.00  0.00    -0.014 C 
HETATM   25  C   UNL     1       7.476  23.718  52.451  1.00  0.00     0.006 C 
HETATM   26  C   UNL     1       8.216  25.057  52.407  1.00  0.00     0.026 C 
BRANCH  24  27
HETATM   27  C   UNL     1       8.582  22.762  54.523  1.00  0.00     0.004 C 
BRANCH  27  28
HETATM   28  C   UNL     1       8.426  22.121  55.903  1.00  0.00    -0.004 C 
HETATM   29  C   UNL     1       7.740  20.765  55.803  1.00  0.00     0.005 C 
ENDBRANCH  27  28
ENDBRANCH  24  27
ENDBRANCH   1  21
TORSDOF 5
ENDMDL
MODEL 7
REMARK VINA RESULT:      -8.0      2.860      7.409
REMARK  5 active torsions:
REMARK  status: ('A' for Active; 'I' for Inactive)
REMARK    1  A    between atoms: C_2  and  C_3 
REMARK    2  A    between atoms: C_3  and  C_4 
REMARK    3  A    between atoms: C_7  and  N_8 
REMARK       I    between atoms: N_8  and  C_9 
REMARK       I    between atoms: C_9  and  N_10 
REMARK    4  A    between atoms: N_10  and  N_11 
REMARK       I    between atoms: N_11  and  C_12 
REMARK    5  A    between atoms: C_12  and  C_13 
ROOT
HETATM    1  N   UNL     1       5.518  26.732  53.825  1.00  0.00    -0.337 N 
HETATM    2  C   UNL     1       5.185  27.703  54.738  1.00  0.00     0.335 C 
HETATM    3  N   UNL     1       5.423  28.982  54.317  1.00  0.00    -0.249 N 
HETATM    4  O   UNL     1       4.704  27.475  55.843  1.00  0.00    -0.246 OA
HETATM    5  H   UNL     1       6.284  27.009  53.226  1.00  0.00     0.164 HD
HETATM    6  H   UNL     1       5.189  29.747  54.949  1.00  0.00     0.192 HD
ENDROOT
BRANCH   3   7
HETATM    7  N   UNL     1       5.695  29.319  52.980  1.00  0.00    -0.262 N 
HETATM    8  C   UNL     1       4.601  29.710  52.216  1.00  0.00     0.272 C 
HETATM    9  O   UNL     1       3.506  29.941  52.725  1.00  0.00    -0.266 OA
HETATM   10  H   UNL     1       6.429  28.783  52.527  1.00  0.00     0.190 HD
BRANCH   8  11
HETATM   11  C   UNL     1       4.835  29.773  50.774  1.00  0.00     0.061 A 
HETATM   12  C   UNL     1       4.793  28.669  49.855  1.00  0.00     0.008 A 
HETATM   13  C   UNL     1       5.061  29.166  48.579  1.00  0.00     0.043 A 
HETATM   14  C   UNL     1       4.556  27.283  49.992  1.00  0.00     0.015 A 
HETATM   15  C   UNL     1       5.102  28.354  47.438  1.00  0.00     0.030 A 
HETATM   16  N   UNL     1       5.252  30.521  48.706  1.00  0.00    -0.364 N 
HETATM   17  C   UNL     1       4.865  26.987  47.606  1.00  0.00     0.002 A 
HETATM   18  C   UNL     1       4.596  26.455  48.864  1.00  0.00     0.001 A 
HETATM   19  H   UNL     1       5.452  31.142  47.934  1.00  0.00     0.165 HD
HETATM   20  C   UNL     1       5.122  30.900  50.018  1.00  0.00     0.106 A 
ENDBRANCH   8  11
ENDBRANCH   3   7
BRANCH   1  21
HETATM   21  C   UNL     1       5.432  25.322  54.200  1.00  0.00     0.086 C 
HETATM   22  C   UNL     1       5.709  24.414  52.996  1.00  0.00     0.026 C 
HETATM   23  C   UNL     1       7.192  24.315  52.640  1.00  0.00     0.006 C 
HETATM   24  C   UNL     1       8.068  23.917  53.838  1.00  0.00    -0.014 C 
HETATM   25  C   UNL     1       7.829  24.909  54.989  1.00  0.00     0.006 C 
HETATM   26  C   UNL     1       6.354  25.007  55.390  1.00  0.00     0.026 C 
BRANCH  24  27
HETATM   27  C   UNL     1       7.858  22.463  54.319  1.00  0.00     0.004 C 
BRANCH  27  28
HETATM   28  C   UNL     1       8.847  21.461  53.721  1.00  0.00    -0.004 C 
HETATM   29  C   UNL     1       8.129  20.428  52.863  1.00  0.00     0.005 C 
ENDBRANCH  27  28
ENDBRANCH  24  27
ENDBRANCH   1  21
TORSDOF 5
ENDMDL
MODEL 8
REMARK VINA RESULT:      -7.9      4.733      8.560
REMARK  5 active torsions:
REMARK  status: ('A' for Active; 'I' for Inactive)
REMARK    1  A    between atoms: C_2  and  C_3 
REMARK    2  A    between atoms: C_3  and  C_4 
REMARK    3  A    between atoms: C_7  and  N_8 
REMARK       I    between atoms: N_8  and  C_9 
REMARK       I    between atoms: C_9  and  N_10 
REMARK    4  A    between atoms: N_10  and  N_11 
REMARK       I    between atoms: N_11  and  C_12 
REMARK    5  A    between atoms: C_12  and  C_13 
ROOT
HETATM    1  N   UNL     1       5.109  27.785  56.778  1.00  0.00    -0.337 N 
HETATM    2  C   UNL     1       4.427  28.887  56.320  1.00  0.00     0.335 C 
HETATM    3  N   UNL     1       4.540  29.994  57.114  1.00  0.00    -0.249 N 
HETATM    4  O   UNL     1       3.769  28.909  55.285  1.00  0.00    -0.246 OA
HETATM    5  H   UNL     1       5.185  27.768  57.786  1.00  0.00     0.164 HD
HETATM    6  H   UNL     1       4.061  30.845  56.823  1.00  0.00     0.192 HD
ENDROOT
BRANCH   3   7
HETATM    7  N   UNL     1       5.494  30.118  58.139  1.00  0.00    -0.262 N 
HETATM    8  C   UNL     1       6.183  31.324  58.186  1.00  0.00     0.272 C 
HETATM    9  O   UNL     1       5.842  32.291  57.508  1.00  0.00    -0.266 OA
HETATM   10  H   UNL     1       5.995  29.270  58.385  1.00  0.00     0.190 HD
BRANCH   8  11
HETATM   11  C   UNL     1       7.361  31.339  59.053  1.00  0.00     0.061 A 
HETATM   12  C   UNL     1       7.403  31.764  60.426  1.00  0.00     0.008 A 
HETATM   13  C   UNL     1       8.713  31.606  60.880  1.00  0.00     0.043 A 
HETATM   14  C   UNL     1       6.443  32.275  61.327  1.00  0.00     0.015 A 
HETATM   15  C   UNL     1       9.110  31.930  62.184  1.00  0.00     0.030 A 
HETATM   16  N   UNL     1       9.445  31.099  59.833  1.00  0.00    -0.364 N 
HETATM   17  C   UNL     1       8.139  32.436  63.052  1.00  0.00     0.002 A 
HETATM   18  C   UNL     1       6.823  32.608  62.633  1.00  0.00     0.001 A 
HETATM   19  H   UNL     1      10.429  30.874  59.884  1.00  0.00     0.165 HD
HETATM   20  C   UNL     1       8.648  30.936  58.729  1.00  0.00     0.106 A 
ENDBRANCH   8  11
ENDBRANCH   3   7
BRANCH   1  21
HETATM   21  C   UNL     1       4.966  26.504  56.090  1.00  0.00     0.086 C 
HETATM   22  C   UNL     1       5.804  26.472  54.807  1.00  0.00     0.026 C 
HETATM   23  C   UNL     1       7.296  26.262  55.063  1.00  0.00     0.006 C 
HETATM   24  C   UNL     1       7.585  25.031  55.936  1.00  0.00    -0.014 C 
HETATM   25  C   UNL     1       6.798  25.151  57.252  1.00  0.00     0.006 C 
HETATM   26  C   UNL     1       5.294  25.331  57.029  1.00  0.00     0.026 C 
BRANCH  24  27
HETATM   27  C   UNL     1       7.287  23.682  55.243  1.00  0.00     0.004 C 
BRANCH  27  28
HETATM   28  C   UNL     1       8.411  22.653  55.377  1.00  0.00    -0.004 C 
HETATM   29  C   UNL     1       7.900  21.359  55.995  1.00  0.00     0.005 C 
ENDBRANCH  27  28
ENDBRANCH  24  27
ENDBRANCH   1  21
TORSDOF 5
ENDMDL
MODEL 9
REMARK VINA RESULT:      -7.8      5.696      9.222
REMARK  5 active torsions:
REMARK  status: ('A' for Active; 'I' for Inactive)
REMARK    1  A    between atoms: C_2  and  C_3 
REMARK    2  A    between atoms: C_3  and  C_4 
REMARK    3  A    between atoms: C_7  and  N_8 
REMARK       I    between atoms: N_8  and  C_9 
REMARK       I    between atoms: C_9  and  N_10 
REMARK    4  A    between atoms: N_10  and  N_11 
REMARK       I    between atoms: N_11  and  C_12 
REMARK    5  A    between atoms: C_12  and  C_13 
ROOT
HETATM    1  N   UNL     1       8.056  28.691  57.239  1.00  0.00    -0.337 N 
HETATM    2  C   UNL     1       9.237  29.377  57.395  1.00  0.00     0.335 C 
HETATM    3  N   UNL     1       9.104  30.610  57.971  1.00  0.00    -0.249 N 
HETATM    4  O   UNL     1      10.336  28.944  57.062  1.00  0.00    -0.246 OA
HETATM    5  H   UNL     1       7.264  29.305  57.111  1.00  0.00     0.164 HD
HETATM    6  H   UNL     1       9.946  31.164  58.119  1.00  0.00     0.192 HD
ENDROOT
BRANCH   3   7
HETATM    7  N   UNL     1       7.936  31.036  58.626  1.00  0.00    -0.262 N 
HETATM    8  C   UNL     1       8.087  32.103  59.505  1.00  0.00     0.272 C 
HETATM    9  O   UNL     1       9.125  32.759  59.553  1.00  0.00    -0.266 OA
HETATM   10  H   UNL     1       7.269  30.309  58.866  1.00  0.00     0.190 HD
BRANCH   8  11
HETATM   11  C   UNL     1       6.950  32.349  60.392  1.00  0.00     0.061 A 
HETATM   12  C   UNL     1       7.013  32.605  61.806  1.00  0.00     0.008 A 
HETATM   13  C   UNL     1       5.708  32.796  62.262  1.00  0.00     0.043 A 
HETATM   14  C   UNL     1       8.065  32.689  62.745  1.00  0.00     0.015 A 
HETATM   15  C   UNL     1       5.403  33.067  63.602  1.00  0.00     0.030 A 
HETATM   16  N   UNL     1       4.878  32.670  61.174  1.00  0.00    -0.364 N 
HETATM   17  C   UNL     1       6.465  33.141  64.508  1.00  0.00     0.002 A 
HETATM   18  C   UNL     1       7.779  32.955  64.089  1.00  0.00     0.001 A 
HETATM   19  H   UNL     1       3.873  32.773  61.212  1.00  0.00     0.165 HD
HETATM   20  C   UNL     1       5.609  32.399  60.046  1.00  0.00     0.106 A 
ENDBRANCH   8  11
ENDBRANCH   3   7
BRANCH   1  21
HETATM   21  C   UNL     1       8.045  27.418  56.521  1.00  0.00     0.086 C 
HETATM   22  C   UNL     1       7.139  26.399  57.222  1.00  0.00     0.026 C 
HETATM   23  C   UNL     1       5.650  26.644  56.978  1.00  0.00     0.006 C 
HETATM   24  C   UNL     1       5.299  26.754  55.486  1.00  0.00    -0.014 C 
HETATM   25  C   UNL     1       6.165  27.852  54.844  1.00  0.00     0.006 C 
HETATM   26  C   UNL     1       7.665  27.617  55.045  1.00  0.00     0.026 C 
BRANCH  24  27
HETATM   27  C   UNL     1       5.436  25.427  54.706  1.00  0.00     0.004 C 
BRANCH  27  28
HETATM   28  C   UNL     1       5.097  25.543  53.218  1.00  0.00    -0.004 C 
HETATM   29  C   UNL     1       6.238  25.025  52.354  1.00  0.00     0.005 C 
ENDBRANCH  27  28
ENDBRANCH  24  27
ENDBRANCH   1  21
TORSDOF 5
ENDMDL
MODEL 10
REMARK VINA RESULT:      -7.8      4.500      8.497
REMARK  5 active torsions:
REMARK  status: ('A' for Active; 'I' for Inactive)
REMARK    1  A    between atoms: C_2  and  C_3 
REMARK    2  A    between atoms: C_3  and  C_4 
REMARK    3  A    between atoms: C_7  and  N_8 
REMARK       I    between atoms: N_8  and  C_9 
REMARK       I    between atoms: C_9  and  N_10 
REMARK    4  A    between atoms: N_10  and  N_11 
REMARK       I    between atoms: N_11  and  C_12 
REMARK    5  A    between atoms: C_12  and  C_13 
ROOT
HETATM    1  N   UNL     1       5.480  28.276  56.480  1.00  0.00    -0.337 N 
HETATM    2  C   UNL     1       4.270  28.751  56.033  1.00  0.00     0.335 C 
HETATM    3  N   UNL     1       3.598  29.527  56.936  1.00  0.00    -0.249 N 
HETATM    4  O   UNL     1       3.807  28.523  54.920  1.00  0.00    -0.246 OA
HETATM    5  H   UNL     1       5.499  28.143  57.481  1.00  0.00     0.164 HD
HETATM    6  H   UNL     1       2.697  29.915  56.660  1.00  0.00     0.192 HD
ENDROOT
BRANCH   3   7
HETATM    7  N   UNL     1       4.191  30.055  58.097  1.00  0.00    -0.262 N 
HETATM    8  C   UNL     1       4.393  31.431  58.104  1.00  0.00     0.272 C 
HETATM    9  O   UNL     1       3.903  32.161  57.245  1.00  0.00    -0.266 OA
HETATM   10  H   UNL     1       4.884  29.467  58.549  1.00  0.00     0.190 HD
BRANCH   8  11
HETATM   11  C   UNL     1       5.264  31.930  59.168  1.00  0.00     0.061 A 
HETATM   12  C   UNL     1       6.688  31.756  59.254  1.00  0.00     0.008 A 
HETATM   13  C   UNL     1       7.125  32.396  60.415  1.00  0.00     0.043 A 
HETATM   14  C   UNL     1       7.650  31.106  58.451  1.00  0.00     0.015 A 
HETATM   15  C   UNL     1       8.469  32.420  60.810  1.00  0.00     0.030 A 
HETATM   16  N   UNL     1       6.018  32.947  61.013  1.00  0.00    -0.364 N 
HETATM   17  C   UNL     1       9.398  31.766  59.995  1.00  0.00     0.002 A 
HETATM   18  C   UNL     1       8.997  31.116  58.831  1.00  0.00     0.001 A 
HETATM   19  H   UNL     1       6.043  33.483  61.870  1.00  0.00     0.165 HD
HETATM   20  C   UNL     1       4.893  32.673  60.278  1.00  0.00     0.106 A 
ENDBRANCH   8  11
ENDBRANCH   3   7
BRANCH   1  21
HETATM   21  C   UNL     1       6.236  27.332  55.660  1.00  0.00     0.086 C 
HETATM   22  C   UNL     1       7.745  27.499  55.879  1.00  0.00     0.026 C 
HETATM   23  C   UNL     1       8.238  26.886  57.189  1.00  0.00     0.006 C 
HETATM   24  C   UNL     1       7.821  25.416  57.355  1.00  0.00    -0.014 C 
HETATM   25  C   UNL     1       6.292  25.309  57.221  1.00  0.00     0.006 C 
HETATM   26  C   UNL     1       5.770  25.888  55.904  1.00  0.00     0.026 C 
BRANCH  24  27
HETATM   27  C   UNL     1       8.522  24.446  56.377  1.00  0.00     0.004 C 
BRANCH  27  28
HETATM   28  C   UNL     1       8.067  22.992  56.512  1.00  0.00    -0.004 C 
HETATM   29  C   UNL     1       7.678  22.412  55.159  1.00  0.00     0.005 C 
ENDBRANCH  27  28
ENDBRANCH  24  27
ENDBRANCH   1  21
TORSDOF 5
ENDMDL
