MODEL 1
REMARK VINA RESULT:      -9.7      0.000      0.000
REMARK  3 active torsions:
REMARK  status: ('A' for Active; 'I' for Inactive)
REMARK    1  A    between atoms: C_2  and  O_3 
REMARK    2  A    between atoms: O_3  and  C_4 
REMARK    3  A    between atoms: C_7  and  N_8 
REMARK       I    between atoms: N_8  and  C_9 
REMARK       I    between atoms: C_9  and  N_10 
ROOT
HETATM    1  N   UNL     1       5.653  26.098  50.488  1.00  0.00    -0.309 N 
HETATM    2  C   UNL     1       5.289  27.417  50.351  1.00  0.00     0.323 C 
HETATM    3  N   UNL     1       4.817  27.781  49.095  1.00  0.00    -0.328 N 
HETATM    4  C   UNL     1       4.236  29.128  48.965  1.00  0.00     0.185 C 
HETATM    5  C   UNL     1       2.957  29.000  48.205  1.00  0.00     0.035 A 
HETATM    6  C   UNL     1       2.521  27.899  47.492  1.00  0.00    -0.020 A 
HETATM    7  C   UNL     1       3.335  26.651  47.428  1.00  0.00     0.061 C 
HETATM    8  C   UNL     1       4.785  26.966  47.858  1.00  0.00     0.132 C 
HETATM    9  N   UNL     1       2.005  29.974  48.106  1.00  0.00    -0.357 N 
HETATM   10  H   UNL     1       2.047  30.887  48.539  1.00  0.00     0.166 HD
HETATM   11  C   UNL     1       0.953  29.524  47.335  1.00  0.00     0.043 A 
HETATM   12  C   UNL     1       1.252  28.217  46.938  1.00  0.00    -0.001 A 
HETATM   13  C   UNL     1      -0.234  30.168  46.970  1.00  0.00     0.030 A 
HETATM   14  C   UNL     1      -1.142  29.457  46.179  1.00  0.00     0.002 A 
HETATM   15  C   UNL     1      -0.871  28.152  45.771  1.00  0.00     0.001 A 
HETATM   16  C   UNL     1       0.321  27.521  46.143  1.00  0.00     0.014 A 
HETATM   17  O   UNL     1       5.350  28.244  51.259  1.00  0.00    -0.247 OA
HETATM   18  H   UNL     1       5.567  25.510  49.682  1.00  0.00     0.170 HD
ENDROOT
BRANCH   1  19
HETATM   19  C   UNL     1       6.079  25.431  51.659  1.00  0.00     0.036 A 
HETATM   20  C   UNL     1       5.231  25.041  52.697  1.00  0.00     0.032 A 
HETATM   21  C   UNL     1       5.733  24.340  53.799  1.00  0.00     0.039 A 
HETATM   22  C   UNL     1       7.083  24.013  53.862  1.00  0.00     0.070 A 
HETATM   23  C   UNL     1       7.951  24.440  52.864  1.00  0.00     0.039 A 
HETATM   24  C   UNL     1       7.447  25.134  51.759  1.00  0.00     0.032 A 
BRANCH  22  25
HETATM   25  O   UNL     1       7.528  23.344  54.960  1.00  0.00    -0.341 OA
BRANCH  25  26
HETATM   26  C   UNL     1       8.115  22.039  54.757  1.00  0.00     0.057 C 
HETATM   27  C   UNL     1       9.634  22.173  54.926  1.00  0.00     0.045 C 
HETATM   28  C   UNL     1       7.788  21.332  53.428  1.00  0.00     0.045 C 
HETATM   29  C   UNL     1       7.566  21.175  55.903  1.00  0.00     0.045 C 
ENDBRANCH  25  26
ENDBRANCH  22  25
ENDBRANCH   1  19
TORSDOF 3
ENDMDL
MODEL 2
REMARK VINA RESULT:      -9.7      8.214     11.287
REMARK  3 active torsions:
REMARK  status: ('A' for Active; 'I' for Inactive)
REMARK    1  A    between atoms: C_2  and  O_3 
REMARK    2  A    between atoms: O_3  and  C_4 
REMARK    3  A    between atoms: C_7  and  N_8 
REMARK       I    between atoms: N_8  and  C_9 
REMARK       I    between atoms: C_9  and  N_10 
ROOT
HETATM    1  N   UNL     1       7.048  28.660  56.899  1.00  0.00    -0.309 N 
HETATM    2  C   UNL     1       8.110  29.200  57.588  1.00  0.00     0.323 C 
HETATM    3  N   UNL     1       7.891  30.458  58.137  1.00  0.00    -0.328 N 
HETATM    4  C   UNL     1       8.927  30.980  59.043  1.00  0.00     0.185 C 
HETATM    5  C   UNL     1       8.242  31.535  60.247  1.00  0.00     0.035 A 
HETATM    6  C   UNL     1       6.892  31.795  60.389  1.00  0.00    -0.020 A 
HETATM    7  C   UNL     1       5.933  31.508  59.284  1.00  0.00     0.061 C 
HETATM    8  C   UNL     1       6.713  31.340  57.962  1.00  0.00     0.132 C 
HETATM    9  N   UNL     1       8.864  31.871  61.417  1.00  0.00    -0.357 N 
HETATM   10  H   UNL     1       9.852  31.775  61.608  1.00  0.00     0.166 HD
HETATM   11  C   UNL     1       7.937  32.348  62.319  1.00  0.00     0.043 A 
HETATM   12  C   UNL     1       6.685  32.307  61.697  1.00  0.00    -0.001 A 
HETATM   13  C   UNL     1       8.111  32.800  63.632  1.00  0.00     0.030 A 
HETATM   14  C   UNL     1       6.974  33.222  64.330  1.00  0.00     0.002 A 
HETATM   15  C   UNL     1       5.714  33.190  63.736  1.00  0.00     0.001 A 
HETATM   16  C   UNL     1       5.556  32.735  62.421  1.00  0.00     0.014 A 
HETATM   17  O   UNL     1       9.191  28.632  57.738  1.00  0.00    -0.247 OA
HETATM   18  H   UNL     1       6.215  29.211  56.833  1.00  0.00     0.170 HD
ENDROOT
BRANCH   1  19
HETATM   19  C   UNL     1       6.953  27.376  56.316  1.00  0.00     0.036 A 
HETATM   20  C   UNL     1       7.215  27.099  54.974  1.00  0.00     0.032 A 
HETATM   21  C   UNL     1       7.143  25.787  54.492  1.00  0.00     0.039 A 
HETATM   22  C   UNL     1       6.823  24.744  55.355  1.00  0.00     0.070 A 
HETATM   23  C   UNL     1       6.507  25.009  56.682  1.00  0.00     0.039 A 
HETATM   24  C   UNL     1       6.587  26.319  57.163  1.00  0.00     0.032 A 
BRANCH  22  25
HETATM   25  O   UNL     1       6.751  23.487  54.838  1.00  0.00    -0.341 OA
BRANCH  25  26
HETATM   26  C   UNL     1       7.949  22.678  54.874  1.00  0.00     0.057 C 
HETATM   27  C   UNL     1       7.591  21.332  55.513  1.00  0.00     0.045 C 
HETATM   28  C   UNL     1       9.176  23.290  55.575  1.00  0.00     0.045 C 
HETATM   29  C   UNL     1       8.311  22.443  53.399  1.00  0.00     0.045 C 
ENDBRANCH  25  26
ENDBRANCH  22  25
ENDBRANCH   1  19
TORSDOF 3
ENDMDL
MODEL 3
REMARK VINA RESULT:      -9.4      9.452     12.379
REMARK  3 active torsions:
REMARK  status: ('A' for Active; 'I' for Inactive)
REMARK    1  A    between atoms: C_2  and  O_3 
REMARK    2  A    between atoms: O_3  and  C_4 
REMARK    3  A    between atoms: C_7  and  N_8 
REMARK       I    between atoms: N_8  and  C_9 
REMARK       I    between atoms: C_9  and  N_10 
ROOT
HETATM    1  N   UNL     1       6.635  29.772  58.096  1.00  0.00    -0.309 N 
HETATM    2  C   UNL     1       7.651  30.247  58.893  1.00  0.00     0.323 C 
HETATM    3  N   UNL     1       7.409  31.472  59.505  1.00  0.00    -0.328 N 
HETATM    4  C   UNL     1       8.384  31.917  60.515  1.00  0.00     0.185 C 
HETATM    5  C   UNL     1       7.620  32.408  61.700  1.00  0.00     0.035 A 
HETATM    6  C   UNL     1       6.267  32.682  61.760  1.00  0.00    -0.020 A 
HETATM    7  C   UNL     1       5.388  32.483  60.573  1.00  0.00     0.061 C 
HETATM    8  C   UNL     1       6.260  32.385  59.302  1.00  0.00     0.132 C 
HETATM    9  N   UNL     1       8.159  32.657  62.930  1.00  0.00    -0.357 N 
HETATM   10  H   UNL     1       9.130  32.531  63.186  1.00  0.00     0.166 HD
HETATM   11  C   UNL     1       7.175  33.093  63.793  1.00  0.00     0.043 A 
HETATM   12  C   UNL     1       5.972  33.114  63.081  1.00  0.00    -0.001 A 
HETATM   13  C   UNL     1       7.259  33.459  65.141  1.00  0.00     0.030 A 
HETATM   14  C   UNL     1       6.081  33.856  65.781  1.00  0.00     0.002 A 
HETATM   15  C   UNL     1       4.867  33.884  65.097  1.00  0.00     0.001 A 
HETATM   16  C   UNL     1       4.799  33.517  63.748  1.00  0.00     0.014 A 
HETATM   17  O   UNL     1       8.710  29.651  59.084  1.00  0.00    -0.247 OA
HETATM   18  H   UNL     1       5.816  30.341  58.007  1.00  0.00     0.170 HD
ENDROOT
BRANCH   1  19
HETATM   19  C   UNL     1       6.565  28.529  57.427  1.00  0.00     0.036 A 
HETATM   20  C   UNL     1       7.532  27.528  57.521  1.00  0.00     0.032 A 
HETATM   21  C   UNL     1       7.357  26.307  56.861  1.00  0.00     0.039 A 
HETATM   22  C   UNL     1       6.206  26.075  56.116  1.00  0.00     0.070 A 
HETATM   23  C   UNL     1       5.258  27.080  55.967  1.00  0.00     0.039 A 
HETATM   24  C   UNL     1       5.431  28.297  56.634  1.00  0.00     0.032 A 
BRANCH  22  25
HETATM   25  O   UNL     1       6.086  24.878  55.480  1.00  0.00    -0.341 OA
BRANCH  25  26
HETATM   26  C   UNL     1       6.565  24.792  54.119  1.00  0.00     0.057 C 
HETATM   27  C   UNL     1       7.291  23.452  53.957  1.00  0.00     0.045 C 
HETATM   28  C   UNL     1       7.460  25.945  53.625  1.00  0.00     0.045 C 
HETATM   29  C   UNL     1       5.294  24.772  53.254  1.00  0.00     0.045 C 
ENDBRANCH  25  26
ENDBRANCH  22  25
ENDBRANCH   1  19
TORSDOF 3
ENDMDL
MODEL 4
REMARK VINA RESULT:      -9.3      1.435      2.115
REMARK  3 active torsions:
REMARK  status: ('A' for Active; 'I' for Inactive)
REMARK    1  A    between atoms: C_2  and  O_3 
REMARK    2  A    between atoms: O_3  and  C_4 
REMARK    3  A    between atoms: C_7  and  N_8 
REMARK       I    between atoms: N_8  and  C_9 
REMARK       I    between atoms: C_9  and  N_10 
ROOT
HETATM    1  N   UNL     1       5.564  26.118  50.389  1.00  0.00    -0.309 N 
HETATM    2  C   UNL     1       5.340  27.431  50.044  1.00  0.00     0.323 C 
HETATM    3  N   UNL     1       4.818  27.635  48.772  1.00  0.00    -0.328 N 
HETATM    4  C   UNL     1       4.383  29.003  48.442  1.00  0.00     0.185 C 
HETATM    5  C   UNL     1       3.044  28.909  47.789  1.00  0.00     0.035 A 
HETATM    6  C   UNL     1       2.434  27.767  47.305  1.00  0.00    -0.020 A 
HETATM    7  C   UNL     1       3.096  26.436  47.415  1.00  0.00     0.061 C 
HETATM    8  C   UNL     1       4.600  26.635  47.701  1.00  0.00     0.132 C 
HETATM    9  N   UNL     1       2.201  29.963  47.575  1.00  0.00    -0.357 N 
HETATM   10  H   UNL     1       2.378  30.923  47.839  1.00  0.00     0.166 HD
HETATM   11  C   UNL     1       1.050  29.524  46.955  1.00  0.00     0.043 A 
HETATM   12  C   UNL     1       1.170  28.142  46.776  1.00  0.00    -0.001 A 
HETATM   13  C   UNL     1      -0.082  30.240  46.550  1.00  0.00     0.030 A 
HETATM   14  C   UNL     1      -1.122  29.525  45.948  1.00  0.00     0.002 A 
HETATM   15  C   UNL     1      -1.031  28.147  45.760  1.00  0.00     0.001 A 
HETATM   16  C   UNL     1       0.108  27.444  46.169  1.00  0.00     0.014 A 
HETATM   17  O   UNL     1       5.563  28.384  50.789  1.00  0.00    -0.247 OA
HETATM   18  H   UNL     1       5.351  25.419  49.704  1.00  0.00     0.170 HD
ENDROOT
BRANCH   1  19
HETATM   19  C   UNL     1       6.001  25.608  51.633  1.00  0.00     0.036 A 
HETATM   20  C   UNL     1       7.323  25.269  51.925  1.00  0.00     0.032 A 
HETATM   21  C   UNL     1       7.675  24.818  53.201  1.00  0.00     0.039 A 
HETATM   22  C   UNL     1       6.709  24.717  54.197  1.00  0.00     0.070 A 
HETATM   23  C   UNL     1       5.379  24.999  53.909  1.00  0.00     0.039 A 
HETATM   24  C   UNL     1       5.030  25.458  52.635  1.00  0.00     0.032 A 
BRANCH  22  25
HETATM   25  O   UNL     1       7.095  24.259  55.418  1.00  0.00    -0.341 OA
BRANCH  25  26
HETATM   26  C   UNL     1       7.284  25.233  56.470  1.00  0.00     0.057 C 
HETATM   27  C   UNL     1       6.007  25.266  57.318  1.00  0.00     0.045 C 
HETATM   28  C   UNL     1       7.669  26.659  56.032  1.00  0.00     0.045 C 
HETATM   29  C   UNL     1       8.430  24.672  57.327  1.00  0.00     0.045 C 
ENDBRANCH  25  26
ENDBRANCH  22  25
ENDBRANCH   1  19
TORSDOF 3
ENDMDL
MODEL 5
REMARK VINA RESULT:      -9.0     11.008     13.424
REMARK  3 active torsions:
REMARK  status: ('A' for Active; 'I' for Inactive)
REMARK    1  A    between atoms: C_2  and  O_3 
REMARK    2  A    between atoms: O_3  and  C_4 
REMARK    3  A    between atoms: C_7  and  N_8 
REMARK       I    between atoms: N_8  and  C_9 
REMARK       I    between atoms: C_9  and  N_10 
ROOT
HETATM    1  N   UNL     1       7.217  32.474  60.793  1.00  0.00    -0.309 N 
HETATM    2  C   UNL     1       6.274  32.130  59.852  1.00  0.00     0.323 C 
HETATM    3  N   UNL     1       6.747  31.400  58.768  1.00  0.00    -0.328 N 
HETATM    4  C   UNL     1       5.741  30.848  57.845  1.00  0.00     0.185 C 
HETATM    5  C   UNL     1       6.108  29.428  57.568  1.00  0.00     0.035 A 
HETATM    6  C   UNL     1       7.306  28.807  57.864  1.00  0.00    -0.020 A 
HETATM    7  C   UNL     1       8.407  29.544  58.547  1.00  0.00     0.061 C 
HETATM    8  C   UNL     1       8.151  31.063  58.434  1.00  0.00     0.132 C 
HETATM    9  N   UNL     1       5.289  28.510  56.974  1.00  0.00    -0.357 N 
HETATM   10  H   UNL     1       4.342  28.678  56.661  1.00  0.00     0.166 HD
HETATM   11  C   UNL     1       5.939  27.297  56.875  1.00  0.00     0.043 A 
HETATM   12  C   UNL     1       7.212  27.457  57.433  1.00  0.00    -0.001 A 
HETATM   13  C   UNL     1       5.496  26.080  56.347  1.00  0.00     0.030 A 
HETATM   14  C   UNL     1       6.376  24.994  56.390  1.00  0.00     0.002 A 
HETATM   15  C   UNL     1       7.649  25.123  56.942  1.00  0.00     0.001 A 
HETATM   16  C   UNL     1       8.079  26.348  57.466  1.00  0.00     0.014 A 
HETATM   17  O   UNL     1       5.082  32.422  59.936  1.00  0.00    -0.247 OA
HETATM   18  H   UNL     1       8.162  32.188  60.623  1.00  0.00     0.170 HD
ENDROOT
BRANCH   1  19
HETATM   19  C   UNL     1       7.014  33.131  62.027  1.00  0.00     0.036 A 
HETATM   20  C   UNL     1       6.325  34.336  62.174  1.00  0.00     0.032 A 
HETATM   21  C   UNL     1       6.129  34.892  63.443  1.00  0.00     0.039 A 
HETATM   22  C   UNL     1       6.607  34.236  64.573  1.00  0.00     0.070 A 
HETATM   23  C   UNL     1       7.340  33.063  64.441  1.00  0.00     0.039 A 
HETATM   24  C   UNL     1       7.529  32.506  63.173  1.00  0.00     0.032 A 
BRANCH  22  25
HETATM   25  O   UNL     1       6.404  34.822  65.785  1.00  0.00    -0.341 OA
BRANCH  25  26
HETATM   26  C   UNL     1       5.068  34.780  66.334  1.00  0.00     0.057 C 
HETATM   27  C   UNL     1       5.164  34.249  67.770  1.00  0.00     0.045 C 
HETATM   28  C   UNL     1       4.018  33.979  65.540  1.00  0.00     0.045 C 
HETATM   29  C   UNL     1       4.612  36.247  66.381  1.00  0.00     0.045 C 
ENDBRANCH  25  26
ENDBRANCH  22  25
ENDBRANCH   1  19
TORSDOF 3
ENDMDL
MODEL 6
REMARK VINA RESULT:      -8.7      5.524     10.208
REMARK  3 active torsions:
REMARK  status: ('A' for Active; 'I' for Inactive)
REMARK    1  A    between atoms: C_2  and  O_3 
REMARK    2  A    between atoms: O_3  and  C_4 
REMARK    3  A    between atoms: C_7  and  N_8 
REMARK       I    between atoms: N_8  and  C_9 
REMARK       I    between atoms: C_9  and  N_10 
ROOT
HETATM    1  N   UNL     1       6.043  27.490  53.282  1.00  0.00    -0.309 N 
HETATM    2  C   UNL     1       5.343  27.875  54.402  1.00  0.00     0.323 C 
HETATM    3  N   UNL     1       6.059  27.851  55.594  1.00  0.00    -0.328 N 
HETATM    4  C   UNL     1       5.407  28.439  56.775  1.00  0.00     0.185 C 
HETATM    5  C   UNL     1       6.407  29.311  57.460  1.00  0.00     0.035 A 
HETATM    6  C   UNL     1       7.769  29.351  57.230  1.00  0.00    -0.020 A 
HETATM    7  C   UNL     1       8.401  28.481  56.197  1.00  0.00     0.061 C 
HETATM    8  C   UNL     1       7.430  27.339  55.828  1.00  0.00     0.132 C 
HETATM    9  N   UNL     1       6.114  30.223  58.433  1.00  0.00    -0.357 N 
HETATM   10  H   UNL     1       5.192  30.423  58.797  1.00  0.00     0.166 HD
HETATM   11  C   UNL     1       7.268  30.857  58.844  1.00  0.00     0.043 A 
HETATM   12  C   UNL     1       8.326  30.328  58.098  1.00  0.00    -0.001 A 
HETATM   13  C   UNL     1       7.452  31.857  59.805  1.00  0.00     0.030 A 
HETATM   14  C   UNL     1       8.751  32.332  60.010  1.00  0.00     0.002 A 
HETATM   15  C   UNL     1       9.824  31.824  59.279  1.00  0.00     0.001 A 
HETATM   16  C   UNL     1       9.626  30.822  58.322  1.00  0.00     0.014 A 
HETATM   17  O   UNL     1       4.167  28.234  54.387  1.00  0.00    -0.247 OA
HETATM   18  H   UNL     1       6.997  27.213  53.408  1.00  0.00     0.170 HD
ENDROOT
BRANCH   1  19
HETATM   19  C   UNL     1       5.606  27.500  51.938  1.00  0.00     0.036 A 
HETATM   20  C   UNL     1       5.217  26.363  51.228  1.00  0.00     0.032 A 
HETATM   21  C   UNL     1       4.750  26.471  49.914  1.00  0.00     0.039 A 
HETATM   22  C   UNL     1       4.655  27.720  49.308  1.00  0.00     0.070 A 
HETATM   23  C   UNL     1       5.088  28.856  49.981  1.00  0.00     0.039 A 
HETATM   24  C   UNL     1       5.547  28.747  51.297  1.00  0.00     0.032 A 
BRANCH  22  25
HETATM   25  O   UNL     1       4.209  27.774  48.024  1.00  0.00    -0.341 OA
BRANCH  25  26
HETATM   26  C   UNL     1       2.798  28.009  47.814  1.00  0.00     0.057 C 
HETATM   27  C   UNL     1       2.653  29.242  46.914  1.00  0.00     0.045 C 
HETATM   28  C   UNL     1       1.928  28.166  49.075  1.00  0.00     0.045 C 
HETATM   29  C   UNL     1       2.302  26.775  47.043  1.00  0.00     0.045 C 
ENDBRANCH  25  26
ENDBRANCH  22  25
ENDBRANCH   1  19
TORSDOF 3
ENDMDL
MODEL 7
REMARK VINA RESULT:      -8.4      2.740      3.735
REMARK  3 active torsions:
REMARK  status: ('A' for Active; 'I' for Inactive)
REMARK    1  A    between atoms: C_2  and  O_3 
REMARK    2  A    between atoms: O_3  and  C_4 
REMARK    3  A    between atoms: C_7  and  N_8 
REMARK       I    between atoms: N_8  and  C_9 
REMARK       I    between atoms: C_9  and  N_10 
ROOT
HETATM    1  N   UNL     1       5.818  26.552  52.382  1.00  0.00    -0.309 N 
HETATM    2  C   UNL     1       5.042  26.548  51.246  1.00  0.00     0.323 C 
HETATM    3  N   UNL     1       4.482  27.771  50.898  1.00  0.00    -0.328 N 
HETATM    4  C   UNL     1       3.812  27.850  49.589  1.00  0.00     0.185 C 
HETATM    5  C   UNL     1       4.268  29.103  48.919  1.00  0.00     0.035 A 
HETATM    6  C   UNL     1       4.952  30.154  49.500  1.00  0.00    -0.020 A 
HETATM    7  C   UNL     1       5.335  30.120  50.941  1.00  0.00     0.061 C 
HETATM    8  C   UNL     1       4.504  29.039  51.665  1.00  0.00     0.132 C 
HETATM    9  N   UNL     1       4.078  29.399  47.599  1.00  0.00    -0.357 N 
HETATM   10  H   UNL     1       3.618  28.806  46.922  1.00  0.00     0.166 HD
HETATM   11  C   UNL     1       4.627  30.632  47.312  1.00  0.00     0.043 A 
HETATM   12  C   UNL     1       5.187  31.127  48.493  1.00  0.00    -0.001 A 
HETATM   13  C   UNL     1       4.676  31.334  46.103  1.00  0.00     0.030 A 
HETATM   14  C   UNL     1       5.316  32.577  46.098  1.00  0.00     0.002 A 
HETATM   15  C   UNL     1       5.886  33.095  47.260  1.00  0.00     0.001 A 
HETATM   16  C   UNL     1       5.828  32.381  48.463  1.00  0.00     0.014 A 
HETATM   17  O   UNL     1       4.847  25.551  50.553  1.00  0.00    -0.247 OA
HETATM   18  H   UNL     1       5.907  27.420  52.875  1.00  0.00     0.170 HD
ENDROOT
BRANCH   1  19
HETATM   19  C   UNL     1       6.575  25.488  52.922  1.00  0.00     0.036 A 
HETATM   20  C   UNL     1       7.663  24.891  52.282  1.00  0.00     0.032 A 
HETATM   21  C   UNL     1       8.387  23.874  52.913  1.00  0.00     0.039 A 
HETATM   22  C   UNL     1       8.037  23.460  54.194  1.00  0.00     0.070 A 
HETATM   23  C   UNL     1       6.925  24.005  54.824  1.00  0.00     0.039 A 
HETATM   24  C   UNL     1       6.207  25.027  54.195  1.00  0.00     0.032 A 
BRANCH  22  25
HETATM   25  O   UNL     1       8.762  22.457  54.761  1.00  0.00    -0.341 OA
BRANCH  25  26
HETATM   26  C   UNL     1       8.322  21.100  54.532  1.00  0.00     0.057 C 
HETATM   27  C   UNL     1       9.525  20.172  54.733  1.00  0.00     0.045 C 
HETATM   28  C   UNL     1       7.647  20.810  53.177  1.00  0.00     0.045 C 
HETATM   29  C   UNL     1       7.295  20.824  55.642  1.00  0.00     0.045 C 
ENDBRANCH  25  26
ENDBRANCH  22  25
ENDBRANCH   1  19
TORSDOF 3
ENDMDL
MODEL 8
REMARK VINA RESULT:      -8.2      7.092     11.019
REMARK  3 active torsions:
REMARK  status: ('A' for Active; 'I' for Inactive)
REMARK    1  A    between atoms: C_2  and  O_3 
REMARK    2  A    between atoms: O_3  and  C_4 
REMARK    3  A    between atoms: C_7  and  N_8 
REMARK       I    between atoms: N_8  and  C_9 
REMARK       I    between atoms: C_9  and  N_10 
ROOT
HETATM    1  N   UNL     1       5.465  28.955  56.914  1.00  0.00    -0.309 N 
HETATM    2  C   UNL     1       6.467  28.182  57.453  1.00  0.00     0.323 C 
HETATM    3  N   UNL     1       6.314  26.809  57.298  1.00  0.00    -0.328 N 
HETATM    4  C   UNL     1       7.455  25.963  57.684  1.00  0.00     0.185 C 
HETATM    5  C   UNL     1       7.667  24.962  56.598  1.00  0.00     0.035 A 
HETATM    6  C   UNL     1       6.803  24.665  55.561  1.00  0.00    -0.020 A 
HETATM    7  C   UNL     1       5.502  25.378  55.416  1.00  0.00     0.061 C 
HETATM    8  C   UNL     1       5.150  26.074  56.749  1.00  0.00     0.132 C 
HETATM    9  N   UNL     1       8.777  24.177  56.462  1.00  0.00    -0.357 N 
HETATM   10  H   UNL     1       9.585  24.187  57.071  1.00  0.00     0.166 HD
HETATM   11  C   UNL     1       8.648  23.370  55.351  1.00  0.00     0.043 A 
HETATM   12  C   UNL     1       7.413  23.660  54.763  1.00  0.00    -0.001 A 
HETATM   13  C   UNL     1       9.528  22.419  54.823  1.00  0.00     0.030 A 
HETATM   14  C   UNL     1       9.137  21.747  53.661  1.00  0.00     0.002 A 
HETATM   15  C   UNL     1       7.913  22.018  53.052  1.00  0.00     0.001 A 
HETATM   16  C   UNL     1       7.042  22.971  53.592  1.00  0.00     0.014 A 
HETATM   17  O   UNL     1       7.453  28.640  58.028  1.00  0.00    -0.247 OA
HETATM   18  H   UNL     1       4.704  28.479  56.470  1.00  0.00     0.170 HD
ENDROOT
BRANCH   1  19
HETATM   19  C   UNL     1       5.397  30.365  56.843  1.00  0.00     0.036 A 
HETATM   20  C   UNL     1       5.125  31.084  55.678  1.00  0.00     0.032 A 
HETATM   21  C   UNL     1       5.028  32.479  55.710  1.00  0.00     0.039 A 
HETATM   22  C   UNL     1       5.189  33.162  56.911  1.00  0.00     0.070 A 
HETATM   23  C   UNL     1       5.514  32.467  58.070  1.00  0.00     0.039 A 
HETATM   24  C   UNL     1       5.602  31.072  58.038  1.00  0.00     0.032 A 
BRANCH  22  25
HETATM   25  O   UNL     1       5.101  34.520  56.891  1.00  0.00    -0.341 OA
BRANCH  25  26
HETATM   26  C   UNL     1       3.829  35.114  57.235  1.00  0.00     0.057 C 
HETATM   27  C   UNL     1       3.863  35.473  58.726  1.00  0.00     0.045 C 
HETATM   28  C   UNL     1       2.569  34.286  56.917  1.00  0.00     0.045 C 
HETATM   29  C   UNL     1       3.765  36.413  56.416  1.00  0.00     0.045 C 
ENDBRANCH  25  26
ENDBRANCH  22  25
ENDBRANCH   1  19
TORSDOF 3
ENDMDL
MODEL 9
REMARK VINA RESULT:      -8.2      3.749      9.927
REMARK  3 active torsions:
REMARK  status: ('A' for Active; 'I' for Inactive)
REMARK    1  A    between atoms: C_2  and  O_3 
REMARK    2  A    between atoms: O_3  and  C_4 
REMARK    3  A    between atoms: C_7  and  N_8 
REMARK       I    between atoms: N_8  and  C_9 
REMARK       I    between atoms: C_9  and  N_10 
ROOT
HETATM    1  N   UNL     1       4.555  28.243  51.705  1.00  0.00    -0.309 N 
HETATM    2  C   UNL     1       4.987  28.044  52.996  1.00  0.00     0.323 C 
HETATM    3  N   UNL     1       4.963  26.726  53.439  1.00  0.00    -0.328 N 
HETATM    4  C   UNL     1       5.599  26.448  54.738  1.00  0.00     0.185 C 
HETATM    5  C   UNL     1       6.450  25.233  54.577  1.00  0.00     0.035 A 
HETATM    6  C   UNL     1       6.439  24.345  53.518  1.00  0.00    -0.020 A 
HETATM    7  C   UNL     1       5.527  24.545  52.355  1.00  0.00     0.061 C 
HETATM    8  C   UNL     1       4.411  25.538  52.747  1.00  0.00     0.132 C 
HETATM    9  N   UNL     1       7.393  24.813  55.472  1.00  0.00    -0.357 N 
HETATM   10  H   UNL     1       7.631  25.276  56.339  1.00  0.00     0.166 HD
HETATM   11  C   UNL     1       7.995  23.661  55.012  1.00  0.00     0.043 A 
HETATM   12  C   UNL     1       7.414  23.346  53.779  1.00  0.00    -0.001 A 
HETATM   13  C   UNL     1       9.009  22.885  55.586  1.00  0.00     0.030 A 
HETATM   14  C   UNL     1       9.443  21.758  54.881  1.00  0.00     0.002 A 
HETATM   15  C   UNL     1       8.883  21.422  53.650  1.00  0.00     0.001 A 
HETATM   16  C   UNL     1       7.869  22.207  53.088  1.00  0.00     0.014 A 
HETATM   17  O   UNL     1       5.385  28.944  53.733  1.00  0.00    -0.247 OA
HETATM   18  H   UNL     1       4.248  27.439  51.193  1.00  0.00     0.170 HD
ENDROOT
BRANCH   1  19
HETATM   19  C   UNL     1       4.551  29.448  50.966  1.00  0.00     0.036 A 
HETATM   20  C   UNL     1       3.493  30.358  50.949  1.00  0.00     0.032 A 
HETATM   21  C   UNL     1       3.594  31.552  50.227  1.00  0.00     0.039 A 
HETATM   22  C   UNL     1       4.761  31.848  49.529  1.00  0.00     0.070 A 
HETATM   23  C   UNL     1       5.803  30.929  49.491  1.00  0.00     0.039 A 
HETATM   24  C   UNL     1       5.703  29.740  50.220  1.00  0.00     0.032 A 
BRANCH  22  25
HETATM   25  O   UNL     1       4.808  33.014  48.829  1.00  0.00    -0.341 OA
BRANCH  25  26
HETATM   26  C   UNL     1       5.631  34.079  49.356  1.00  0.00     0.057 C 
HETATM   27  C   UNL     1       6.930  34.119  48.541  1.00  0.00     0.045 C 
HETATM   28  C   UNL     1       5.950  34.027  50.862  1.00  0.00     0.045 C 
HETATM   29  C   UNL     1       4.837  35.366  49.082  1.00  0.00     0.045 C 
ENDBRANCH  25  26
ENDBRANCH  22  25
ENDBRANCH   1  19
TORSDOF 3
ENDMDL
MODEL 10
REMARK VINA RESULT:      -8.0      9.638     12.581
REMARK  3 active torsions:
REMARK  status: ('A' for Active; 'I' for Inactive)
REMARK    1  A    between atoms: C_2  and  O_3 
REMARK    2  A    between atoms: O_3  and  C_4 
REMARK    3  A    between atoms: C_7  and  N_8 
REMARK       I    between atoms: N_8  and  C_9 
REMARK       I    between atoms: C_9  and  N_10 
ROOT
HETATM    1  N   UNL     1       6.000  31.601  59.234  1.00  0.00    -0.309 N 
HETATM    2  C   UNL     1       5.469  31.034  58.098  1.00  0.00     0.323 C 
HETATM    3  N   UNL     1       6.346  30.254  57.353  1.00  0.00    -0.328 N 
HETATM    4  C   UNL     1       5.768  29.475  56.244  1.00  0.00     0.185 C 
HETATM    5  C   UNL     1       6.325  28.093  56.321  1.00  0.00     0.035 A 
HETATM    6  C   UNL     1       7.397  27.670  57.084  1.00  0.00    -0.020 A 
HETATM    7  C   UNL     1       8.131  28.617  57.972  1.00  0.00     0.061 C 
HETATM    8  C   UNL     1       7.802  30.067  57.554  1.00  0.00     0.132 C 
HETATM    9  N   UNL     1       5.842  27.015  55.635  1.00  0.00    -0.357 N 
HETATM   10  H   UNL     1       5.049  27.022  55.007  1.00  0.00     0.166 HD
HETATM   11  C   UNL     1       6.585  25.894  55.939  1.00  0.00     0.043 A 
HETATM   12  C   UNL     1       7.571  26.279  56.853  1.00  0.00    -0.001 A 
HETATM   13  C   UNL     1       6.454  24.577  55.484  1.00  0.00     0.030 A 
HETATM   14  C   UNL     1       7.354  23.627  55.976  1.00  0.00     0.002 A 
HETATM   15  C   UNL     1       8.345  23.982  56.890  1.00  0.00     0.001 A 
HETATM   16  C   UNL     1       8.464  25.303  57.336  1.00  0.00     0.014 A 
HETATM   17  O   UNL     1       4.301  31.176  57.741  1.00  0.00    -0.247 OA
HETATM   18  H   UNL     1       6.966  31.424  59.429  1.00  0.00     0.170 HD
ENDROOT
BRANCH   1  19
HETATM   19  C   UNL     1       5.330  32.361  60.219  1.00  0.00     0.036 A 
HETATM   20  C   UNL     1       5.252  32.010  61.568  1.00  0.00     0.032 A 
HETATM   21  C   UNL     1       4.610  32.849  62.484  1.00  0.00     0.039 A 
HETATM   22  C   UNL     1       4.055  34.052  62.060  1.00  0.00     0.070 A 
HETATM   23  C   UNL     1       4.077  34.392  60.712  1.00  0.00     0.039 A 
HETATM   24  C   UNL     1       4.726  33.556  59.799  1.00  0.00     0.032 A 
BRANCH  22  25
HETATM   25  O   UNL     1       3.428  34.828  62.985  1.00  0.00    -0.341 OA
BRANCH  25  26
HETATM   26  C   UNL     1       4.162  35.948  63.528  1.00  0.00     0.057 C 
HETATM   27  C   UNL     1       3.538  37.235  62.975  1.00  0.00     0.045 C 
HETATM   28  C   UNL     1       5.685  35.955  63.298  1.00  0.00     0.045 C 
HETATM   29  C   UNL     1       3.910  35.890  65.043  1.00  0.00     0.045 C 
ENDBRANCH  25  26
ENDBRANCH  22  25
ENDBRANCH   1  19
TORSDOF 3
ENDMDL
