MODEL 1
REMARK VINA RESULT:      -9.2      0.000      0.000
REMARK  8 active torsions:
REMARK  status: ('A' for Active; 'I' for Inactive)
REMARK    1  A    between atoms: N_5  and  C_7 
REMARK    2  A    between atoms: C_7  and  C_8 
REMARK    3  A    between atoms: N_9  and  C_10 
REMARK    4  A    between atoms: C_14  and  N_15 
REMARK    5  A    between atoms: C_18  and  C_19 
REMARK       I    between atoms: C_19  and  N_20 
REMARK    6  A    between atoms: N_20  and  N_21 
REMARK    7  A    between atoms: C_22  and  C_23 
REMARK    8  A    between atoms: C_24  and  O_25 
ROOT
HETATM    1  C   UNL     1       7.482  31.534  60.704  1.00  0.00     0.096 A 
HETATM    2  N   UNL     1       7.558  31.592  62.097  1.00  0.00    -0.215 N 
HETATM    3  N   UNL     1       8.631  30.854  62.497  1.00  0.00     0.012 NA
HETATM    4  N   UNL     1       9.168  30.251  61.450  1.00  0.00    -0.152 NA
HETATM    5  C   UNL     1       8.475  30.634  60.344  1.00  0.00     0.170 A 
ENDROOT
BRANCH   5   6
HETATM    6  C   UNL     1       8.758  30.149  59.000  1.00  0.00     0.293 C 
HETATM    7  N   UNL     1       8.022  29.037  58.642  1.00  0.00    -0.242 N 
HETATM    8  H   UNL     1       7.353  28.640  59.299  1.00  0.00     0.192 HD
HETATM    9  O   UNL     1       9.576  30.740  58.295  1.00  0.00    -0.264 OA
BRANCH   7  10
HETATM   10  N   UNL     1       8.217  28.452  57.428  1.00  0.00    -0.183 NA
HETATM   11  C   UNL     1       7.360  27.531  57.109  1.00  0.00     0.153 C 
BRANCH  11  12
HETATM   12  C   UNL     1       7.463  26.796  55.831  1.00  0.00     0.017 A 
HETATM   13  C   UNL     1       7.455  27.449  54.591  1.00  0.00     0.077 A 
HETATM   14  C   UNL     1       7.564  26.718  53.411  1.00  0.00     0.039 A 
HETATM   15  C   UNL     1       7.680  25.328  53.462  1.00  0.00     0.022 A 
HETATM   16  C   UNL     1       7.684  24.679  54.697  1.00  0.00     0.012 A 
HETATM   17 BR   UNL     1       7.838  22.795  54.762  1.00  0.00    -0.051 Br
HETATM   18  C   UNL     1       7.578  25.403  55.884  1.00  0.00     0.034 A 
BRANCH  13  19
HETATM   19  O   UNL     1       7.347  28.807  54.460  1.00  0.00    -0.360 OA
HETATM   20  H   UNL     1       7.476  29.029  53.513  1.00  0.00     0.217 HD
ENDBRANCH  13  19
ENDBRANCH  11  12
ENDBRANCH   7  10
ENDBRANCH   5   6
BRANCH   1  21
HETATM   21  C   UNL     1       6.582  32.330  59.835  1.00  0.00     0.296 C 
BRANCH  21  22
HETATM   22  N   UNL     1       5.635  31.504  58.993  1.00  0.00    -0.066 N 
HETATM   23  C   UNL     1       4.184  31.791  59.275  1.00  0.00     0.235 C 
HETATM   24  C   UNL     1       3.299  30.862  58.457  1.00  0.00     0.032 C 
HETATM   25  C   UNL     1       3.589  30.926  56.954  1.00  0.00    -0.016 C 
HETATM   26  C   UNL     1       3.093  32.236  56.335  1.00  0.00     0.010 C 
HETATM   27  C   UNL     1       5.085  30.704  56.703  1.00  0.00     0.032 C 
HETATM   28  C   UNL     1       5.973  31.629  57.525  1.00  0.00     0.235 C 
HETATM   29  H   UNL     1       5.836  30.513  59.243  1.00  0.00     0.280 HD
ENDBRANCH  21  22
ENDBRANCH   1  21
BRANCH   2  30
HETATM   30  C   UNL     1       6.695  32.220  63.025  1.00  0.00     0.225 A 
HETATM   31  N   UNL     1       7.108  33.288  63.710  1.00  0.00    -0.081 NA
HETATM   32  O   UNL     1       5.998  33.638  64.484  1.00  0.00    -0.103 OA
HETATM   33  N   UNL     1       4.928  32.791  64.235  1.00  0.00    -0.083 NA
HETATM   34  C   UNL     1       5.357  31.915  63.330  1.00  0.00     0.201 A 
BRANCH  34  35
HETATM   35  N   UNL     1       4.613  30.921  62.820  1.00  0.00    -0.379 N 
HETATM   36  H   UNL     1       3.623  30.859  63.045  1.00  0.00     0.158 HD
HETATM   37  H   UNL     1       4.914  30.321  62.055  1.00  0.00     0.158 HD
ENDBRANCH  34  35
ENDBRANCH   2  30
TORSDOF 8
ENDMDL
MODEL 2
REMARK VINA RESULT:      -9.1      4.109      9.698
REMARK  8 active torsions:
REMARK  status: ('A' for Active; 'I' for Inactive)
REMARK    1  A    between atoms: N_5  and  C_7 
REMARK    2  A    between atoms: C_7  and  C_8 
REMARK    3  A    between atoms: N_9  and  C_10 
REMARK    4  A    between atoms: C_14  and  N_15 
REMARK    5  A    between atoms: C_18  and  C_19 
REMARK       I    between atoms: C_19  and  N_20 
REMARK    6  A    between atoms: N_20  and  N_21 
REMARK    7  A    between atoms: C_22  and  C_23 
REMARK    8  A    between atoms: C_24  and  O_25 
ROOT
HETATM    1  C   UNL     1       7.342  26.859  55.467  1.00  0.00     0.096 A 
HETATM    2  N   UNL     1       7.290  27.131  54.098  1.00  0.00    -0.215 N 
HETATM    3  N   UNL     1       7.781  28.385  53.893  1.00  0.00     0.012 NA
HETATM    4  N   UNL     1       8.039  28.955  55.057  1.00  0.00    -0.152 NA
HETATM    5  C   UNL     1       7.763  28.052  56.037  1.00  0.00     0.170 A 
ENDROOT
BRANCH   5   6
HETATM    6  C   UNL     1       7.897  28.332  57.460  1.00  0.00     0.293 C 
HETATM    7  N   UNL     1       7.947  29.679  57.761  1.00  0.00    -0.242 N 
HETATM    8  H   UNL     1       7.885  30.367  57.013  1.00  0.00     0.192 HD
HETATM    9  O   UNL     1       7.934  27.402  58.266  1.00  0.00    -0.264 OA
BRANCH   7  10
HETATM   10  N   UNL     1       8.114  30.083  59.051  1.00  0.00    -0.183 NA
HETATM   11  C   UNL     1       7.384  31.092  59.417  1.00  0.00     0.153 C 
BRANCH  11  12
HETATM   12  C   UNL     1       7.477  31.651  60.782  1.00  0.00     0.017 A 
HETATM   13  C   UNL     1       8.257  31.055  61.782  1.00  0.00     0.077 A 
HETATM   14  C   UNL     1       8.324  31.623  63.052  1.00  0.00     0.039 A 
HETATM   15  C   UNL     1       7.610  32.789  63.332  1.00  0.00     0.022 A 
HETATM   16  C   UNL     1       6.832  33.379  62.337  1.00  0.00     0.012 A 
HETATM   17 BR   UNL     1       5.863  34.957  62.720  1.00  0.00    -0.051 Br
HETATM   18  C   UNL     1       6.760  32.820  61.061  1.00  0.00     0.034 A 
BRANCH  13  19
HETATM   19  O   UNL     1       8.986  29.914  61.584  1.00  0.00    -0.360 OA
HETATM   20  H   UNL     1       8.793  29.301  62.326  1.00  0.00     0.217 HD
ENDBRANCH  13  19
ENDBRANCH  11  12
ENDBRANCH   7  10
ENDBRANCH   5   6
BRANCH   1  21
HETATM   21  C   UNL     1       7.078  25.554  56.118  1.00  0.00     0.296 C 
BRANCH  21  22
HETATM   22  N   UNL     1       7.792  24.382  55.482  1.00  0.00    -0.066 N 
HETATM   23  C   UNL     1       8.681  23.636  56.441  1.00  0.00     0.235 C 
HETATM   24  C   UNL     1       9.429  22.531  55.709  1.00  0.00     0.032 C 
HETATM   25  C   UNL     1       8.498  21.570  54.962  1.00  0.00    -0.016 C 
HETATM   26  C   UNL     1       7.733  20.659  55.925  1.00  0.00     0.010 C 
HETATM   27  C   UNL     1       7.555  22.362  54.051  1.00  0.00     0.032 C 
HETATM   28  C   UNL     1       6.810  23.472  54.780  1.00  0.00     0.235 C 
HETATM   29  H   UNL     1       8.380  24.793  54.728  1.00  0.00     0.280 HD
ENDBRANCH  21  22
ENDBRANCH   1  21
BRANCH   2  30
HETATM   30  C   UNL     1       6.780  26.345  53.038  1.00  0.00     0.225 A 
HETATM   31  N   UNL     1       7.607  25.629  52.275  1.00  0.00    -0.081 NA
HETATM   32  O   UNL     1       6.755  24.978  51.378  1.00  0.00    -0.103 OA
HETATM   33  N   UNL     1       5.427  25.294  51.631  1.00  0.00    -0.083 NA
HETATM   34  C   UNL     1       5.442  26.138  52.660  1.00  0.00     0.201 A 
BRANCH  34  35
HETATM   35  N   UNL     1       4.346  26.680  53.215  1.00  0.00    -0.379 N 
HETATM   36  H   UNL     1       4.260  26.734  54.226  1.00  0.00     0.158 HD
HETATM   37  H   UNL     1       3.663  27.231  52.699  1.00  0.00     0.158 HD
ENDBRANCH  34  35
ENDBRANCH   2  30
TORSDOF 8
ENDMDL
MODEL 3
REMARK VINA RESULT:      -9.0      4.349      9.712
REMARK  8 active torsions:
REMARK  status: ('A' for Active; 'I' for Inactive)
REMARK    1  A    between atoms: N_5  and  C_7 
REMARK    2  A    between atoms: C_7  and  C_8 
REMARK    3  A    between atoms: N_9  and  C_10 
REMARK    4  A    between atoms: C_14  and  N_15 
REMARK    5  A    between atoms: C_18  and  C_19 
REMARK       I    between atoms: C_19  and  N_20 
REMARK    6  A    between atoms: N_20  and  N_21 
REMARK    7  A    between atoms: C_22  and  C_23 
REMARK    8  A    between atoms: C_24  and  O_25 
ROOT
HETATM    1  C   UNL     1       6.095  28.147  54.067  1.00  0.00     0.096 A 
HETATM    2  N   UNL     1       5.264  28.413  52.977  1.00  0.00    -0.215 N 
HETATM    3  N   UNL     1       4.360  29.361  53.351  1.00  0.00     0.012 NA
HETATM    4  N   UNL     1       4.506  29.629  54.637  1.00  0.00    -0.152 NA
HETATM    5  C   UNL     1       5.548  28.888  55.104  1.00  0.00     0.170 A 
ENDROOT
BRANCH   5   6
HETATM    6  C   UNL     1       5.991  28.895  56.491  1.00  0.00     0.293 C 
HETATM    7  N   UNL     1       6.580  30.081  56.884  1.00  0.00    -0.242 N 
HETATM    8  H   UNL     1       6.663  30.848  56.219  1.00  0.00     0.192 HD
HETATM    9  O   UNL     1       5.804  27.904  57.199  1.00  0.00    -0.264 OA
BRANCH   7  10
HETATM   10  N   UNL     1       7.079  30.211  58.144  1.00  0.00    -0.183 NA
HETATM   11  C   UNL     1       6.876  31.362  58.707  1.00  0.00     0.153 C 
BRANCH  11  12
HETATM   12  C   UNL     1       7.382  31.651  60.065  1.00  0.00     0.017 A 
HETATM   13  C   UNL     1       8.529  31.035  60.583  1.00  0.00     0.077 A 
HETATM   14  C   UNL     1       8.975  31.346  61.865  1.00  0.00     0.039 A 
HETATM   15  C   UNL     1       8.277  32.272  62.640  1.00  0.00     0.022 A 
HETATM   16  C   UNL     1       7.133  32.883  62.125  1.00  0.00     0.012 A 
HETATM   17 BR   UNL     1       6.187  34.136  63.178  1.00  0.00    -0.051 Br
HETATM   18  C   UNL     1       6.680  32.580  60.841  1.00  0.00     0.034 A 
BRANCH  13  19
HETATM   19  O   UNL     1       9.267  30.119  59.884  1.00  0.00    -0.360 OA
HETATM   20  H   UNL     1      10.213  30.369  59.967  1.00  0.00     0.217 HD
ENDBRANCH  13  19
ENDBRANCH  11  12
ENDBRANCH   7  10
ENDBRANCH   5   6
BRANCH   1  21
HETATM   21  C   UNL     1       7.324  27.318  54.058  1.00  0.00     0.296 C 
BRANCH  21  22
HETATM   22  N   UNL     1       7.072  25.828  53.993  1.00  0.00    -0.066 N 
HETATM   23  C   UNL     1       7.921  25.125  52.967  1.00  0.00     0.235 C 
HETATM   24  C   UNL     1       7.547  23.651  52.900  1.00  0.00     0.032 C 
HETATM   25  C   UNL     1       7.634  22.949  54.259  1.00  0.00    -0.016 C 
HETATM   26  C   UNL     1       9.087  22.745  54.700  1.00  0.00     0.010 C 
HETATM   27  C   UNL     1       6.823  23.727  55.301  1.00  0.00     0.032 C 
HETATM   28  C   UNL     1       7.191  25.203  55.365  1.00  0.00     0.235 C 
HETATM   29  H   UNL     1       6.070  25.729  53.727  1.00  0.00     0.280 HD
ENDBRANCH  21  22
ENDBRANCH   1  21
BRANCH   2  30
HETATM   30  C   UNL     1       5.235  27.818  51.694  1.00  0.00     0.225 A 
HETATM   31  N   UNL     1       5.018  26.508  51.565  1.00  0.00    -0.081 NA
HETATM   32  O   UNL     1       5.031  26.301  50.183  1.00  0.00    -0.103 OA
HETATM   33  N   UNL     1       5.232  27.493  49.501  1.00  0.00    -0.083 NA
HETATM   34  C   UNL     1       5.355  28.432  50.436  1.00  0.00     0.201 A 
BRANCH  34  35
HETATM   35  N   UNL     1       5.561  29.735  50.182  1.00  0.00    -0.379 N 
HETATM   36  H   UNL     1       6.070  30.310  50.848  1.00  0.00     0.158 HD
HETATM   37  H   UNL     1       5.419  30.164  49.270  1.00  0.00     0.158 HD
ENDBRANCH  34  35
ENDBRANCH   2  30
TORSDOF 8
ENDMDL
MODEL 4
REMARK VINA RESULT:      -8.9      2.231      2.881
REMARK  8 active torsions:
REMARK  status: ('A' for Active; 'I' for Inactive)
REMARK    1  A    between atoms: N_5  and  C_7 
REMARK    2  A    between atoms: C_7  and  C_8 
REMARK    3  A    between atoms: N_9  and  C_10 
REMARK    4  A    between atoms: C_14  and  N_15 
REMARK    5  A    between atoms: C_18  and  C_19 
REMARK       I    between atoms: C_19  and  N_20 
REMARK    6  A    between atoms: N_20  and  N_21 
REMARK    7  A    between atoms: C_22  and  C_23 
REMARK    8  A    between atoms: C_24  and  O_25 
ROOT
HETATM    1  C   UNL     1       6.300  32.356  61.534  1.00  0.00     0.096 A 
HETATM    2  N   UNL     1       6.744  32.631  62.829  1.00  0.00    -0.215 N 
HETATM    3  N   UNL     1       8.087  32.406  62.877  1.00  0.00     0.012 NA
HETATM    4  N   UNL     1       8.494  31.906  61.723  1.00  0.00    -0.152 NA
HETATM    5  C   UNL     1       7.419  31.847  60.890  1.00  0.00     0.170 A 
ENDROOT
BRANCH   5   6
HETATM    6  C   UNL     1       7.472  31.320  59.533  1.00  0.00     0.293 C 
HETATM    7  N   UNL     1       7.918  30.015  59.459  1.00  0.00    -0.242 N 
HETATM    8  H   UNL     1       8.167  29.516  60.311  1.00  0.00     0.192 HD
HETATM    9  O   UNL     1       7.116  32.023  58.588  1.00  0.00    -0.264 OA
BRANCH   7  10
HETATM   10  N   UNL     1       8.058  29.410  58.247  1.00  0.00    -0.183 NA
HETATM   11  C   UNL     1       7.278  28.394  58.038  1.00  0.00     0.153 C 
BRANCH  11  12
HETATM   12  C   UNL     1       7.336  27.628  56.776  1.00  0.00     0.017 A 
HETATM   13  C   UNL     1       7.288  28.251  55.522  1.00  0.00     0.077 A 
HETATM   14  C   UNL     1       7.356  27.490  54.357  1.00  0.00     0.039 A 
HETATM   15  C   UNL     1       7.470  26.101  54.438  1.00  0.00     0.022 A 
HETATM   16  C   UNL     1       7.515  25.483  55.687  1.00  0.00     0.012 A 
HETATM   17 BR   UNL     1       7.667  23.601  55.794  1.00  0.00    -0.051 Br
HETATM   18  C   UNL     1       7.450  26.236  56.859  1.00  0.00     0.034 A 
BRANCH  13  19
HETATM   19  O   UNL     1       7.178  29.605  55.361  1.00  0.00    -0.360 OA
HETATM   20  H   UNL     1       7.732  29.862  54.592  1.00  0.00     0.217 HD
ENDBRANCH  13  19
ENDBRANCH  11  12
ENDBRANCH   7  10
ENDBRANCH   5   6
BRANCH   1  21
HETATM   21  C   UNL     1       4.951  32.632  60.985  1.00  0.00     0.296 C 
BRANCH  21  22
HETATM   22  N   UNL     1       4.829  33.958  60.268  1.00  0.00    -0.066 N 
HETATM   23  C   UNL     1       4.054  33.869  58.980  1.00  0.00     0.235 C 
HETATM   24  C   UNL     1       4.051  35.218  58.277  1.00  0.00     0.032 C 
HETATM   25  C   UNL     1       3.519  36.353  59.160  1.00  0.00    -0.016 C 
HETATM   26  C   UNL     1       2.004  36.252  59.361  1.00  0.00     0.010 C 
HETATM   27  C   UNL     1       4.274  36.372  60.493  1.00  0.00     0.032 C 
HETATM   28  C   UNL     1       4.284  35.021  61.195  1.00  0.00     0.235 C 
HETATM   29  H   UNL     1       5.805  34.248  60.054  1.00  0.00     0.280 HD
ENDBRANCH  21  22
ENDBRANCH   1  21
BRANCH   2  30
HETATM   30  C   UNL     1       6.010  33.017  63.974  1.00  0.00     0.225 A 
HETATM   31  N   UNL     1       4.753  32.600  64.139  1.00  0.00    -0.081 NA
HETATM   32  O   UNL     1       4.378  33.147  65.370  1.00  0.00    -0.103 OA
HETATM   33  N   UNL     1       5.421  33.865  65.936  1.00  0.00    -0.083 NA
HETATM   34  C   UNL     1       6.433  33.783  65.075  1.00  0.00     0.201 A 
BRANCH  34  35
HETATM   35  N   UNL     1       7.636  34.349  65.259  1.00  0.00    -0.379 N 
HETATM   36  H   UNL     1       8.311  33.920  65.887  1.00  0.00     0.158 HD
HETATM   37  H   UNL     1       8.015  35.081  64.662  1.00  0.00     0.158 HD
ENDBRANCH  34  35
ENDBRANCH   2  30
TORSDOF 8
ENDMDL
MODEL 5
REMARK VINA RESULT:      -8.8      5.308      8.724
REMARK  8 active torsions:
REMARK  status: ('A' for Active; 'I' for Inactive)
REMARK    1  A    between atoms: N_5  and  C_7 
REMARK    2  A    between atoms: C_7  and  C_8 
REMARK    3  A    between atoms: N_9  and  C_10 
REMARK    4  A    between atoms: C_14  and  N_15 
REMARK    5  A    between atoms: C_18  and  C_19 
REMARK       I    between atoms: C_19  and  N_20 
REMARK    6  A    between atoms: N_20  and  N_21 
REMARK    7  A    between atoms: C_22  and  C_23 
REMARK    8  A    between atoms: C_24  and  O_25 
ROOT
HETATM    1  C   UNL     1       7.065  28.035  54.457  1.00  0.00     0.096 A 
HETATM    2  N   UNL     1       7.369  28.950  55.468  1.00  0.00    -0.215 N 
HETATM    3  N   UNL     1       6.213  29.561  55.853  1.00  0.00     0.012 NA
HETATM    4  N   UNL     1       5.222  29.162  55.075  1.00  0.00    -0.152 NA
HETATM    5  C   UNL     1       5.717  28.244  54.201  1.00  0.00     0.170 A 
ENDROOT
BRANCH   5   6
HETATM    6  C   UNL     1       4.923  27.600  53.164  1.00  0.00     0.293 C 
HETATM    7  N   UNL     1       4.624  28.426  52.097  1.00  0.00    -0.242 N 
HETATM    8  H   UNL     1       4.960  29.387  52.092  1.00  0.00     0.192 HD
HETATM    9  O   UNL     1       4.603  26.418  53.282  1.00  0.00    -0.264 OA
BRANCH   7  10
HETATM   10  N   UNL     1       3.850  27.966  51.075  1.00  0.00    -0.183 NA
HETATM   11  C   UNL     1       3.478  28.862  50.212  1.00  0.00     0.153 C 
BRANCH  11  12
HETATM   12  C   UNL     1       2.618  28.510  49.064  1.00  0.00     0.017 A 
HETATM   13  C   UNL     1       2.627  27.232  48.487  1.00  0.00     0.077 A 
HETATM   14  C   UNL     1       1.792  26.942  47.412  1.00  0.00     0.039 A 
HETATM   15  C   UNL     1       0.944  27.926  46.902  1.00  0.00     0.022 A 
HETATM   16  C   UNL     1       0.938  29.198  47.475  1.00  0.00     0.012 A 
HETATM   17 BR   UNL     1      -0.210  30.530  46.781  1.00  0.00    -0.051 Br
HETATM   18  C   UNL     1       1.769  29.498  48.554  1.00  0.00     0.034 A 
BRANCH  13  19
HETATM   19  O   UNL     1       3.428  26.216  48.931  1.00  0.00    -0.360 OA
HETATM   20  H   UNL     1       4.290  26.287  48.468  1.00  0.00     0.217 HD
ENDBRANCH  13  19
ENDBRANCH  11  12
ENDBRANCH   7  10
ENDBRANCH   5   6
BRANCH   1  21
HETATM   21  C   UNL     1       7.982  27.029  53.871  1.00  0.00     0.296 C 
BRANCH  21  22
HETATM   22  N   UNL     1       7.471  25.607  53.933  1.00  0.00    -0.066 N 
HETATM   23  C   UNL     1       7.966  24.746  52.801  1.00  0.00     0.235 C 
HETATM   24  C   UNL     1       7.340  23.362  52.884  1.00  0.00     0.032 C 
HETATM   25  C   UNL     1       7.573  22.679  54.236  1.00  0.00    -0.016 C 
HETATM   26  C   UNL     1       9.027  22.227  54.400  1.00  0.00     0.010 C 
HETATM   27  C   UNL     1       7.129  23.607  55.372  1.00  0.00     0.032 C 
HETATM   28  C   UNL     1       7.750  24.995  55.287  1.00  0.00     0.235 C 
HETATM   29  H   UNL     1       6.434  25.683  53.870  1.00  0.00     0.280 HD
ENDBRANCH  21  22
ENDBRANCH   1  21
BRANCH   2  30
HETATM   30  C   UNL     1       8.622  29.304  56.021  1.00  0.00     0.225 A 
HETATM   31  N   UNL     1       9.661  29.558  55.224  1.00  0.00    -0.081 NA
HETATM   32  O   UNL     1      10.688  29.893  56.110  1.00  0.00    -0.103 OA
HETATM   33  N   UNL     1      10.245  29.858  57.425  1.00  0.00    -0.083 NA
HETATM   34  C   UNL     1       8.965  29.497  57.370  1.00  0.00     0.201 A 
BRANCH  34  35
HETATM   35  N   UNL     1       8.171  29.349  58.442  1.00  0.00    -0.379 N 
HETATM   36  H   UNL     1       7.898  30.161  58.991  1.00  0.00     0.158 HD
HETATM   37  H   UNL     1       7.645  28.502  58.646  1.00  0.00     0.158 HD
ENDBRANCH  34  35
ENDBRANCH   2  30
TORSDOF 8
ENDMDL
MODEL 6
REMARK VINA RESULT:      -8.7      4.535      9.383
REMARK  8 active torsions:
REMARK  status: ('A' for Active; 'I' for Inactive)
REMARK    1  A    between atoms: N_5  and  C_7 
REMARK    2  A    between atoms: C_7  and  C_8 
REMARK    3  A    between atoms: N_9  and  C_10 
REMARK    4  A    between atoms: C_14  and  N_15 
REMARK    5  A    between atoms: C_18  and  C_19 
REMARK       I    between atoms: C_19  and  N_20 
REMARK    6  A    between atoms: N_20  and  N_21 
REMARK    7  A    between atoms: C_22  and  C_23 
REMARK    8  A    between atoms: C_24  and  O_25 
ROOT
HETATM    1  C   UNL     1       7.264  23.638  55.506  1.00  0.00     0.096 A 
HETATM    2  N   UNL     1       7.987  22.445  55.438  1.00  0.00    -0.215 N 
HETATM    3  N   UNL     1       8.553  22.219  56.657  1.00  0.00     0.012 NA
HETATM    4  N   UNL     1       8.317  23.248  57.452  1.00  0.00    -0.152 NA
HETATM    5  C   UNL     1       7.547  24.138  56.769  1.00  0.00     0.170 A 
ENDROOT
BRANCH   5   6
HETATM    6  C   UNL     1       7.108  25.416  57.312  1.00  0.00     0.293 C 
HETATM    7  N   UNL     1       8.125  26.339  57.460  1.00  0.00    -0.242 N 
HETATM    8  H   UNL     1       9.076  26.090  57.192  1.00  0.00     0.192 HD
HETATM    9  O   UNL     1       5.918  25.595  57.572  1.00  0.00    -0.264 OA
BRANCH   7  10
HETATM   10  N   UNL     1       7.864  27.562  57.998  1.00  0.00    -0.183 NA
HETATM   11  C   UNL     1       7.154  28.356  57.257  1.00  0.00     0.153 C 
BRANCH  11  12
HETATM   12  C   UNL     1       6.813  29.723  57.704  1.00  0.00     0.017 A 
HETATM   13  C   UNL     1       7.447  30.332  58.795  1.00  0.00     0.077 A 
HETATM   14  C   UNL     1       7.100  31.626  59.175  1.00  0.00     0.039 A 
HETATM   15  C   UNL     1       6.116  32.319  58.470  1.00  0.00     0.022 A 
HETATM   16  C   UNL     1       5.483  31.710  57.386  1.00  0.00     0.012 A 
HETATM   17 BR   UNL     1       4.147  32.651  56.433  1.00  0.00    -0.051 Br
HETATM   18  C   UNL     1       5.825  30.416  56.996  1.00  0.00     0.034 A 
BRANCH  13  19
HETATM   19  O   UNL     1       8.421  29.719  59.534  1.00  0.00    -0.360 OA
HETATM   20  H   UNL     1       8.148  28.788  59.679  1.00  0.00     0.217 HD
ENDBRANCH  13  19
ENDBRANCH  11  12
ENDBRANCH   7  10
ENDBRANCH   5   6
BRANCH   1  21
HETATM   21  C   UNL     1       6.348  24.175  54.472  1.00  0.00     0.296 C 
BRANCH  21  22
HETATM   22  N   UNL     1       6.275  25.685  54.426  1.00  0.00    -0.066 N 
HETATM   23  C   UNL     1       7.371  26.309  53.602  1.00  0.00     0.235 C 
HETATM   24  C   UNL     1       7.283  27.826  53.677  1.00  0.00     0.032 C 
HETATM   25  C   UNL     1       5.910  28.368  53.265  1.00  0.00    -0.016 C 
HETATM   26  C   UNL     1       5.683  28.250  51.755  1.00  0.00     0.010 C 
HETATM   27  C   UNL     1       4.810  27.662  54.066  1.00  0.00     0.032 C 
HETATM   28  C   UNL     1       4.900  26.144  53.997  1.00  0.00     0.235 C 
HETATM   29  H   UNL     1       6.378  25.997  55.414  1.00  0.00     0.280 HD
ENDBRANCH  21  22
ENDBRANCH   1  21
BRANCH   2  30
HETATM   30  C   UNL     1       8.211  21.584  54.339  1.00  0.00     0.225 A 
HETATM   31  N   UNL     1       8.021  22.021  53.093  1.00  0.00    -0.081 NA
HETATM   32  O   UNL     1       8.363  20.924  52.298  1.00  0.00    -0.103 OA
HETATM   33  N   UNL     1       8.776  19.851  53.076  1.00  0.00    -0.083 NA
HETATM   34  C   UNL     1       8.685  20.260  54.339  1.00  0.00     0.201 A 
BRANCH  34  35
HETATM   35  N   UNL     1       8.998  19.508  55.406  1.00  0.00    -0.379 N 
HETATM   36  H   UNL     1       9.973  19.331  55.637  1.00  0.00     0.158 HD
HETATM   37  H   UNL     1       8.336  19.254  56.136  1.00  0.00     0.158 HD
ENDBRANCH  34  35
ENDBRANCH   2  30
TORSDOF 8
ENDMDL
MODEL 7
REMARK VINA RESULT:      -8.4      6.030      9.615
REMARK  8 active torsions:
REMARK  status: ('A' for Active; 'I' for Inactive)
REMARK    1  A    between atoms: N_5  and  C_7 
REMARK    2  A    between atoms: C_7  and  C_8 
REMARK    3  A    between atoms: N_9  and  C_10 
REMARK    4  A    between atoms: C_14  and  N_15 
REMARK    5  A    between atoms: C_18  and  C_19 
REMARK       I    between atoms: C_19  and  N_20 
REMARK    6  A    between atoms: N_20  and  N_21 
REMARK    7  A    between atoms: C_22  and  C_23 
REMARK    8  A    between atoms: C_24  and  O_25 
ROOT
HETATM    1  C   UNL     1       6.655  25.065  53.879  1.00  0.00     0.096 A 
HETATM    2  N   UNL     1       7.592  24.033  53.945  1.00  0.00    -0.215 N 
HETATM    3  N   UNL     1       8.247  23.972  52.752  1.00  0.00     0.012 NA
HETATM    4  N   UNL     1       7.706  24.834  51.907  1.00  0.00    -0.152 NA
HETATM    5  C   UNL     1       6.719  25.502  52.563  1.00  0.00     0.170 A 
ENDROOT
BRANCH   5   6
HETATM    6  C   UNL     1       5.875  26.515  51.945  1.00  0.00     0.293 C 
HETATM    7  N   UNL     1       5.012  26.014  50.989  1.00  0.00    -0.242 N 
HETATM    8  H   UNL     1       5.010  25.017  50.783  1.00  0.00     0.192 HD
HETATM    9  O   UNL     1       5.961  27.688  52.306  1.00  0.00    -0.264 OA
BRANCH   7  10
HETATM   10  N   UNL     1       4.195  26.857  50.300  1.00  0.00    -0.183 NA
HETATM   11  C   UNL     1       4.560  27.114  49.081  1.00  0.00     0.153 C 
BRANCH  11  12
HETATM   12  C   UNL     1       3.780  28.030  48.223  1.00  0.00     0.017 A 
HETATM   13  C   UNL     1       2.408  27.855  47.998  1.00  0.00     0.077 A 
HETATM   14  C   UNL     1       1.709  28.749  47.190  1.00  0.00     0.039 A 
HETATM   15  C   UNL     1       2.378  29.822  46.599  1.00  0.00     0.022 A 
HETATM   16  C   UNL     1       3.744  29.993  46.821  1.00  0.00     0.012 A 
HETATM   17 BR   UNL     1       4.648  31.446  46.017  1.00  0.00    -0.051 Br
HETATM   18  C   UNL     1       4.452  29.105  47.631  1.00  0.00     0.034 A 
BRANCH  13  19
HETATM   19  O   UNL     1       1.683  26.831  48.543  1.00  0.00    -0.360 OA
HETATM   20  H   UNL     1       0.821  27.195  48.838  1.00  0.00     0.217 HD
ENDBRANCH  13  19
ENDBRANCH  11  12
ENDBRANCH   7  10
ENDBRANCH   5   6
BRANCH   1  21
HETATM   21  C   UNL     1       5.849  25.600  55.002  1.00  0.00     0.296 C 
BRANCH  21  22
HETATM   22  N   UNL     1       6.105  27.058  55.316  1.00  0.00    -0.066 N 
HETATM   23  C   UNL     1       5.360  27.545  56.530  1.00  0.00     0.235 C 
HETATM   24  C   UNL     1       5.599  29.035  56.727  1.00  0.00     0.032 C 
HETATM   25  C   UNL     1       7.085  29.398  56.813  1.00  0.00    -0.016 C 
HETATM   26  C   UNL     1       7.705  28.941  58.137  1.00  0.00     0.010 C 
HETATM   27  C   UNL     1       7.831  28.825  55.603  1.00  0.00     0.032 C 
HETATM   28  C   UNL     1       7.589  27.336  55.401  1.00  0.00     0.235 C 
HETATM   29  H   UNL     1       5.770  27.583  54.482  1.00  0.00     0.280 HD
ENDBRANCH  21  22
ENDBRANCH   1  21
BRANCH   2  30
HETATM   30  C   UNL     1       7.852  23.113  54.988  1.00  0.00     0.225 A 
HETATM   31  N   UNL     1       8.042  23.546  56.235  1.00  0.00    -0.081 NA
HETATM   32  O   UNL     1       8.237  22.374  56.971  1.00  0.00    -0.103 OA
HETATM   33  N   UNL     1       8.137  21.253  56.160  1.00  0.00    -0.083 NA
HETATM   34  C   UNL     1       7.896  21.708  54.933  1.00  0.00     0.201 A 
BRANCH  34  35
HETATM   35  N   UNL     1       7.731  20.930  53.851  1.00  0.00    -0.379 N 
HETATM   36  H   UNL     1       8.519  20.735  53.239  1.00  0.00     0.158 HD
HETATM   37  H   UNL     1       6.913  20.345  53.693  1.00  0.00     0.158 HD
ENDBRANCH  34  35
ENDBRANCH   2  30
TORSDOF 8
ENDMDL
MODEL 8
REMARK VINA RESULT:      -8.4      2.468      4.296
REMARK  8 active torsions:
REMARK  status: ('A' for Active; 'I' for Inactive)
REMARK    1  A    between atoms: N_5  and  C_7 
REMARK    2  A    between atoms: C_7  and  C_8 
REMARK    3  A    between atoms: N_9  and  C_10 
REMARK    4  A    between atoms: C_14  and  N_15 
REMARK    5  A    between atoms: C_18  and  C_19 
REMARK       I    between atoms: C_19  and  N_20 
REMARK    6  A    between atoms: N_20  and  N_21 
REMARK    7  A    between atoms: C_22  and  C_23 
REMARK    8  A    between atoms: C_24  and  O_25 
ROOT
HETATM    1  C   UNL     1       4.740  31.965  58.994  1.00  0.00     0.096 A 
HETATM    2  N   UNL     1       3.745  32.470  59.833  1.00  0.00    -0.215 N 
HETATM    3  N   UNL     1       2.640  31.683  59.709  1.00  0.00     0.012 NA
HETATM    4  N   UNL     1       2.844  30.779  58.766  1.00  0.00    -0.152 NA
HETATM    5  C   UNL     1       4.113  30.940  58.299  1.00  0.00     0.170 A 
ENDROOT
BRANCH   5   6
HETATM    6  C   UNL     1       4.690  30.141  57.228  1.00  0.00     0.293 C 
HETATM    7  N   UNL     1       4.923  28.825  57.577  1.00  0.00    -0.242 N 
HETATM    8  H   UNL     1       4.687  28.500  58.513  1.00  0.00     0.192 HD
HETATM    9  O   UNL     1       4.904  30.652  56.129  1.00  0.00    -0.264 OA
BRANCH   7  10
HETATM   10  N   UNL     1       5.501  27.974  56.684  1.00  0.00    -0.183 NA
HETATM   11  C   UNL     1       5.188  26.723  56.824  1.00  0.00     0.153 C 
BRANCH  11  12
HETATM   12  C   UNL     1       5.757  25.685  55.939  1.00  0.00     0.017 A 
HETATM   13  C   UNL     1       5.453  25.619  54.573  1.00  0.00     0.077 A 
HETATM   14  C   UNL     1       6.021  24.630  53.774  1.00  0.00     0.039 A 
HETATM   15  C   UNL     1       6.895  23.698  54.336  1.00  0.00     0.022 A 
HETATM   16  C   UNL     1       7.194  23.763  55.696  1.00  0.00     0.012 A 
HETATM   17 BR   UNL     1       8.377  22.497  56.455  1.00  0.00    -0.051 Br
HETATM   18  C   UNL     1       6.633  24.751  56.504  1.00  0.00     0.034 A 
BRANCH  13  19
HETATM   19  O   UNL     1       4.608  26.497  53.950  1.00  0.00    -0.360 OA
HETATM   20  H   UNL     1       3.845  26.654  54.547  1.00  0.00     0.217 HD
ENDBRANCH  13  19
ENDBRANCH  11  12
ENDBRANCH   7  10
ENDBRANCH   5   6
BRANCH   1  21
HETATM   21  C   UNL     1       6.156  32.398  58.943  1.00  0.00     0.296 C 
BRANCH  21  22
HETATM   22  N   UNL     1       7.105  31.526  59.736  1.00  0.00    -0.066 N 
HETATM   23  C   UNL     1       8.470  31.409  59.110  1.00  0.00     0.235 C 
HETATM   24  C   UNL     1       9.334  30.450  59.915  1.00  0.00     0.032 C 
HETATM   25  C   UNL     1       9.439  30.837  61.395  1.00  0.00    -0.016 C 
HETATM   26  C   UNL     1      10.314  32.077  61.596  1.00  0.00     0.010 C 
HETATM   27  C   UNL     1       8.038  31.022  61.985  1.00  0.00     0.032 C 
HETATM   28  C   UNL     1       7.169  31.976  61.177  1.00  0.00     0.235 C 
HETATM   29  H   UNL     1       6.662  30.584  59.757  1.00  0.00     0.280 HD
ENDBRANCH  21  22
ENDBRANCH   1  21
BRANCH   2  30
HETATM   30  C   UNL     1       3.754  33.620  60.657  1.00  0.00     0.225 A 
HETATM   31  N   UNL     1       4.170  34.791  60.171  1.00  0.00    -0.081 NA
HETATM   32  O   UNL     1       4.010  35.674  61.243  1.00  0.00    -0.103 OA
HETATM   33  N   UNL     1       3.478  35.025  62.349  1.00  0.00    -0.083 NA
HETATM   34  C   UNL     1       3.317  33.755  61.986  1.00  0.00     0.201 A 
BRANCH  34  35
HETATM   35  N   UNL     1       2.821  32.794  62.782  1.00  0.00    -0.379 N 
HETATM   36  H   UNL     1       3.351  31.942  62.944  1.00  0.00     0.158 HD
HETATM   37  H   UNL     1       2.030  32.929  63.408  1.00  0.00     0.158 HD
ENDBRANCH  34  35
ENDBRANCH   2  30
TORSDOF 8
ENDMDL
MODEL 9
REMARK VINA RESULT:      -8.4      1.873      2.736
REMARK  8 active torsions:
REMARK  status: ('A' for Active; 'I' for Inactive)
REMARK    1  A    between atoms: N_5  and  C_7 
REMARK    2  A    between atoms: C_7  and  C_8 
REMARK    3  A    between atoms: N_9  and  C_10 
REMARK    4  A    between atoms: C_14  and  N_15 
REMARK    5  A    between atoms: C_18  and  C_19 
REMARK       I    between atoms: C_19  and  N_20 
REMARK    6  A    between atoms: N_20  and  N_21 
REMARK    7  A    between atoms: C_22  and  C_23 
REMARK    8  A    between atoms: C_24  and  O_25 
ROOT
HETATM    1  C   UNL     1       7.456  30.475  58.350  1.00  0.00     0.096 A 
HETATM    2  N   UNL     1       7.874  31.299  59.396  1.00  0.00    -0.215 N 
HETATM    3  N   UNL     1       9.220  31.484  59.284  1.00  0.00     0.012 NA
HETATM    4  N   UNL     1       9.686  30.742  58.294  1.00  0.00    -0.152 NA
HETATM    5  C   UNL     1       8.633  30.101  57.718  1.00  0.00     0.170 A 
ENDROOT
BRANCH   5   6
HETATM    6  C   UNL     1       8.761  29.166  56.608  1.00  0.00     0.293 C 
HETATM    7  N   UNL     1       8.288  27.899  56.889  1.00  0.00    -0.242 N 
HETATM    8  H   UNL     1       7.892  27.698  57.806  1.00  0.00     0.192 HD
HETATM    9  O   UNL     1       9.237  29.546  55.538  1.00  0.00    -0.264 OA
BRANCH   7  10
HETATM   10  N   UNL     1       8.385  26.912  55.955  1.00  0.00    -0.183 NA
HETATM   11  C   UNL     1       7.635  25.874  56.162  1.00  0.00     0.153 C 
BRANCH  11  12
HETATM   12  C   UNL     1       7.653  24.718  55.242  1.00  0.00     0.017 A 
HETATM   13  C   UNL     1       7.624  24.871  53.850  1.00  0.00     0.077 A 
HETATM   14  C   UNL     1       7.654  23.753  53.020  1.00  0.00     0.039 A 
HETATM   15  C   UNL     1       7.710  22.474  53.576  1.00  0.00     0.022 A 
HETATM   16  C   UNL     1       7.736  22.323  54.962  1.00  0.00     0.012 A 
HETATM   17 BR   UNL     1       7.809  20.589  55.713  1.00  0.00    -0.051 Br
HETATM   18  C   UNL     1       7.709  23.437  55.802  1.00  0.00     0.034 A 
BRANCH  13  19
HETATM   19  O   UNL     1       7.571  26.089  53.231  1.00  0.00    -0.360 OA
HETATM   20  H   UNL     1       7.076  26.702  53.815  1.00  0.00     0.217 HD
ENDBRANCH  13  19
ENDBRANCH  11  12
ENDBRANCH   7  10
ENDBRANCH   5   6
BRANCH   1  21
HETATM   21  C   UNL     1       6.056  30.159  57.980  1.00  0.00     0.296 C 
BRANCH  21  22
HETATM   22  N   UNL     1       5.616  30.733  56.652  1.00  0.00    -0.066 N 
HETATM   23  C   UNL     1       4.666  29.837  55.901  1.00  0.00     0.235 C 
HETATM   24  C   UNL     1       4.342  30.441  54.542  1.00  0.00     0.032 C 
HETATM   25  C   UNL     1       3.791  31.868  54.636  1.00  0.00    -0.016 C 
HETATM   26  C   UNL     1       2.363  31.889  55.188  1.00  0.00     0.010 C 
HETATM   27  C   UNL     1       4.740  32.737  55.468  1.00  0.00     0.032 C 
HETATM   28  C   UNL     1       5.071  32.132  56.825  1.00  0.00     0.235 C 
HETATM   29  H   UNL     1       6.489  30.840  56.094  1.00  0.00     0.280 HD
ENDBRANCH  21  22
ENDBRANCH   1  21
BRANCH   2  30
HETATM   30  C   UNL     1       7.132  31.846  60.469  1.00  0.00     0.225 A 
HETATM   31  N   UNL     1       6.163  32.732  60.234  1.00  0.00    -0.081 NA
HETATM   32  O   UNL     1       5.650  33.013  61.503  1.00  0.00    -0.103 OA
HETATM   33  N   UNL     1       6.303  32.275  62.480  1.00  0.00    -0.083 NA
HETATM   34  C   UNL     1       7.218  31.550  61.841  1.00  0.00     0.201 A 
BRANCH  34  35
HETATM   35  N   UNL     1       8.064  30.695  62.438  1.00  0.00    -0.379 N 
HETATM   36  H   UNL     1       8.996  31.002  62.704  1.00  0.00     0.158 HD
HETATM   37  H   UNL     1       7.781  29.801  62.833  1.00  0.00     0.158 HD
ENDBRANCH  34  35
ENDBRANCH   2  30
TORSDOF 8
ENDMDL
MODEL 10
REMARK VINA RESULT:      -8.4      8.041     11.559
REMARK  8 active torsions:
REMARK  status: ('A' for Active; 'I' for Inactive)
REMARK    1  A    between atoms: N_5  and  C_7 
REMARK    2  A    between atoms: C_7  and  C_8 
REMARK    3  A    between atoms: N_9  and  C_10 
REMARK    4  A    between atoms: C_14  and  N_15 
REMARK    5  A    between atoms: C_18  and  C_19 
REMARK       I    between atoms: C_19  and  N_20 
REMARK    6  A    between atoms: N_20  and  N_21 
REMARK    7  A    between atoms: C_22  and  C_23 
REMARK    8  A    between atoms: C_24  and  O_25 
ROOT
HETATM    1  C   UNL     1       2.466  27.629  48.495  1.00  0.00     0.096 A 
HETATM    2  N   UNL     1       1.874  27.336  47.264  1.00  0.00    -0.215 N 
HETATM    3  N   UNL     1       2.589  26.337  46.673  1.00  0.00     0.012 NA
HETATM    4  N   UNL     1       3.651  26.059  47.408  1.00  0.00    -0.152 NA
HETATM    5  C   UNL     1       3.611  26.846  48.518  1.00  0.00     0.170 A 
ENDROOT
BRANCH   5   6
HETATM    6  C   UNL     1       4.637  26.843  49.552  1.00  0.00     0.293 C 
HETATM    7  N   UNL     1       4.552  25.771  50.419  1.00  0.00    -0.242 N 
HETATM    8  H   UNL     1       3.819  25.074  50.292  1.00  0.00     0.192 HD
HETATM    9  O   UNL     1       5.484  27.736  49.578  1.00  0.00    -0.264 OA
BRANCH   7  10
HETATM   10  N   UNL     1       5.422  25.665  51.461  1.00  0.00    -0.183 NA
HETATM   11  C   UNL     1       5.101  24.796  52.369  1.00  0.00     0.153 C 
BRANCH  11  12
HETATM   12  C   UNL     1       5.941  24.591  53.567  1.00  0.00     0.017 A 
HETATM   13  C   UNL     1       5.754  25.325  54.746  1.00  0.00     0.077 A 
HETATM   14  C   UNL     1       6.564  25.091  55.855  1.00  0.00     0.039 A 
HETATM   15  C   UNL     1       7.568  24.124  55.792  1.00  0.00     0.022 A 
HETATM   16  C   UNL     1       7.755  23.396  54.617  1.00  0.00     0.012 A 
HETATM   17 BR   UNL     1       9.118  22.088  54.535  1.00  0.00    -0.051 Br
HETATM   18  C   UNL     1       6.948  23.621  53.502  1.00  0.00     0.034 A 
BRANCH  13  19
HETATM   19  O   UNL     1       4.792  26.287  54.885  1.00  0.00    -0.360 OA
HETATM   20  H   UNL     1       5.172  27.019  55.418  1.00  0.00     0.217 HD
ENDBRANCH  13  19
ENDBRANCH  11  12
ENDBRANCH   7  10
ENDBRANCH   5   6
BRANCH   1  21
HETATM   21  C   UNL     1       1.921  28.519  49.547  1.00  0.00     0.296 C 
BRANCH  21  22
HETATM   22  N   UNL     1       2.971  29.277  50.328  1.00  0.00    -0.066 N 
HETATM   23  C   UNL     1       3.045  30.737  49.965  1.00  0.00     0.235 C 
HETATM   24  C   UNL     1       4.180  31.408  50.726  1.00  0.00     0.032 C 
HETATM   25  C   UNL     1       4.074  31.224  52.244  1.00  0.00    -0.016 C 
HETATM   26  C   UNL     1       2.939  32.063  52.839  1.00  0.00     0.010 C 
HETATM   27  C   UNL     1       3.924  29.737  52.579  1.00  0.00     0.032 C 
HETATM   28  C   UNL     1       2.794  29.062  51.814  1.00  0.00     0.235 C 
HETATM   29  H   UNL     1       3.877  28.824  50.087  1.00  0.00     0.280 HD
ENDBRANCH  21  22
ENDBRANCH   1  21
BRANCH   2  30
HETATM   30  C   UNL     1       0.771  27.946  46.622  1.00  0.00     0.225 A 
HETATM   31  N   UNL     1      -0.392  27.300  46.524  1.00  0.00    -0.081 NA
HETATM   32  O   UNL     1      -1.227  28.211  45.872  1.00  0.00    -0.103 OA
HETATM   33  N   UNL     1      -0.561  29.400  45.609  1.00  0.00    -0.083 NA
HETATM   34  C   UNL     1       0.675  29.238  46.076  1.00  0.00     0.201 A 
BRANCH  34  35
HETATM   35  N   UNL     1       1.639  30.171  46.016  1.00  0.00    -0.379 N 
HETATM   36  H   UNL     1       2.562  29.976  46.395  1.00  0.00     0.158 HD
HETATM   37  H   UNL     1       1.585  31.005  45.436  1.00  0.00     0.158 HD
ENDBRANCH  34  35
ENDBRANCH   2  30
TORSDOF 8
ENDMDL
