MODEL 1
REMARK VINA RESULT:     -10.3      0.000      0.000
REMARK  5 active torsions:
REMARK  status: ('A' for Active; 'I' for Inactive)
REMARK    1  A    between atoms: C_3  and  O_4 
REMARK    2  A    between atoms: C_6  and  N_7 
REMARK       I    between atoms: N_7  and  C_8 
REMARK    3  A    between atoms: C_8  and  C_9 
REMARK    4  A    between atoms: C_12  and  C_13 
REMARK    5  A    between atoms: C_18  and  C_19 
ROOT
HETATM    1  C   UNL     1       7.540  27.660  54.982  1.00  0.00     0.096 A 
HETATM    2  C   UNL     1       7.307  26.418  54.420  1.00  0.00     0.138 A 
HETATM    3  N   UNL     1       6.886  26.666  53.136  1.00  0.00    -0.240 N 
HETATM    4  C   UNL     1       6.503  25.645  52.179  1.00  0.00     0.221 C 
HETATM    5  C   UNL     1       7.090  24.289  52.606  1.00  0.00     0.066 C 
HETATM    6  C   UNL     1       6.853  24.036  54.105  1.00  0.00     0.118 C 
HETATM    7  N   UNL     1       7.414  25.143  54.892  1.00  0.00    -0.365 N 
HETATM    8  N   UNL     1       6.849  27.966  52.812  1.00  0.00    -0.181 NA
HETATM    9  C   UNL     1       7.205  28.571  53.949  1.00  0.00     0.160 A 
HETATM   10  H   UNL     1       7.292  24.992  55.897  1.00  0.00     0.161 HD
ENDROOT
BRANCH   1  11
HETATM   11  C   UNL     1       8.020  28.009  56.309  1.00  0.00     0.261 C 
HETATM   12  N   UNL     1       8.084  29.373  56.526  1.00  0.00    -0.323 N 
HETATM   13  H   UNL     1       7.684  29.946  55.791  1.00  0.00     0.169 HD
HETATM   14  O   UNL     1       8.277  27.134  57.126  1.00  0.00    -0.267 OA
BRANCH  12  15
HETATM   15  C   UNL     1       8.527  30.041  57.684  1.00  0.00     0.037 A 
HETATM   16  C   UNL     1       7.822  30.065  58.889  1.00  0.00     0.066 A 
HETATM   17  C   UNL     1       8.342  30.748  59.988  1.00  0.00     0.067 A 
HETATM   18  C   UNL     1       9.558  31.417  59.910  1.00  0.00     0.036 A 
HETATM   19  C   UNL     1      10.269  31.394  58.712  1.00  0.00     0.005 A 
HETATM   20  C   UNL     1       9.759  30.704  57.608  1.00  0.00     0.029 A 
BRANCH  17  21
HETATM   21  O   UNL     1       7.617  30.734  61.144  1.00  0.00    -0.361 OA
HETATM   22  H   UNL     1       6.970  31.458  61.119  1.00  0.00     0.217 HD
ENDBRANCH  17  21
ENDBRANCH  12  15
ENDBRANCH   1  11
BRANCH   4  23
HETATM   23  C   UNL     1       4.995  25.599  52.047  1.00  0.00     0.409 C 
HETATM   24  F   UNL     1       4.528  24.359  51.780  1.00  0.00    -0.169 F 
HETATM   25  F   UNL     1       4.350  26.059  53.137  1.00  0.00    -0.169 F 
HETATM   26  F   UNL     1       4.603  26.386  51.009  1.00  0.00    -0.169 F 
ENDBRANCH   4  23
BRANCH   6  27
HETATM   27  C   UNL     1       7.477  22.722  54.540  1.00  0.00    -0.035 A 
HETATM   28  C   UNL     1       7.778  21.707  53.614  1.00  0.00     0.012 A 
HETATM   29  C   UNL     1       8.321  20.494  54.042  1.00  0.00     0.043 A 
HETATM   30  C   UNL     1       8.559  20.288  55.395  1.00  0.00     0.116 A 
HETATM   31  F   UNL     1       9.075  19.122  55.804  1.00  0.00    -0.206 F 
HETATM   32  C   UNL     1       8.268  21.273  56.329  1.00  0.00     0.043 A 
HETATM   33  C   UNL     1       7.727  22.488  55.905  1.00  0.00     0.012 A 
ENDBRANCH   6  27
TORSDOF 5
ENDMDL
MODEL 2
REMARK VINA RESULT:     -10.1      3.862      6.891
REMARK  5 active torsions:
REMARK  status: ('A' for Active; 'I' for Inactive)
REMARK    1  A    between atoms: C_3  and  O_4 
REMARK    2  A    between atoms: C_6  and  N_7 
REMARK       I    between atoms: N_7  and  C_8 
REMARK    3  A    between atoms: C_8  and  C_9 
REMARK    4  A    between atoms: C_12  and  C_13 
REMARK    5  A    between atoms: C_18  and  C_19 
ROOT
HETATM    1  C   UNL     1       4.690  27.823  54.047  1.00  0.00     0.096 A 
HETATM    2  C   UNL     1       5.519  26.886  54.636  1.00  0.00     0.138 A 
HETATM    3  N   UNL     1       5.606  27.249  55.959  1.00  0.00    -0.240 N 
HETATM    4  C   UNL     1       6.399  26.556  56.956  1.00  0.00     0.221 C 
HETATM    5  C   UNL     1       6.709  25.130  56.471  1.00  0.00     0.066 C 
HETATM    6  C   UNL     1       7.190  25.140  55.009  1.00  0.00     0.118 C 
HETATM    7  N   UNL     1       6.186  25.796  54.160  1.00  0.00    -0.365 N 
HETATM    8  N   UNL     1       4.883  28.331  56.279  1.00  0.00    -0.181 NA
HETATM    9  C   UNL     1       4.361  28.704  55.107  1.00  0.00     0.160 A 
HETATM   10  H   UNL     1       6.467  25.797  53.176  1.00  0.00     0.161 HD
ENDROOT
BRANCH   1  11
HETATM   11  C   UNL     1       4.226  27.926  52.673  1.00  0.00     0.261 C 
HETATM   12  N   UNL     1       5.174  27.539  51.745  1.00  0.00    -0.323 N 
HETATM   13  H   UNL     1       6.015  27.126  52.133  1.00  0.00     0.169 HD
HETATM   14  O   UNL     1       3.079  28.281  52.431  1.00  0.00    -0.267 OA
BRANCH  12  15
HETATM   15  C   UNL     1       5.057  27.544  50.341  1.00  0.00     0.037 A 
HETATM   16  C   UNL     1       4.534  26.484  49.598  1.00  0.00     0.066 A 
HETATM   17  C   UNL     1       4.451  26.580  48.209  1.00  0.00     0.067 A 
HETATM   18  C   UNL     1       4.886  27.718  47.539  1.00  0.00     0.036 A 
HETATM   19  C   UNL     1       5.406  28.781  48.275  1.00  0.00     0.005 A 
HETATM   20  C   UNL     1       5.484  28.697  49.668  1.00  0.00     0.029 A 
BRANCH  17  21
HETATM   21  O   UNL     1       3.925  25.520  47.530  1.00  0.00    -0.361 OA
HETATM   22  H   UNL     1       3.418  24.969  48.149  1.00  0.00     0.217 HD
ENDBRANCH  17  21
ENDBRANCH  12  15
ENDBRANCH   1  11
BRANCH   4  23
HETATM   23  C   UNL     1       7.657  27.344  57.258  1.00  0.00     0.409 C 
HETATM   24  F   UNL     1       8.072  28.092  56.212  1.00  0.00    -0.169 F 
HETATM   25  F   UNL     1       7.533  28.157  58.326  1.00  0.00    -0.169 F 
HETATM   26  F   UNL     1       8.675  26.488  57.543  1.00  0.00    -0.169 F 
ENDBRANCH   4  23
BRANCH   6  27
HETATM   27  C   UNL     1       7.447  23.729  54.512  1.00  0.00    -0.035 A 
HETATM   28  C   UNL     1       7.513  22.637  55.396  1.00  0.00     0.012 A 
HETATM   29  C   UNL     1       7.785  21.352  54.920  1.00  0.00     0.043 A 
HETATM   30  C   UNL     1       7.995  21.156  53.560  1.00  0.00     0.116 A 
HETATM   31  F   UNL     1       8.261  19.925  53.105  1.00  0.00    -0.206 F 
HETATM   32  C   UNL     1       7.939  22.218  52.668  1.00  0.00     0.043 A 
HETATM   33  C   UNL     1       7.666  23.503  53.141  1.00  0.00     0.012 A 
ENDBRANCH   6  27
TORSDOF 5
ENDMDL
MODEL 3
REMARK VINA RESULT:     -10.0      4.190      7.364
REMARK  5 active torsions:
REMARK  status: ('A' for Active; 'I' for Inactive)
REMARK    1  A    between atoms: C_3  and  O_4 
REMARK    2  A    between atoms: C_6  and  N_7 
REMARK       I    between atoms: N_7  and  C_8 
REMARK    3  A    between atoms: C_8  and  C_9 
REMARK    4  A    between atoms: C_12  and  C_13 
REMARK    5  A    between atoms: C_18  and  C_19 
ROOT
HETATM    1  C   UNL     1       4.745  27.586  52.953  1.00  0.00     0.096 A 
HETATM    2  C   UNL     1       5.369  26.729  53.840  1.00  0.00     0.138 A 
HETATM    3  N   UNL     1       5.048  27.195  55.093  1.00  0.00    -0.240 N 
HETATM    4  C   UNL     1       5.512  26.611  56.337  1.00  0.00     0.221 C 
HETATM    5  C   UNL     1       5.971  25.164  56.089  1.00  0.00     0.066 C 
HETATM    6  C   UNL     1       6.870  25.080  54.843  1.00  0.00     0.118 C 
HETATM    7  N   UNL     1       6.162  25.630  53.680  1.00  0.00    -0.365 N 
HETATM    8  N   UNL     1       4.249  28.271  55.089  1.00  0.00    -0.181 NA
HETATM    9  C   UNL     1       4.100  28.534  53.787  1.00  0.00     0.160 A 
HETATM   10  H   UNL     1       6.726  25.567  52.829  1.00  0.00     0.161 HD
ENDROOT
BRANCH   1  11
HETATM   11  C   UNL     1       4.716  27.566  51.499  1.00  0.00     0.261 C 
HETATM   12  N   UNL     1       3.542  28.067  50.969  1.00  0.00    -0.323 N 
HETATM   13  H   UNL     1       2.909  28.486  51.640  1.00  0.00     0.169 HD
HETATM   14  O   UNL     1       5.690  27.180  50.865  1.00  0.00    -0.267 OA
BRANCH  12  15
HETATM   15  C   UNL     1       3.184  28.164  49.610  1.00  0.00     0.037 A 
HETATM   16  C   UNL     1       3.224  27.095  48.714  1.00  0.00     0.066 A 
HETATM   17  C   UNL     1       2.844  27.283  47.385  1.00  0.00     0.067 A 
HETATM   18  C   UNL     1       2.426  28.528  46.925  1.00  0.00     0.036 A 
HETATM   19  C   UNL     1       2.381  29.599  47.815  1.00  0.00     0.005 A 
HETATM   20  C   UNL     1       2.751  29.416  49.151  1.00  0.00     0.029 A 
BRANCH  17  21
HETATM   21  O   UNL     1       2.893  26.204  46.552  1.00  0.00    -0.361 OA
HETATM   22  H   UNL     1       2.162  26.263  45.915  1.00  0.00     0.217 HD
ENDBRANCH  17  21
ENDBRANCH  12  15
ENDBRANCH   1  11
BRANCH   4  23
HETATM   23  C   UNL     1       6.610  27.466  56.934  1.00  0.00     0.409 C 
HETATM   24  F   UNL     1       7.478  26.756  57.687  1.00  0.00    -0.169 F 
HETATM   25  F   UNL     1       7.321  28.142  56.009  1.00  0.00    -0.169 F 
HETATM   26  F   UNL     1       6.065  28.402  57.757  1.00  0.00    -0.169 F 
ENDBRANCH   4  23
BRANCH   6  27
HETATM   27  C   UNL     1       7.283  23.645  54.567  1.00  0.00    -0.035 A 
HETATM   28  C   UNL     1       7.447  22.713  55.607  1.00  0.00     0.012 A 
HETATM   29  C   UNL     1       7.860  21.407  55.332  1.00  0.00     0.043 A 
HETATM   30  C   UNL     1       8.115  21.031  54.019  1.00  0.00     0.116 A 
HETATM   31  F   UNL     1       8.516  19.781  53.757  1.00  0.00    -0.206 F 
HETATM   32  C   UNL     1       7.963  21.933  52.975  1.00  0.00     0.043 A 
HETATM   33  C   UNL     1       7.549  23.239  53.247  1.00  0.00     0.012 A 
ENDBRANCH   6  27
TORSDOF 5
ENDMDL
MODEL 4
REMARK VINA RESULT:      -9.4      2.115      5.019
REMARK  5 active torsions:
REMARK  status: ('A' for Active; 'I' for Inactive)
REMARK    1  A    between atoms: C_3  and  O_4 
REMARK    2  A    between atoms: C_6  and  N_7 
REMARK       I    between atoms: N_7  and  C_8 
REMARK    3  A    between atoms: C_8  and  C_9 
REMARK    4  A    between atoms: C_12  and  C_13 
REMARK    5  A    between atoms: C_18  and  C_19 
ROOT
HETATM    1  C   UNL     1       7.531  26.976  56.227  1.00  0.00     0.096 A 
HETATM    2  C   UNL     1       7.021  26.407  55.075  1.00  0.00     0.138 A 
HETATM    3  N   UNL     1       6.799  25.086  55.382  1.00  0.00    -0.240 N 
HETATM    4  C   UNL     1       6.285  24.096  54.455  1.00  0.00     0.221 C 
HETATM    5  C   UNL     1       5.576  24.801  53.286  1.00  0.00     0.066 C 
HETATM    6  C   UNL     1       6.429  25.961  52.745  1.00  0.00     0.118 C 
HETATM    7  N   UNL     1       6.745  26.897  53.833  1.00  0.00    -0.365 N 
HETATM    8  N   UNL     1       7.102  24.759  56.646  1.00  0.00    -0.181 NA
HETATM    9  C   UNL     1       7.588  25.898  57.146  1.00  0.00     0.160 A 
HETATM   10  H   UNL     1       7.293  27.694  53.499  1.00  0.00     0.161 HD
ENDROOT
BRANCH   1  11
HETATM   11  C   UNL     1       7.928  28.349  56.494  1.00  0.00     0.261 C 
HETATM   12  N   UNL     1       8.057  28.630  57.841  1.00  0.00    -0.323 N 
HETATM   13  H   UNL     1       7.978  27.829  58.458  1.00  0.00     0.169 HD
HETATM   14  O   UNL     1       8.159  29.118  55.570  1.00  0.00    -0.267 OA
BRANCH  12  15
HETATM   15  C   UNL     1       8.399  29.860  58.436  1.00  0.00     0.037 A 
HETATM   16  C   UNL     1       7.518  30.630  59.198  1.00  0.00     0.066 A 
HETATM   17  C   UNL     1       7.946  31.834  59.755  1.00  0.00     0.067 A 
HETATM   18  C   UNL     1       9.244  32.294  59.563  1.00  0.00     0.036 A 
HETATM   19  C   UNL     1      10.130  31.529  58.807  1.00  0.00     0.005 A 
HETATM   20  C   UNL     1       9.711  30.316  58.253  1.00  0.00     0.029 A 
BRANCH  17  21
HETATM   21  O   UNL     1       7.049  32.545  60.497  1.00  0.00    -0.361 OA
HETATM   22  H   UNL     1       7.508  32.935  61.259  1.00  0.00     0.217 HD
ENDBRANCH  17  21
ENDBRANCH  12  15
ENDBRANCH   1  11
BRANCH   4  23
HETATM   23  C   UNL     1       7.408  23.197  53.982  1.00  0.00     0.409 C 
HETATM   24  F   UNL     1       7.234  22.759  52.717  1.00  0.00    -0.169 F 
HETATM   25  F   UNL     1       8.623  23.777  54.058  1.00  0.00    -0.169 F 
HETATM   26  F   UNL     1       7.465  22.087  54.767  1.00  0.00    -0.169 F 
ENDBRANCH   4  23
BRANCH   6  27
HETATM   27  C   UNL     1       5.709  26.691  51.626  1.00  0.00    -0.035 A 
HETATM   28  C   UNL     1       5.129  25.997  50.548  1.00  0.00     0.012 A 
HETATM   29  C   UNL     1       4.500  26.692  49.512  1.00  0.00     0.043 A 
HETATM   30  C   UNL     1       4.453  28.080  49.548  1.00  0.00     0.116 A 
HETATM   31  F   UNL     1       3.854  28.745  48.552  1.00  0.00    -0.206 F 
HETATM   32  C   UNL     1       5.020  28.788  50.599  1.00  0.00     0.043 A 
HETATM   33  C   UNL     1       5.648  28.096  51.637  1.00  0.00     0.012 A 
ENDBRANCH   6  27
TORSDOF 5
ENDMDL
MODEL 5
REMARK VINA RESULT:      -9.0      3.534      7.466
REMARK  5 active torsions:
REMARK  status: ('A' for Active; 'I' for Inactive)
REMARK    1  A    between atoms: C_3  and  O_4 
REMARK    2  A    between atoms: C_6  and  N_7 
REMARK       I    between atoms: N_7  and  C_8 
REMARK    3  A    between atoms: C_8  and  C_9 
REMARK    4  A    between atoms: C_12  and  C_13 
REMARK    5  A    between atoms: C_18  and  C_19 
ROOT
HETATM    1  C   UNL     1       7.488  26.100  56.398  1.00  0.00     0.096 A 
HETATM    2  C   UNL     1       6.726  26.880  55.547  1.00  0.00     0.138 A 
HETATM    3  N   UNL     1       6.477  28.043  56.235  1.00  0.00    -0.240 N 
HETATM    4  C   UNL     1       5.686  29.149  55.732  1.00  0.00     0.221 C 
HETATM    5  C   UNL     1       5.592  29.062  54.199  1.00  0.00     0.066 C 
HETATM    6  C   UNL     1       5.248  27.631  53.751  1.00  0.00     0.118 C 
HETATM    7  N   UNL     1       6.239  26.689  54.288  1.00  0.00    -0.365 N 
HETATM    8  N   UNL     1       7.036  28.090  57.453  1.00  0.00    -0.181 NA
HETATM    9  C   UNL     1       7.613  26.891  57.568  1.00  0.00     0.160 A 
HETATM   10  H   UNL     1       6.050  25.730  53.987  1.00  0.00     0.161 HD
ENDROOT
BRANCH   1  11
HETATM   11  C   UNL     1       8.058  24.778  56.193  1.00  0.00     0.261 C 
HETATM   12  N   UNL     1       7.490  24.095  55.134  1.00  0.00    -0.323 N 
HETATM   13  H   UNL     1       6.844  24.635  54.570  1.00  0.00     0.169 HD
HETATM   14  O   UNL     1       8.984  24.388  56.893  1.00  0.00    -0.267 OA
BRANCH  12  15
HETATM   15  C   UNL     1       7.792  22.793  54.689  1.00  0.00     0.037 A 
HETATM   16  C   UNL     1       8.129  21.737  55.536  1.00  0.00     0.066 A 
HETATM   17  C   UNL     1       8.406  20.478  55.005  1.00  0.00     0.067 A 
HETATM   18  C   UNL     1       8.358  20.248  53.634  1.00  0.00     0.036 A 
HETATM   19  C   UNL     1       8.018  21.297  52.782  1.00  0.00     0.005 A 
HETATM   20  C   UNL     1       7.730  22.561  53.308  1.00  0.00     0.029 A 
BRANCH  17  21
HETATM   21  O   UNL     1       8.723  19.477  55.877  1.00  0.00    -0.361 OA
HETATM   22  H   UNL     1       8.505  18.623  55.469  1.00  0.00     0.217 HD
ENDBRANCH  17  21
ENDBRANCH  12  15
ENDBRANCH   1  11
BRANCH   4  23
HETATM   23  C   UNL     1       4.321  29.152  56.389  1.00  0.00     0.409 C 
HETATM   24  F   UNL     1       3.806  27.911  56.536  1.00  0.00    -0.169 F 
HETATM   25  F   UNL     1       4.313  29.750  57.597  1.00  0.00    -0.169 F 
HETATM   26  F   UNL     1       3.442  29.842  55.613  1.00  0.00    -0.169 F 
ENDBRANCH   4  23
BRANCH   6  27
HETATM   27  C   UNL     1       5.205  27.531  52.236  1.00  0.00    -0.035 A 
HETATM   28  C   UNL     1       5.262  28.676  51.421  1.00  0.00     0.012 A 
HETATM   29  C   UNL     1       5.188  28.562  50.031  1.00  0.00     0.043 A 
HETATM   30  C   UNL     1       5.052  27.306  49.452  1.00  0.00     0.116 A 
HETATM   31  F   UNL     1       4.975  27.199  48.120  1.00  0.00    -0.206 F 
HETATM   32  C   UNL     1       4.990  26.162  50.235  1.00  0.00     0.043 A 
HETATM   33  C   UNL     1       5.066  26.272  51.625  1.00  0.00     0.012 A 
ENDBRANCH   6  27
TORSDOF 5
ENDMDL
MODEL 6
REMARK VINA RESULT:      -9.0      3.455      7.649
REMARK  5 active torsions:
REMARK  status: ('A' for Active; 'I' for Inactive)
REMARK    1  A    between atoms: C_3  and  O_4 
REMARK    2  A    between atoms: C_6  and  N_7 
REMARK       I    between atoms: N_7  and  C_8 
REMARK    3  A    between atoms: C_8  and  C_9 
REMARK    4  A    between atoms: C_12  and  C_13 
REMARK    5  A    between atoms: C_18  and  C_19 
ROOT
HETATM    1  C   UNL     1       6.077  25.634  53.475  1.00  0.00     0.096 A 
HETATM    2  C   UNL     1       6.039  26.860  54.112  1.00  0.00     0.138 A 
HETATM    3  N   UNL     1       4.784  27.365  53.868  1.00  0.00    -0.240 N 
HETATM    4  C   UNL     1       4.307  28.655  54.329  1.00  0.00     0.221 C 
HETATM    5  C   UNL     1       5.175  29.137  55.503  1.00  0.00     0.066 C 
HETATM    6  C   UNL     1       6.670  28.963  55.189  1.00  0.00     0.118 C 
HETATM    7  N   UNL     1       6.948  27.560  54.850  1.00  0.00    -0.365 N 
HETATM    8  N   UNL     1       3.999  26.555  53.143  1.00  0.00    -0.181 NA
HETATM    9  C   UNL     1       4.801  25.522  52.868  1.00  0.00     0.160 A 
HETATM   10  H   UNL     1       7.941  27.407  54.658  1.00  0.00     0.161 HD
ENDROOT
BRANCH   1  11
HETATM   11  C   UNL     1       7.143  24.647  53.412  1.00  0.00     0.261 C 
HETATM   12  N   UNL     1       6.789  23.423  53.947  1.00  0.00    -0.323 N 
HETATM   13  H   UNL     1       5.812  23.331  54.202  1.00  0.00     0.169 HD
HETATM   14  O   UNL     1       8.211  24.921  52.878  1.00  0.00    -0.267 OA
BRANCH  12  15
HETATM   15  C   UNL     1       7.589  22.270  54.065  1.00  0.00     0.037 A 
HETATM   16  C   UNL     1       8.130  21.816  55.269  1.00  0.00     0.066 A 
HETATM   17  C   UNL     1       8.907  20.658  55.292  1.00  0.00     0.067 A 
HETATM   18  C   UNL     1       9.163  19.940  54.129  1.00  0.00     0.036 A 
HETATM   19  C   UNL     1       8.623  20.385  52.924  1.00  0.00     0.005 A 
HETATM   20  C   UNL     1       7.835  21.540  52.894  1.00  0.00     0.029 A 
BRANCH  17  21
HETATM   21  O   UNL     1       9.406  20.253  56.495  1.00  0.00    -0.361 OA
HETATM   22  H   UNL     1      10.353  20.470  56.534  1.00  0.00     0.217 HD
ENDBRANCH  17  21
ENDBRANCH  12  15
ENDBRANCH   1  11
BRANCH   4  23
HETATM   23  C   UNL     1       4.295  29.644  53.182  1.00  0.00     0.409 C 
HETATM   24  F   UNL     1       5.296  29.436  52.299  1.00  0.00    -0.169 F 
HETATM   25  F   UNL     1       3.133  29.653  52.498  1.00  0.00    -0.169 F 
HETATM   26  F   UNL     1       4.466  30.904  53.664  1.00  0.00    -0.169 F 
ENDBRANCH   4  23
BRANCH   6  27
HETATM   27  C   UNL     1       7.528  29.390  56.366  1.00  0.00    -0.035 A 
HETATM   28  C   UNL     1       8.932  29.334  56.314  1.00  0.00     0.012 A 
HETATM   29  C   UNL     1       9.700  29.701  57.421  1.00  0.00     0.043 A 
HETATM   30  C   UNL     1       9.067  30.120  58.585  1.00  0.00     0.116 A 
HETATM   31  F   UNL     1       9.804  30.466  59.648  1.00  0.00    -0.206 F 
HETATM   32  C   UNL     1       7.683  30.181  58.663  1.00  0.00     0.043 A 
HETATM   33  C   UNL     1       6.913  29.817  57.557  1.00  0.00     0.012 A 
ENDBRANCH   6  27
TORSDOF 5
ENDMDL
MODEL 7
REMARK VINA RESULT:      -9.0      5.374     10.377
REMARK  5 active torsions:
REMARK  status: ('A' for Active; 'I' for Inactive)
REMARK    1  A    between atoms: C_3  and  O_4 
REMARK    2  A    between atoms: C_6  and  N_7 
REMARK       I    between atoms: N_7  and  C_8 
REMARK    3  A    between atoms: C_8  and  C_9 
REMARK    4  A    between atoms: C_12  and  C_13 
REMARK    5  A    between atoms: C_18  and  C_19 
ROOT
HETATM    1  C   UNL     1       7.719  29.784  58.003  1.00  0.00     0.096 A 
HETATM    2  C   UNL     1       7.461  30.752  58.956  1.00  0.00     0.138 A 
HETATM    3  N   UNL     1       8.684  31.293  59.275  1.00  0.00    -0.240 N 
HETATM    4  C   UNL     1       8.895  32.336  60.261  1.00  0.00     0.221 C 
HETATM    5  C   UNL     1       7.573  33.078  60.520  1.00  0.00     0.066 C 
HETATM    6  C   UNL     1       6.416  32.084  60.720  1.00  0.00     0.118 C 
HETATM    7  N   UNL     1       6.318  31.193  59.557  1.00  0.00    -0.365 N 
HETATM    8  N   UNL     1       9.710  30.769  58.590  1.00  0.00    -0.181 NA
HETATM    9  C   UNL     1       9.128  29.823  57.849  1.00  0.00     0.160 A 
HETATM   10  H   UNL     1       5.541  30.534  59.650  1.00  0.00     0.161 HD
ENDROOT
BRANCH   1  11
HETATM   11  C   UNL     1       6.804  28.909  57.290  1.00  0.00     0.261 C 
HETATM   12  N   UNL     1       7.445  27.981  56.491  1.00  0.00    -0.323 N 
HETATM   13  H   UNL     1       8.454  27.948  56.592  1.00  0.00     0.169 HD
HETATM   14  O   UNL     1       5.595  29.002  57.463  1.00  0.00    -0.267 OA
BRANCH  12  15
HETATM   15  C   UNL     1       6.857  27.011  55.656  1.00  0.00     0.037 A 
HETATM   16  C   UNL     1       5.737  27.245  54.857  1.00  0.00     0.066 A 
HETATM   17  C   UNL     1       5.227  26.225  54.055  1.00  0.00     0.067 A 
HETATM   18  C   UNL     1       5.812  24.963  54.035  1.00  0.00     0.036 A 
HETATM   19  C   UNL     1       6.934  24.724  54.827  1.00  0.00     0.005 A 
HETATM   20  C   UNL     1       7.457  25.744  55.627  1.00  0.00     0.029 A 
BRANCH  17  21
HETATM   21  O   UNL     1       4.135  26.507  53.287  1.00  0.00    -0.361 OA
HETATM   22  H   UNL     1       4.261  27.373  52.866  1.00  0.00     0.217 HD
ENDBRANCH  17  21
ENDBRANCH  12  15
ENDBRANCH   1  11
BRANCH   4  23
HETATM   23  C   UNL     1       9.476  31.743  61.527  1.00  0.00     0.409 C 
HETATM   24  F   UNL     1       8.950  32.281  62.649  1.00  0.00    -0.169 F 
HETATM   25  F   UNL     1       9.333  30.404  61.603  1.00  0.00    -0.169 F 
HETATM   26  F   UNL     1      10.813  31.989  61.576  1.00  0.00    -0.169 F 
ENDBRANCH   4  23
BRANCH   6  27
HETATM   27  C   UNL     1       5.101  32.815  60.925  1.00  0.00    -0.035 A 
HETATM   28  C   UNL     1       4.528  32.956  62.202  1.00  0.00     0.012 A 
HETATM   29  C   UNL     1       3.301  33.604  62.363  1.00  0.00     0.043 A 
HETATM   30  C   UNL     1       2.640  34.106  61.248  1.00  0.00     0.116 A 
HETATM   31  F   UNL     1       1.461  34.721  61.403  1.00  0.00    -0.206 F 
HETATM   32  C   UNL     1       3.183  33.976  59.977  1.00  0.00     0.043 A 
HETATM   33  C   UNL     1       4.410  33.331  59.814  1.00  0.00     0.012 A 
ENDBRANCH   6  27
TORSDOF 5
ENDMDL
MODEL 8
REMARK VINA RESULT:      -9.0      2.426      3.521
REMARK  5 active torsions:
REMARK  status: ('A' for Active; 'I' for Inactive)
REMARK    1  A    between atoms: C_3  and  O_4 
REMARK    2  A    between atoms: C_6  and  N_7 
REMARK       I    between atoms: N_7  and  C_8 
REMARK    3  A    between atoms: C_8  and  C_9 
REMARK    4  A    between atoms: C_12  and  C_13 
REMARK    5  A    between atoms: C_18  and  C_19 
ROOT
HETATM    1  C   UNL     1       6.641  30.030  57.176  1.00  0.00     0.096 A 
HETATM    2  C   UNL     1       6.510  28.955  56.316  1.00  0.00     0.138 A 
HETATM    3  N   UNL     1       5.861  29.445  55.208  1.00  0.00    -0.240 N 
HETATM    4  C   UNL     1       5.489  28.654  54.050  1.00  0.00     0.221 C 
HETATM    5  C   UNL     1       6.329  27.367  54.011  1.00  0.00     0.066 C 
HETATM    6  C   UNL     1       6.368  26.695  55.395  1.00  0.00     0.118 C 
HETATM    7  N   UNL     1       6.876  27.644  56.395  1.00  0.00    -0.365 N 
HETATM    8  N   UNL     1       5.583  30.755  55.270  1.00  0.00    -0.181 NA
HETATM    9  C   UNL     1       6.018  31.100  56.485  1.00  0.00     0.160 A 
HETATM   10  H   UNL     1       6.936  27.218  57.324  1.00  0.00     0.161 HD
ENDROOT
BRANCH   1  11
HETATM   11  C   UNL     1       7.265  30.107  58.487  1.00  0.00     0.261 C 
HETATM   12  N   UNL     1       6.868  31.210  59.219  1.00  0.00    -0.323 N 
HETATM   13  H   UNL     1       6.117  31.752  58.807  1.00  0.00     0.169 HD
HETATM   14  O   UNL     1       8.021  29.221  58.866  1.00  0.00    -0.267 OA
BRANCH  12  15
HETATM   15  C   UNL     1       7.299  31.591  60.504  1.00  0.00     0.037 A 
HETATM   16  C   UNL     1       6.436  31.925  61.549  1.00  0.00     0.066 A 
HETATM   17  C   UNL     1       6.954  32.286  62.793  1.00  0.00     0.067 A 
HETATM   18  C   UNL     1       8.326  32.326  63.017  1.00  0.00     0.036 A 
HETATM   19  C   UNL     1       9.193  31.990  61.980  1.00  0.00     0.005 A 
HETATM   20  C   UNL     1       8.682  31.618  60.732  1.00  0.00     0.029 A 
BRANCH  17  21
HETATM   21  O   UNL     1       6.068  32.596  63.783  1.00  0.00    -0.361 OA
HETATM   22  H   UNL     1       5.170  32.600  63.413  1.00  0.00     0.217 HD
ENDBRANCH  17  21
ENDBRANCH  12  15
ENDBRANCH   1  11
BRANCH   4  23
HETATM   23  C   UNL     1       4.002  28.366  54.076  1.00  0.00     0.409 C 
HETATM   24  F   UNL     1       3.267  29.346  53.507  1.00  0.00    -0.169 F 
HETATM   25  F   UNL     1       3.675  27.202  53.481  1.00  0.00    -0.169 F 
HETATM   26  F   UNL     1       3.578  28.269  55.366  1.00  0.00    -0.169 F 
ENDBRANCH   4  23
BRANCH   6  27
HETATM   27  C   UNL     1       7.240  25.452  55.371  1.00  0.00    -0.035 A 
HETATM   28  C   UNL     1       8.043  25.095  56.469  1.00  0.00     0.012 A 
HETATM   29  C   UNL     1       8.862  23.965  56.412  1.00  0.00     0.043 A 
HETATM   30  C   UNL     1       8.885  23.192  55.258  1.00  0.00     0.116 A 
HETATM   31  F   UNL     1       9.675  22.112  55.203  1.00  0.00    -0.206 F 
HETATM   32  C   UNL     1       8.104  23.525  54.160  1.00  0.00     0.043 A 
HETATM   33  C   UNL     1       7.282  24.653  54.214  1.00  0.00     0.012 A 
ENDBRANCH   6  27
TORSDOF 5
ENDMDL
MODEL 9
REMARK VINA RESULT:      -8.9      4.638      9.127
REMARK  5 active torsions:
REMARK  status: ('A' for Active; 'I' for Inactive)
REMARK    1  A    between atoms: C_3  and  O_4 
REMARK    2  A    between atoms: C_6  and  N_7 
REMARK       I    between atoms: N_7  and  C_8 
REMARK    3  A    between atoms: C_8  and  C_9 
REMARK    4  A    between atoms: C_12  and  C_13 
REMARK    5  A    between atoms: C_18  and  C_19 
ROOT
HETATM    1  C   UNL     1       5.489  29.003  57.002  1.00  0.00     0.096 A 
HETATM    2  C   UNL     1       5.423  30.169  57.741  1.00  0.00     0.138 A 
HETATM    3  N   UNL     1       4.271  30.800  57.335  1.00  0.00    -0.240 N 
HETATM    4  C   UNL     1       3.811  32.082  57.833  1.00  0.00     0.221 C 
HETATM    5  C   UNL     1       4.484  32.385  59.182  1.00  0.00     0.066 C 
HETATM    6  C   UNL     1       5.996  32.109  59.115  1.00  0.00     0.118 C 
HETATM    7  N   UNL     1       6.231  30.722  58.691  1.00  0.00    -0.365 N 
HETATM    8  N   UNL     1       3.575  30.126  56.409  1.00  0.00    -0.181 NA
HETATM    9  C   UNL     1       4.338  29.055  56.175  1.00  0.00     0.160 A 
HETATM   10  H   UNL     1       7.229  30.500  58.659  1.00  0.00     0.161 HD
ENDROOT
BRANCH   1  11
HETATM   11  C   UNL     1       6.477  27.936  57.026  1.00  0.00     0.261 C 
HETATM   12  N   UNL     1       6.196  26.910  56.143  1.00  0.00    -0.323 N 
HETATM   13  H   UNL     1       5.418  27.081  55.516  1.00  0.00     0.169 HD
HETATM   14  O   UNL     1       7.465  28.023  57.743  1.00  0.00    -0.267 OA
BRANCH  12  15
HETATM   15  C   UNL     1       6.930  25.725  55.939  1.00  0.00     0.037 A 
HETATM   16  C   UNL     1       7.286  24.842  56.960  1.00  0.00     0.066 A 
HETATM   17  C   UNL     1       8.008  23.687  56.662  1.00  0.00     0.067 A 
HETATM   18  C   UNL     1       8.391  23.394  55.358  1.00  0.00     0.036 A 
HETATM   19  C   UNL     1       8.036  24.268  54.334  1.00  0.00     0.005 A 
HETATM   20  C   UNL     1       7.304  25.424  54.622  1.00  0.00     0.029 A 
BRANCH  17  21
HETATM   21  O   UNL     1       8.325  22.854  57.695  1.00  0.00    -0.361 OA
HETATM   22  H   UNL     1       8.130  23.303  58.534  1.00  0.00     0.217 HD
ENDBRANCH  17  21
ENDBRANCH  12  15
ENDBRANCH   1  11
BRANCH   4  23
HETATM   23  C   UNL     1       4.076  33.163  56.806  1.00  0.00     0.409 C 
HETATM   24  F   UNL     1       5.170  32.916  56.053  1.00  0.00    -0.169 F 
HETATM   25  F   UNL     1       3.037  33.371  55.972  1.00  0.00    -0.169 F 
HETATM   26  F   UNL     1       4.304  34.347  57.436  1.00  0.00    -0.169 F 
ENDBRANCH   4  23
BRANCH   6  27
HETATM   27  C   UNL     1       6.655  32.358  60.460  1.00  0.00    -0.035 A 
HETATM   28  C   UNL     1       7.846  31.706  60.828  1.00  0.00     0.012 A 
HETATM   29  C   UNL     1       8.416  31.925  62.084  1.00  0.00     0.043 A 
HETATM   30  C   UNL     1       7.797  32.792  62.977  1.00  0.00     0.116 A 
HETATM   31  F   UNL     1       8.342  32.997  64.182  1.00  0.00    -0.206 F 
HETATM   32  C   UNL     1       6.620  33.445  62.637  1.00  0.00     0.043 A 
HETATM   33  C   UNL     1       6.048  33.229  61.382  1.00  0.00     0.012 A 
ENDBRANCH   6  27
TORSDOF 5
ENDMDL
MODEL 10
REMARK VINA RESULT:      -8.9      4.383      8.257
REMARK  5 active torsions:
REMARK  status: ('A' for Active; 'I' for Inactive)
REMARK    1  A    between atoms: C_3  and  O_4 
REMARK    2  A    between atoms: C_6  and  N_7 
REMARK       I    between atoms: N_7  and  C_8 
REMARK    3  A    between atoms: C_8  and  C_9 
REMARK    4  A    between atoms: C_12  and  C_13 
REMARK    5  A    between atoms: C_18  and  C_19 
ROOT
HETATM    1  C   UNL     1       6.235  26.170  54.479  1.00  0.00     0.096 A 
HETATM    2  C   UNL     1       5.496  27.170  53.875  1.00  0.00     0.138 A 
HETATM    3  N   UNL     1       5.713  28.298  54.630  1.00  0.00    -0.240 N 
HETATM    4  C   UNL     1       5.111  29.593  54.375  1.00  0.00     0.221 C 
HETATM    5  C   UNL     1       4.621  29.658  52.918  1.00  0.00     0.066 C 
HETATM    6  C   UNL     1       3.844  28.384  52.543  1.00  0.00     0.118 C 
HETATM    7  N   UNL     1       4.681  27.201  52.782  1.00  0.00    -0.365 N 
HETATM    8  N   UNL     1       6.550  28.115  55.660  1.00  0.00    -0.181 NA
HETATM    9  C   UNL     1       6.833  26.812  55.594  1.00  0.00     0.160 A 
HETATM   10  H   UNL     1       4.199  26.338  52.519  1.00  0.00     0.161 HD
ENDROOT
BRANCH   1  11
HETATM   11  C   UNL     1       6.402  24.776  54.104  1.00  0.00     0.261 C 
HETATM   12  N   UNL     1       7.249  24.080  54.946  1.00  0.00    -0.323 N 
HETATM   13  H   UNL     1       7.548  24.587  55.772  1.00  0.00     0.169 HD
HETATM   14  O   UNL     1       5.785  24.311  53.154  1.00  0.00    -0.267 OA
BRANCH  12  15
HETATM   15  C   UNL     1       7.643  22.731  54.849  1.00  0.00     0.037 A 
HETATM   16  C   UNL     1       7.728  22.027  53.647  1.00  0.00     0.066 A 
HETATM   17  C   UNL     1       8.134  20.693  53.647  1.00  0.00     0.067 A 
HETATM   18  C   UNL     1       8.455  20.038  54.831  1.00  0.00     0.036 A 
HETATM   19  C   UNL     1       8.376  20.736  56.034  1.00  0.00     0.005 A 
HETATM   20  C   UNL     1       7.978  22.076  56.042  1.00  0.00     0.029 A 
BRANCH  17  21
HETATM   21  O   UNL     1       8.208  20.053  52.444  1.00  0.00    -0.361 OA
HETATM   22  H   UNL     1       7.323  19.734  52.202  1.00  0.00     0.217 HD
ENDBRANCH  17  21
ENDBRANCH  12  15
ENDBRANCH   1  11
BRANCH   4  23
HETATM   23  C   UNL     1       3.994  29.849  55.365  1.00  0.00     0.409 C 
HETATM   24  F   UNL     1       2.968  30.547  54.831  1.00  0.00    -0.169 F 
HETATM   25  F   UNL     1       3.491  28.720  55.904  1.00  0.00    -0.169 F 
HETATM   26  F   UNL     1       4.465  30.593  56.402  1.00  0.00    -0.169 F 
ENDBRANCH   4  23
BRANCH   6  27
HETATM   27  C   UNL     1       3.404  28.423  51.090  1.00  0.00    -0.035 A 
HETATM   28  C   UNL     1       2.210  29.055  50.699  1.00  0.00     0.012 A 
HETATM   29  C   UNL     1       1.809  29.050  49.361  1.00  0.00     0.043 A 
HETATM   30  C   UNL     1       2.596  28.409  48.412  1.00  0.00     0.116 A 
HETATM   31  F   UNL     1       2.207  28.400  47.131  1.00  0.00    -0.206 F 
HETATM   32  C   UNL     1       3.777  27.776  48.774  1.00  0.00     0.043 A 
HETATM   33  C   UNL     1       4.182  27.781  50.110  1.00  0.00     0.012 A 
ENDBRANCH   6  27
TORSDOF 5
ENDMDL
