MODEL 1
REMARK VINA RESULT:     -11.3      0.000      0.000
REMARK  8 active torsions:
REMARK  status: ('A' for Active; 'I' for Inactive)
REMARK    1  A    between atoms: C_6  and  S_7 
REMARK    2  A    between atoms: S_7  and  C_8 
REMARK    3  A    between atoms: C_8  and  C_9 
REMARK       I    between atoms: C_9  and  N_10 
REMARK    4  A    between atoms: N_10  and  C_11 
REMARK    5  A    between atoms: C_24  and  C_25 
REMARK    6  A    between atoms: C_25  and  C_26 
REMARK       I    between atoms: C_26  and  N_27 
REMARK    7  A    between atoms: N_27  and  C_28 
REMARK    8  A    between atoms: C_28  and  C_29 
ROOT
HETATM    1  C   UNL     1      10.782  29.707  56.919  1.00  0.00     0.001 A 
HETATM    2  C   UNL     1       9.622  29.317  56.251  1.00  0.00     0.018 A 
HETATM    3  C   UNL     1       8.382  29.731  56.742  1.00  0.00     0.039 A 
HETATM    4  C   UNL     1       8.278  30.527  57.884  1.00  0.00     0.073 A 
HETATM    5  N   UNL     1       7.041  30.964  58.379  1.00  0.00    -0.223 NA
HETATM    6  C   UNL     1       5.964  30.606  57.759  1.00  0.00     0.178 A 
HETATM    7  N   UNL     1       5.967  29.813  56.619  1.00  0.00    -0.241 N 
HETATM    8  C   UNL     1       7.129  29.364  56.082  1.00  0.00     0.147 A 
HETATM    9  N   UNL     1       7.054  28.627  55.020  1.00  0.00    -0.256 NA
HETATM   10  C   UNL     1       4.937  29.309  55.852  1.00  0.00     0.257 A 
HETATM   11  O   UNL     1       3.733  29.355  56.043  1.00  0.00    -0.270 OA
HETATM   12  C   UNL     1       5.602  28.578  54.698  1.00  0.00     0.211 A 
HETATM   13  C   UNL     1       9.446  30.908  58.544  1.00  0.00     0.032 A 
HETATM   14  C   UNL     1      10.694  30.501  58.064  1.00  0.00     0.002 A 
ENDROOT
BRANCH  12  15
HETATM   15  C   UNL     1       5.123  27.137  54.614  1.00  0.00     0.140 C 
BRANCH  15  16
HETATM   16  C   UNL     1       5.682  26.302  55.744  1.00  0.00     0.220 C 
HETATM   17  N   UNL     1       6.921  25.770  55.456  1.00  0.00    -0.357 N 
HETATM   18  H   UNL     1       7.480  26.222  54.745  1.00  0.00     0.162 HD
HETATM   19  O   UNL     1       5.115  26.139  56.819  1.00  0.00    -0.274 OA
BRANCH  17  20
HETATM   20  C   UNL     1       7.598  24.932  56.420  1.00  0.00     0.161 C 
BRANCH  20  21
HETATM   21  C   UNL     1       7.872  23.527  55.932  1.00  0.00    -0.038 A 
HETATM   22  C   UNL     1       7.752  23.271  54.553  1.00  0.00     0.048 A 
HETATM   23  C   UNL     1       8.045  22.006  54.089  1.00  0.00     0.105 A 
HETATM   24  C   UNL     1       8.444  20.999  54.934  1.00  0.00     0.105 A 
HETATM   25  O   UNL     1       7.993  21.604  52.791  1.00  0.00    -0.323 OA
HETATM   26  O   UNL     1       8.687  19.834  54.276  1.00  0.00    -0.323 OA
HETATM   27  C   UNL     1       8.581  21.204  56.288  1.00  0.00     0.040 A 
HETATM   28  C   UNL     1       8.426  20.233  52.915  1.00  0.00     0.352 A 
HETATM   29  C   UNL     1       8.306  22.485  56.785  1.00  0.00     0.012 A 
ENDBRANCH  20  21
ENDBRANCH  17  20
ENDBRANCH  15  16
ENDBRANCH  12  15
BRANCH   6  30
HETATM   30  S   UNL     1       4.446  31.213  58.373  1.00  0.00    -0.082 SA
BRANCH  30  31
HETATM   31  C   UNL     1       4.847  32.980  58.530  1.00  0.00     0.185 C 
BRANCH  31  32
HETATM   32  C   UNL     1       4.994  33.503  59.958  1.00  0.00     0.231 C 
HETATM   33  N   UNL     1       5.836  32.772  60.772  1.00  0.00    -0.327 N 
HETATM   34  H   UNL     1       6.174  31.906  60.368  1.00  0.00     0.169 HD
HETATM   35  O   UNL     1       4.414  34.542  60.277  1.00  0.00    -0.272 OA
BRANCH  33  36
HETATM   36  C   UNL     1       6.126  32.980  62.133  1.00  0.00     0.034 A 
HETATM   37  C   UNL     1       5.173  33.338  63.091  1.00  0.00     0.032 A 
HETATM   38  C   UNL     1       5.545  33.506  64.429  1.00  0.00     0.044 A 
HETATM   39  C   UNL     1       6.867  33.316  64.806  1.00  0.00     0.116 A 
HETATM   40  F   UNL     1       7.220  33.471  66.088  1.00  0.00    -0.206 F 
HETATM   41  C   UNL     1       7.830  32.965  63.870  1.00  0.00     0.044 A 
HETATM   42  C   UNL     1       7.459  32.801  62.533  1.00  0.00     0.032 A 
ENDBRANCH  33  36
ENDBRANCH  31  32
ENDBRANCH  30  31
ENDBRANCH   6  30
TORSDOF 8
ENDMDL
MODEL 2
REMARK VINA RESULT:     -11.3      4.541     10.738
REMARK  8 active torsions:
REMARK  status: ('A' for Active; 'I' for Inactive)
REMARK    1  A    between atoms: C_6  and  S_7 
REMARK    2  A    between atoms: S_7  and  C_8 
REMARK    3  A    between atoms: C_8  and  C_9 
REMARK       I    between atoms: C_9  and  N_10 
REMARK    4  A    between atoms: N_10  and  C_11 
REMARK    5  A    between atoms: C_24  and  C_25 
REMARK    6  A    between atoms: C_25  and  C_26 
REMARK       I    between atoms: C_26  and  N_27 
REMARK    7  A    between atoms: N_27  and  C_28 
REMARK    8  A    between atoms: C_28  and  C_29 
ROOT
HETATM    1  C   UNL     1       8.443  24.149  56.550  1.00  0.00     0.001 A 
HETATM    2  C   UNL     1       8.509  25.428  57.101  1.00  0.00     0.018 A 
HETATM    3  C   UNL     1       7.479  26.335  56.842  1.00  0.00     0.039 A 
HETATM    4  C   UNL     1       6.384  25.989  56.047  1.00  0.00     0.073 A 
HETATM    5  N   UNL     1       5.335  26.883  55.793  1.00  0.00    -0.223 NA
HETATM    6  C   UNL     1       5.392  28.069  56.305  1.00  0.00     0.178 A 
HETATM    7  N   UNL     1       6.441  28.505  57.105  1.00  0.00    -0.241 N 
HETATM    8  C   UNL     1       7.484  27.688  57.398  1.00  0.00     0.147 A 
HETATM    9  N   UNL     1       8.426  28.164  58.148  1.00  0.00    -0.256 NA
HETATM   10  C   UNL     1       6.691  29.723  57.703  1.00  0.00     0.257 A 
HETATM   11  O   UNL     1       6.085  30.777  57.598  1.00  0.00    -0.270 OA
HETATM   12  C   UNL     1       7.968  29.535  58.504  1.00  0.00     0.211 A 
HETATM   13  C   UNL     1       6.332  24.707  55.500  1.00  0.00     0.032 A 
HETATM   14  C   UNL     1       7.356  23.789  55.751  1.00  0.00     0.002 A 
ENDROOT
BRANCH  12  15
HETATM   15  C   UNL     1       9.015  30.565  58.114  1.00  0.00     0.140 C 
BRANCH  15  16
HETATM   16  C   UNL     1       9.423  31.415  59.297  1.00  0.00     0.220 C 
HETATM   17  N   UNL     1       8.840  31.006  60.478  1.00  0.00    -0.357 N 
HETATM   18  H   UNL     1       8.514  30.051  60.542  1.00  0.00     0.162 HD
HETATM   19  O   UNL     1      10.213  32.350  59.227  1.00  0.00    -0.274 OA
BRANCH  17  20
HETATM   20  C   UNL     1       9.109  31.715  61.709  1.00  0.00     0.161 C 
BRANCH  20  21
HETATM   21  C   UNL     1       7.874  32.022  62.525  1.00  0.00    -0.038 A 
HETATM   22  C   UNL     1       8.029  32.778  63.702  1.00  0.00     0.048 A 
HETATM   23  C   UNL     1       6.904  33.104  64.430  1.00  0.00     0.105 A 
HETATM   24  C   UNL     1       5.648  32.709  64.040  1.00  0.00     0.105 A 
HETATM   25  O   UNL     1       6.884  33.838  65.575  1.00  0.00    -0.323 OA
HETATM   26  O   UNL     1       4.680  33.137  64.892  1.00  0.00    -0.323 OA
HETATM   27  C   UNL     1       5.447  31.973  62.893  1.00  0.00     0.040 A 
HETATM   28  C   UNL     1       5.467  33.876  65.847  1.00  0.00     0.352 A 
HETATM   29  C   UNL     1       6.570  31.642  62.125  1.00  0.00     0.012 A 
ENDBRANCH  20  21
ENDBRANCH  17  20
ENDBRANCH  15  16
ENDBRANCH  12  15
BRANCH   6  30
HETATM   30  S   UNL     1       4.042  29.137  56.011  1.00  0.00    -0.082 SA
BRANCH  30  31
HETATM   31  C   UNL     1       4.646  30.018  54.539  1.00  0.00     0.185 C 
BRANCH  31  32
HETATM   32  C   UNL     1       4.224  29.431  53.193  1.00  0.00     0.231 C 
HETATM   33  N   UNL     1       5.241  28.863  52.451  1.00  0.00    -0.327 N 
HETATM   34  H   UNL     1       6.172  29.000  52.829  1.00  0.00     0.169 HD
HETATM   35  O   UNL     1       3.034  29.450  52.878  1.00  0.00    -0.272 OA
BRANCH  33  36
HETATM   36  C   UNL     1       5.167  28.296  51.166  1.00  0.00     0.034 A 
HETATM   37  C   UNL     1       5.375  29.008  49.982  1.00  0.00     0.032 A 
HETATM   38  C   UNL     1       5.301  28.359  48.744  1.00  0.00     0.044 A 
HETATM   39  C   UNL     1       5.019  27.001  48.695  1.00  0.00     0.116 A 
HETATM   40  F   UNL     1       4.955  26.380  47.510  1.00  0.00    -0.206 F 
HETATM   41  C   UNL     1       4.804  26.276  49.858  1.00  0.00     0.044 A 
HETATM   42  C   UNL     1       4.875  26.925  51.094  1.00  0.00     0.032 A 
ENDBRANCH  33  36
ENDBRANCH  31  32
ENDBRANCH  30  31
ENDBRANCH   6  30
TORSDOF 8
ENDMDL
MODEL 3
REMARK VINA RESULT:     -11.1      4.448     10.504
REMARK  8 active torsions:
REMARK  status: ('A' for Active; 'I' for Inactive)
REMARK    1  A    between atoms: C_6  and  S_7 
REMARK    2  A    between atoms: S_7  and  C_8 
REMARK    3  A    between atoms: C_8  and  C_9 
REMARK       I    between atoms: C_9  and  N_10 
REMARK    4  A    between atoms: N_10  and  C_11 
REMARK    5  A    between atoms: C_24  and  C_25 
REMARK    6  A    between atoms: C_25  and  C_26 
REMARK       I    between atoms: C_26  and  N_27 
REMARK    7  A    between atoms: N_27  and  C_28 
REMARK    8  A    between atoms: C_28  and  C_29 
ROOT
HETATM    1  C   UNL     1       8.208  23.971  56.482  1.00  0.00     0.001 A 
HETATM    2  C   UNL     1       8.358  25.246  57.026  1.00  0.00     0.018 A 
HETATM    3  C   UNL     1       7.385  26.215  56.771  1.00  0.00     0.039 A 
HETATM    4  C   UNL     1       6.265  25.934  55.985  1.00  0.00     0.073 A 
HETATM    5  N   UNL     1       5.271  26.890  55.734  1.00  0.00    -0.223 NA
HETATM    6  C   UNL     1       5.407  28.073  56.240  1.00  0.00     0.178 A 
HETATM    7  N   UNL     1       6.487  28.446  57.030  1.00  0.00    -0.241 N 
HETATM    8  C   UNL     1       7.479  27.567  57.320  1.00  0.00     0.147 A 
HETATM    9  N   UNL     1       8.455  27.986  58.060  1.00  0.00    -0.256 NA
HETATM   10  C   UNL     1       6.817  29.648  57.621  1.00  0.00     0.257 A 
HETATM   11  O   UNL     1       6.278  30.738  57.516  1.00  0.00    -0.270 OA
HETATM   12  C   UNL     1       8.085  29.384  58.414  1.00  0.00     0.211 A 
HETATM   13  C   UNL     1       6.128  24.655  55.445  1.00  0.00     0.032 A 
HETATM   14  C   UNL     1       7.095  23.676  55.692  1.00  0.00     0.002 A 
ENDROOT
BRANCH  12  15
HETATM   15  C   UNL     1       9.192  30.346  58.011  1.00  0.00     0.140 C 
BRANCH  15  16
HETATM   16  C   UNL     1       9.487  31.342  59.110  1.00  0.00     0.220 C 
HETATM   17  N   UNL     1       9.174  30.864  60.365  1.00  0.00    -0.357 N 
HETATM   18  H   UNL     1       9.127  29.864  60.496  1.00  0.00     0.162 HD
HETATM   19  O   UNL     1       9.982  32.446  58.916  1.00  0.00    -0.274 OA
BRANCH  17  20
HETATM   20  C   UNL     1       9.379  31.692  61.533  1.00  0.00     0.161 C 
BRANCH  20  21
HETATM   21  C   UNL     1       8.099  32.175  62.178  1.00  0.00    -0.038 A 
HETATM   22  C   UNL     1       6.925  32.173  61.402  1.00  0.00     0.048 A 
HETATM   23  C   UNL     1       5.742  32.566  61.993  1.00  0.00     0.105 A 
HETATM   24  C   UNL     1       5.685  32.959  63.308  1.00  0.00     0.105 A 
HETATM   25  O   UNL     1       4.526  32.605  61.386  1.00  0.00    -0.323 OA
HETATM   26  O   UNL     1       4.428  33.302  63.694  1.00  0.00    -0.323 OA
HETATM   27  C   UNL     1       6.806  32.972  64.107  1.00  0.00     0.040 A 
HETATM   28  C   UNL     1       3.693  33.048  62.479  1.00  0.00     0.352 A 
HETATM   29  C   UNL     1       8.019  32.562  63.537  1.00  0.00     0.012 A 
ENDBRANCH  20  21
ENDBRANCH  17  20
ENDBRANCH  15  16
ENDBRANCH  12  15
BRANCH   6  30
HETATM   30  S   UNL     1       4.124  29.222  55.951  1.00  0.00    -0.082 SA
BRANCH  30  31
HETATM   31  C   UNL     1       4.698  29.956  54.389  1.00  0.00     0.185 C 
BRANCH  31  32
HETATM   32  C   UNL     1       4.245  29.245  53.115  1.00  0.00     0.231 C 
HETATM   33  N   UNL     1       5.262  28.802  52.292  1.00  0.00    -0.327 N 
HETATM   34  H   UNL     1       6.192  29.097  52.567  1.00  0.00     0.169 HD
HETATM   35  O   UNL     1       3.042  29.066  52.924  1.00  0.00    -0.272 OA
BRANCH  33  36
HETATM   36  C   UNL     1       5.154  28.166  51.042  1.00  0.00     0.034 A 
HETATM   37  C   UNL     1       4.839  26.814  50.876  1.00  0.00     0.032 A 
HETATM   38  C   UNL     1       4.733  26.266  49.593  1.00  0.00     0.044 A 
HETATM   39  C   UNL     1       4.942  27.070  48.481  1.00  0.00     0.116 A 
HETATM   40  F   UNL     1       4.833  26.544  47.254  1.00  0.00    -0.206 F 
HETATM   41  C   UNL     1       5.260  28.413  48.624  1.00  0.00     0.044 A 
HETATM   42  C   UNL     1       5.370  28.959  49.905  1.00  0.00     0.032 A 
ENDBRANCH  33  36
ENDBRANCH  31  32
ENDBRANCH  30  31
ENDBRANCH   6  30
TORSDOF 8
ENDMDL
MODEL 4
REMARK VINA RESULT:     -11.1      5.008     11.257
REMARK  8 active torsions:
REMARK  status: ('A' for Active; 'I' for Inactive)
REMARK    1  A    between atoms: C_6  and  S_7 
REMARK    2  A    between atoms: S_7  and  C_8 
REMARK    3  A    between atoms: C_8  and  C_9 
REMARK       I    between atoms: C_9  and  N_10 
REMARK    4  A    between atoms: N_10  and  C_11 
REMARK    5  A    between atoms: C_24  and  C_25 
REMARK    6  A    between atoms: C_25  and  C_26 
REMARK       I    between atoms: C_26  and  N_27 
REMARK    7  A    between atoms: N_27  and  C_28 
REMARK    8  A    between atoms: C_28  and  C_29 
ROOT
HETATM    1  C   UNL     1       8.550  20.423  56.428  1.00  0.00     0.001 A 
HETATM    2  C   UNL     1       8.196  21.745  56.692  1.00  0.00     0.018 A 
HETATM    3  C   UNL     1       8.028  22.631  55.625  1.00  0.00     0.039 A 
HETATM    4  C   UNL     1       8.205  22.221  54.302  1.00  0.00     0.073 A 
HETATM    5  N   UNL     1       8.023  23.094  53.221  1.00  0.00    -0.223 NA
HETATM    6  C   UNL     1       7.692  24.320  53.463  1.00  0.00     0.178 A 
HETATM    7  N   UNL     1       7.498  24.821  54.744  1.00  0.00    -0.241 N 
HETATM    8  C   UNL     1       7.648  24.028  55.835  1.00  0.00     0.147 A 
HETATM    9  N   UNL     1       7.454  24.563  56.997  1.00  0.00    -0.256 NA
HETATM   10  C   UNL     1       7.181  26.085  55.195  1.00  0.00     0.257 A 
HETATM   11  O   UNL     1       7.083  27.129  54.571  1.00  0.00    -0.270 OA
HETATM   12  C   UNL     1       7.040  25.963  56.702  1.00  0.00     0.211 A 
HETATM   13  C   UNL     1       8.561  20.896  54.052  1.00  0.00     0.032 A 
HETATM   14  C   UNL     1       8.732  19.998  55.110  1.00  0.00     0.002 A 
ENDROOT
BRANCH  12  15
HETATM   15  C   UNL     1       7.948  26.949  57.419  1.00  0.00     0.140 C 
BRANCH  15  16
HETATM   16  C   UNL     1       7.259  28.278  57.636  1.00  0.00     0.220 C 
HETATM   17  N   UNL     1       8.131  29.279  58.008  1.00  0.00    -0.357 N 
HETATM   18  H   UNL     1       9.108  29.170  57.776  1.00  0.00     0.162 HD
HETATM   19  O   UNL     1       6.059  28.461  57.467  1.00  0.00    -0.274 OA
BRANCH  17  20
HETATM   20  C   UNL     1       7.640  30.614  58.271  1.00  0.00     0.161 C 
BRANCH  20  21
HETATM   21  C   UNL     1       7.908  31.104  59.676  1.00  0.00    -0.038 A 
HETATM   22  C   UNL     1       6.979  31.987  60.257  1.00  0.00     0.048 A 
HETATM   23  C   UNL     1       7.187  32.403  61.556  1.00  0.00     0.105 A 
HETATM   24  C   UNL     1       8.272  31.983  62.286  1.00  0.00     0.105 A 
HETATM   25  O   UNL     1       6.378  33.238  62.261  1.00  0.00    -0.323 OA
HETATM   26  O   UNL     1       8.288  32.506  63.541  1.00  0.00    -0.323 OA
HETATM   27  C   UNL     1       9.204  31.116  61.761  1.00  0.00     0.040 A 
HETATM   28  C   UNL     1       7.070  33.278  63.527  1.00  0.00     0.352 A 
HETATM   29  C   UNL     1       9.008  30.663  60.450  1.00  0.00     0.012 A 
ENDBRANCH  20  21
ENDBRANCH  17  20
ENDBRANCH  15  16
ENDBRANCH  12  15
BRANCH   6  30
HETATM   30  S   UNL     1       7.422  25.365  52.089  1.00  0.00    -0.082 SA
BRANCH  30  31
HETATM   31  C   UNL     1       5.608  25.291  51.983  1.00  0.00     0.185 C 
BRANCH  31  32
HETATM   32  C   UNL     1       4.938  26.445  51.239  1.00  0.00     0.231 C 
HETATM   33  N   UNL     1       4.617  26.192  49.920  1.00  0.00    -0.327 N 
HETATM   34  H   UNL     1       4.965  25.310  49.559  1.00  0.00     0.169 HD
HETATM   35  O   UNL     1       4.681  27.483  51.850  1.00  0.00    -0.272 OA
BRANCH  33  36
HETATM   36  C   UNL     1       4.045  27.068  48.980  1.00  0.00     0.034 A 
HETATM   37  C   UNL     1       2.693  27.063  48.626  1.00  0.00     0.032 A 
HETATM   38  C   UNL     1       2.203  27.985  47.694  1.00  0.00     0.044 A 
HETATM   39  C   UNL     1       3.066  28.909  47.121  1.00  0.00     0.116 A 
HETATM   40  F   UNL     1       2.593  29.795  46.234  1.00  0.00    -0.206 F 
HETATM   41  C   UNL     1       4.412  28.929  47.456  1.00  0.00     0.044 A 
HETATM   42  C   UNL     1       4.902  28.006  48.383  1.00  0.00     0.032 A 
ENDBRANCH  33  36
ENDBRANCH  31  32
ENDBRANCH  30  31
ENDBRANCH   6  30
TORSDOF 8
ENDMDL
MODEL 5
REMARK VINA RESULT:     -11.0      4.864     11.045
REMARK  8 active torsions:
REMARK  status: ('A' for Active; 'I' for Inactive)
REMARK    1  A    between atoms: C_6  and  S_7 
REMARK    2  A    between atoms: S_7  and  C_8 
REMARK    3  A    between atoms: C_8  and  C_9 
REMARK       I    between atoms: C_9  and  N_10 
REMARK    4  A    between atoms: N_10  and  C_11 
REMARK    5  A    between atoms: C_24  and  C_25 
REMARK    6  A    between atoms: C_25  and  C_26 
REMARK       I    between atoms: C_26  and  N_27 
REMARK    7  A    between atoms: N_27  and  C_28 
REMARK    8  A    between atoms: C_28  and  C_29 
ROOT
HETATM    1  C   UNL     1       8.672  23.731  57.146  1.00  0.00     0.001 A 
HETATM    2  C   UNL     1       8.641  25.096  57.431  1.00  0.00     0.018 A 
HETATM    3  C   UNL     1       7.757  25.918  56.728  1.00  0.00     0.039 A 
HETATM    4  C   UNL     1       6.903  25.404  55.751  1.00  0.00     0.073 A 
HETATM    5  N   UNL     1       5.998  26.213  55.050  1.00  0.00    -0.223 NA
HETATM    6  C   UNL     1       5.965  27.479  55.314  1.00  0.00     0.178 A 
HETATM    7  N   UNL     1       6.778  28.082  56.266  1.00  0.00    -0.241 N 
HETATM    8  C   UNL     1       7.669  27.355  56.986  1.00  0.00     0.147 A 
HETATM    9  N   UNL     1       8.395  27.985  57.854  1.00  0.00    -0.256 NA
HETATM   10  C   UNL     1       6.909  29.398  56.657  1.00  0.00     0.257 A 
HETATM   11  O   UNL     1       6.398  30.401  56.186  1.00  0.00    -0.270 OA
HETATM   12  C   UNL     1       7.915  29.393  57.795  1.00  0.00     0.211 A 
HETATM   13  C   UNL     1       6.946  24.037  55.474  1.00  0.00     0.032 A 
HETATM   14  C   UNL     1       7.826  23.203  56.169  1.00  0.00     0.002 A 
ENDROOT
BRANCH  12  15
HETATM   15  C   UNL     1       9.070  30.338  57.508  1.00  0.00     0.140 C 
BRANCH  15  16
HETATM   16  C   UNL     1       9.520  31.058  58.760  1.00  0.00     0.220 C 
HETATM   17  N   UNL     1       9.023  30.489  59.914  1.00  0.00    -0.357 N 
HETATM   18  H   UNL     1       8.733  29.522  59.881  1.00  0.00     0.162 HD
HETATM   19  O   UNL     1      10.274  32.025  58.759  1.00  0.00    -0.274 OA
BRANCH  17  20
HETATM   20  C   UNL     1       9.342  31.058  61.204  1.00  0.00     0.161 C 
BRANCH  20  21
HETATM   21  C   UNL     1       8.180  31.756  61.874  1.00  0.00    -0.038 A 
HETATM   22  C   UNL     1       6.948  31.793  61.193  1.00  0.00     0.048 A 
HETATM   23  C   UNL     1       5.868  32.384  61.814  1.00  0.00     0.105 A 
HETATM   24  C   UNL     1       5.966  32.937  63.067  1.00  0.00     0.105 A 
HETATM   25  O   UNL     1       4.613  32.486  61.298  1.00  0.00    -0.323 OA
HETATM   26  O   UNL     1       4.789  33.463  63.497  1.00  0.00    -0.323 OA
HETATM   27  C   UNL     1       7.148  32.919  63.773  1.00  0.00     0.040 A 
HETATM   28  C   UNL     1       3.929  33.149  62.383  1.00  0.00     0.352 A 
HETATM   29  C   UNL     1       8.258  32.310  63.174  1.00  0.00     0.012 A 
ENDBRANCH  20  21
ENDBRANCH  17  20
ENDBRANCH  15  16
ENDBRANCH  12  15
BRANCH   6  30
HETATM   30  S   UNL     1       4.789  28.447  54.460  1.00  0.00    -0.082 SA
BRANCH  30  31
HETATM   31  C   UNL     1       5.566  28.518  52.817  1.00  0.00     0.185 C 
BRANCH  31  32
HETATM   32  C   UNL     1       4.920  27.651  51.738  1.00  0.00     0.231 C 
HETATM   33  N   UNL     1       4.409  28.338  50.654  1.00  0.00    -0.327 N 
HETATM   34  H   UNL     1       4.418  29.348  50.748  1.00  0.00     0.169 HD
HETATM   35  O   UNL     1       4.935  26.426  51.865  1.00  0.00    -0.272 OA
BRANCH  33  36
HETATM   36  C   UNL     1       3.720  27.821  49.543  1.00  0.00     0.034 A 
HETATM   37  C   UNL     1       4.269  26.909  48.637  1.00  0.00     0.032 A 
HETATM   38  C   UNL     1       3.505  26.429  47.567  1.00  0.00     0.044 A 
HETATM   39  C   UNL     1       2.196  26.863  47.406  1.00  0.00     0.116 A 
HETATM   40  F   UNL     1       1.465  26.398  46.385  1.00  0.00    -0.206 F 
HETATM   41  C   UNL     1       1.634  27.771  48.291  1.00  0.00     0.044 A 
HETATM   42  C   UNL     1       2.398  28.253  49.358  1.00  0.00     0.032 A 
ENDBRANCH  33  36
ENDBRANCH  31  32
ENDBRANCH  30  31
ENDBRANCH   6  30
TORSDOF 8
ENDMDL
MODEL 6
REMARK VINA RESULT:     -11.0      3.804     10.837
REMARK  8 active torsions:
REMARK  status: ('A' for Active; 'I' for Inactive)
REMARK    1  A    between atoms: C_6  and  S_7 
REMARK    2  A    between atoms: S_7  and  C_8 
REMARK    3  A    between atoms: C_8  and  C_9 
REMARK       I    between atoms: C_9  and  N_10 
REMARK    4  A    between atoms: N_10  and  C_11 
REMARK    5  A    between atoms: C_24  and  C_25 
REMARK    6  A    between atoms: C_25  and  C_26 
REMARK       I    between atoms: C_26  and  N_27 
REMARK    7  A    between atoms: N_27  and  C_28 
REMARK    8  A    between atoms: C_28  and  C_29 
ROOT
HETATM    1  C   UNL     1       7.964  32.456  62.288  1.00  0.00     0.001 A 
HETATM    2  C   UNL     1       7.077  32.408  61.214  1.00  0.00     0.018 A 
HETATM    3  C   UNL     1       7.344  31.546  60.147  1.00  0.00     0.039 A 
HETATM    4  C   UNL     1       8.478  30.731  60.136  1.00  0.00     0.073 A 
HETATM    5  N   UNL     1       8.751  29.848  59.081  1.00  0.00    -0.223 NA
HETATM    6  C   UNL     1       7.928  29.799  58.085  1.00  0.00     0.178 A 
HETATM    7  N   UNL     1       6.777  30.574  58.006  1.00  0.00    -0.241 N 
HETATM    8  C   UNL     1       6.449  31.442  58.996  1.00  0.00     0.147 A 
HETATM    9  N   UNL     1       5.363  32.132  58.853  1.00  0.00    -0.256 NA
HETATM   10  C   UNL     1       5.813  30.683  57.026  1.00  0.00     0.257 A 
HETATM   11  O   UNL     1       5.778  30.185  55.912  1.00  0.00    -0.270 OA
HETATM   12  C   UNL     1       4.774  31.647  57.574  1.00  0.00     0.211 A 
HETATM   13  C   UNL     1       9.358  30.790  61.216  1.00  0.00     0.032 A 
HETATM   14  C   UNL     1       9.103  31.649  62.289  1.00  0.00     0.002 A 
ENDROOT
BRANCH  12  15
HETATM   15  C   UNL     1       4.546  32.808  56.619  1.00  0.00     0.140 C 
BRANCH  15  16
HETATM   16  C   UNL     1       4.407  34.117  57.362  1.00  0.00     0.220 C 
HETATM   17  N   UNL     1       3.428  34.082  58.332  1.00  0.00    -0.357 N 
HETATM   18  H   UNL     1       3.153  33.182  58.699  1.00  0.00     0.162 HD
HETATM   19  O   UNL     1       5.111  35.099  57.154  1.00  0.00    -0.274 OA
BRANCH  17  20
HETATM   20  C   UNL     1       3.150  35.255  59.131  1.00  0.00     0.161 C 
BRANCH  20  21
HETATM   21  C   UNL     1       3.784  35.230  60.503  1.00  0.00    -0.038 A 
HETATM   22  C   UNL     1       3.555  34.105  61.318  1.00  0.00     0.048 A 
HETATM   23  C   UNL     1       4.168  34.049  62.553  1.00  0.00     0.105 A 
HETATM   24  C   UNL     1       4.985  35.057  63.003  1.00  0.00     0.105 A 
HETATM   25  O   UNL     1       4.060  33.030  63.447  1.00  0.00    -0.323 OA
HETATM   26  O   UNL     1       5.490  34.805  64.239  1.00  0.00    -0.323 OA
HETATM   27  C   UNL     1       5.242  36.173  62.239  1.00  0.00     0.040 A 
HETATM   28  C   UNL     1       4.922  33.505  64.503  1.00  0.00     0.352 A 
HETATM   29  C   UNL     1       4.647  36.249  60.973  1.00  0.00     0.012 A 
ENDBRANCH  20  21
ENDBRANCH  17  20
ENDBRANCH  15  16
ENDBRANCH  12  15
BRANCH   6  30
HETATM   30  S   UNL     1       8.271  28.650  56.815  1.00  0.00    -0.082 SA
BRANCH  30  31
HETATM   31  C   UNL     1       7.306  27.226  57.403  1.00  0.00     0.185 C 
BRANCH  31  32
HETATM   32  C   UNL     1       6.947  26.183  56.346  1.00  0.00     0.231 C 
HETATM   33  N   UNL     1       7.910  25.220  56.114  1.00  0.00    -0.327 N 
HETATM   34  H   UNL     1       8.792  25.378  56.588  1.00  0.00     0.169 HD
HETATM   35  O   UNL     1       5.837  26.227  55.814  1.00  0.00    -0.272 OA
BRANCH  33  36
HETATM   36  C   UNL     1       7.884  24.174  55.175  1.00  0.00     0.034 A 
HETATM   37  C   UNL     1       7.926  24.362  53.791  1.00  0.00     0.032 A 
HETATM   38  C   UNL     1       7.915  23.262  52.927  1.00  0.00     0.044 A 
HETATM   39  C   UNL     1       7.864  21.977  53.449  1.00  0.00     0.116 A 
HETATM   40  F   UNL     1       7.860  20.925  52.620  1.00  0.00    -0.206 F 
HETATM   41  C   UNL     1       7.817  21.767  54.820  1.00  0.00     0.044 A 
HETATM   42  C   UNL     1       7.823  22.866  55.682  1.00  0.00     0.032 A 
ENDBRANCH  33  36
ENDBRANCH  31  32
ENDBRANCH  30  31
ENDBRANCH   6  30
TORSDOF 8
ENDMDL
MODEL 7
REMARK VINA RESULT:     -11.0      1.982      3.006
REMARK  8 active torsions:
REMARK  status: ('A' for Active; 'I' for Inactive)
REMARK    1  A    between atoms: C_6  and  S_7 
REMARK    2  A    between atoms: S_7  and  C_8 
REMARK    3  A    between atoms: C_8  and  C_9 
REMARK       I    between atoms: C_9  and  N_10 
REMARK    4  A    between atoms: N_10  and  C_11 
REMARK    5  A    between atoms: C_24  and  C_25 
REMARK    6  A    between atoms: C_25  and  C_26 
REMARK       I    between atoms: C_26  and  N_27 
REMARK    7  A    between atoms: N_27  and  C_28 
REMARK    8  A    between atoms: C_28  and  C_29 
ROOT
HETATM    1  C   UNL     1       9.560  31.422  61.609  1.00  0.00     0.001 A 
HETATM    2  C   UNL     1       9.218  30.765  60.428  1.00  0.00     0.018 A 
HETATM    3  C   UNL     1       8.004  31.069  59.807  1.00  0.00     0.039 A 
HETATM    4  C   UNL     1       7.129  32.018  60.340  1.00  0.00     0.073 A 
HETATM    5  N   UNL     1       5.916  32.346  59.719  1.00  0.00    -0.223 NA
HETATM    6  C   UNL     1       5.597  31.740  58.622  1.00  0.00     0.178 A 
HETATM    7  N   UNL     1       6.400  30.780  58.018  1.00  0.00    -0.241 N 
HETATM    8  C   UNL     1       7.591  30.422  58.562  1.00  0.00     0.147 A 
HETATM    9  N   UNL     1       8.284  29.519  57.945  1.00  0.00    -0.256 NA
HETATM   10  C   UNL     1       6.217  30.014  56.886  1.00  0.00     0.257 A 
HETATM   11  O   UNL     1       5.237  29.916  56.166  1.00  0.00    -0.270 OA
HETATM   12  C   UNL     1       7.494  29.208  56.722  1.00  0.00     0.211 A 
HETATM   13  C   UNL     1       7.484  32.667  61.523  1.00  0.00     0.032 A 
HETATM   14  C   UNL     1       8.695  32.372  62.155  1.00  0.00     0.002 A 
ENDROOT
BRANCH  12  15
HETATM   15  C   UNL     1       7.197  27.719  56.645  1.00  0.00     0.140 C 
BRANCH  15  16
HETATM   16  C   UNL     1       7.377  27.191  55.239  1.00  0.00     0.220 C 
HETATM   17  N   UNL     1       6.948  25.889  55.096  1.00  0.00    -0.357 N 
HETATM   18  H   UNL     1       6.274  25.534  55.760  1.00  0.00     0.162 HD
HETATM   19  O   UNL     1       7.825  27.856  54.312  1.00  0.00    -0.274 OA
BRANCH  17  20
HETATM   20  C   UNL     1       7.059  25.220  53.819  1.00  0.00     0.161 C 
BRANCH  20  21
HETATM   21  C   UNL     1       7.493  23.775  53.916  1.00  0.00    -0.038 A 
HETATM   22  C   UNL     1       7.631  23.210  55.198  1.00  0.00     0.048 A 
HETATM   23  C   UNL     1       7.980  21.879  55.299  1.00  0.00     0.105 A 
HETATM   24  C   UNL     1       8.198  21.101  54.189  1.00  0.00     0.105 A 
HETATM   25  O   UNL     1       8.138  21.185  56.458  1.00  0.00    -0.323 OA
HETATM   26  O   UNL     1       8.526  19.821  54.507  1.00  0.00    -0.323 OA
HETATM   27  C   UNL     1       8.068  21.608  52.915  1.00  0.00     0.040 A 
HETATM   28  C   UNL     1       8.459  19.875  55.946  1.00  0.00     0.352 A 
HETATM   29  C   UNL     1       7.698  22.953  52.782  1.00  0.00     0.012 A 
ENDBRANCH  20  21
ENDBRANCH  17  20
ENDBRANCH  15  16
ENDBRANCH  12  15
BRANCH   6  30
HETATM   30  S   UNL     1       4.105  32.212  57.848  1.00  0.00    -0.082 SA
BRANCH  30  31
HETATM   31  C   UNL     1       4.000  33.946  58.387  1.00  0.00     0.185 C 
BRANCH  31  32
HETATM   32  C   UNL     1       3.444  34.174  59.791  1.00  0.00     0.231 C 
HETATM   33  N   UNL     1       4.347  34.668  60.712  1.00  0.00    -0.327 N 
HETATM   34  H   UNL     1       5.305  34.716  60.385  1.00  0.00     0.169 HD
HETATM   35  O   UNL     1       2.250  33.961  60.004  1.00  0.00    -0.272 OA
BRANCH  33  36
HETATM   36  C   UNL     1       4.140  34.927  62.079  1.00  0.00     0.034 A 
HETATM   37  C   UNL     1       4.072  33.937  63.062  1.00  0.00     0.032 A 
HETATM   38  C   UNL     1       3.883  34.285  64.404  1.00  0.00     0.044 A 
HETATM   39  C   UNL     1       3.763  35.622  64.759  1.00  0.00     0.116 A 
HETATM   40  F   UNL     1       3.588  35.953  66.044  1.00  0.00    -0.206 F 
HETATM   41  C   UNL     1       3.823  36.620  63.797  1.00  0.00     0.044 A 
HETATM   42  C   UNL     1       4.009  36.273  62.457  1.00  0.00     0.032 A 
ENDBRANCH  33  36
ENDBRANCH  31  32
ENDBRANCH  30  31
ENDBRANCH   6  30
TORSDOF 8
ENDMDL
MODEL 8
REMARK VINA RESULT:     -10.9      1.458      2.106
REMARK  8 active torsions:
REMARK  status: ('A' for Active; 'I' for Inactive)
REMARK    1  A    between atoms: C_6  and  S_7 
REMARK    2  A    between atoms: S_7  and  C_8 
REMARK    3  A    between atoms: C_8  and  C_9 
REMARK       I    between atoms: C_9  and  N_10 
REMARK    4  A    between atoms: N_10  and  C_11 
REMARK    5  A    between atoms: C_24  and  C_25 
REMARK    6  A    between atoms: C_25  and  C_26 
REMARK       I    between atoms: C_26  and  N_27 
REMARK    7  A    between atoms: N_27  and  C_28 
REMARK    8  A    between atoms: C_28  and  C_29 
ROOT
HETATM    1  C   UNL     1      10.907  29.582  56.661  1.00  0.00     0.001 A 
HETATM    2  C   UNL     1       9.632  29.295  56.176  1.00  0.00     0.018 A 
HETATM    3  C   UNL     1       8.519  29.829  56.829  1.00  0.00     0.039 A 
HETATM    4  C   UNL     1       8.655  30.645  57.954  1.00  0.00     0.073 A 
HETATM    5  N   UNL     1       7.548  31.203  58.609  1.00  0.00    -0.223 NA
HETATM    6  C   UNL     1       6.365  30.941  58.159  1.00  0.00     0.178 A 
HETATM    7  N   UNL     1       6.129  30.137  57.051  1.00  0.00    -0.241 N 
HETATM    8  C   UNL     1       7.156  29.574  56.364  1.00  0.00     0.147 A 
HETATM    9  N   UNL     1       6.860  28.836  55.343  1.00  0.00    -0.256 NA
HETATM   10  C   UNL     1       4.957  29.723  56.452  1.00  0.00     0.257 A 
HETATM   11  O   UNL     1       3.803  29.885  56.813  1.00  0.00    -0.270 OA
HETATM   12  C   UNL     1       5.378  28.919  55.234  1.00  0.00     0.211 A 
HETATM   13  C   UNL     1       9.936  30.923  58.430  1.00  0.00     0.032 A 
HETATM   14  C   UNL     1      11.059  30.395  57.786  1.00  0.00     0.002 A 
ENDROOT
BRANCH  12  15
HETATM   15  C   UNL     1       4.763  27.529  55.256  1.00  0.00     0.140 C 
BRANCH  15  16
HETATM   16  C   UNL     1       5.208  26.708  54.067  1.00  0.00     0.220 C 
HETATM   17  N   UNL     1       6.416  26.076  54.273  1.00  0.00    -0.357 N 
HETATM   18  H   UNL     1       6.711  25.913  55.226  1.00  0.00     0.162 HD
HETATM   19  O   UNL     1       4.553  26.585  53.038  1.00  0.00    -0.274 OA
BRANCH  17  20
HETATM   20  C   UNL     1       6.999  25.258  53.233  1.00  0.00     0.161 C 
BRANCH  20  21
HETATM   21  C   UNL     1       7.484  23.907  53.710  1.00  0.00    -0.038 A 
HETATM   22  C   UNL     1       7.665  23.720  55.093  1.00  0.00     0.048 A 
HETATM   23  C   UNL     1       8.061  22.478  55.545  1.00  0.00     0.105 A 
HETATM   24  C   UNL     1       8.284  21.432  54.684  1.00  0.00     0.105 A 
HETATM   25  O   UNL     1       8.263  22.133  56.845  1.00  0.00    -0.323 OA
HETATM   26  O   UNL     1       8.662  20.298  55.331  1.00  0.00    -0.323 OA
HETATM   27  C   UNL     1       8.114  21.566  53.324  1.00  0.00     0.040 A 
HETATM   28  C   UNL     1       8.620  20.742  56.702  1.00  0.00     0.352 A 
HETATM   29  C   UNL     1       7.696  22.812  52.839  1.00  0.00     0.012 A 
ENDBRANCH  20  21
ENDBRANCH  17  20
ENDBRANCH  15  16
ENDBRANCH  12  15
BRANCH   6  30
HETATM   30  S   UNL     1       5.013  31.695  58.968  1.00  0.00    -0.082 SA
BRANCH  30  31
HETATM   31  C   UNL     1       5.885  32.975  59.922  1.00  0.00     0.185 C 
BRANCH  31  32
HETATM   32  C   UNL     1       6.040  32.700  61.417  1.00  0.00     0.231 C 
HETATM   33  N   UNL     1       5.691  33.745  62.249  1.00  0.00    -0.327 N 
HETATM   34  H   UNL     1       5.479  34.615  61.775  1.00  0.00     0.169 HD
HETATM   35  O   UNL     1       6.406  31.584  61.785  1.00  0.00    -0.272 OA
BRANCH  33  36
HETATM   36  C   UNL     1       5.774  33.804  63.652  1.00  0.00     0.034 A 
HETATM   37  C   UNL     1       6.975  33.790  64.366  1.00  0.00     0.032 A 
HETATM   38  C   UNL     1       6.968  33.872  65.763  1.00  0.00     0.044 A 
HETATM   39  C   UNL     1       5.760  33.967  66.441  1.00  0.00     0.116 A 
HETATM   40  F   UNL     1       5.756  34.051  67.778  1.00  0.00    -0.206 F 
HETATM   41  C   UNL     1       4.557  33.977  65.752  1.00  0.00     0.044 A 
HETATM   42  C   UNL     1       4.564  33.892  64.357  1.00  0.00     0.032 A 
ENDBRANCH  33  36
ENDBRANCH  31  32
ENDBRANCH  30  31
ENDBRANCH   6  30
TORSDOF 8
ENDMDL
MODEL 9
REMARK VINA RESULT:     -10.9      3.449     10.288
REMARK  8 active torsions:
REMARK  status: ('A' for Active; 'I' for Inactive)
REMARK    1  A    between atoms: C_6  and  S_7 
REMARK    2  A    between atoms: S_7  and  C_8 
REMARK    3  A    between atoms: C_8  and  C_9 
REMARK       I    between atoms: C_9  and  N_10 
REMARK    4  A    between atoms: N_10  and  C_11 
REMARK    5  A    between atoms: C_24  and  C_25 
REMARK    6  A    between atoms: C_25  and  C_26 
REMARK       I    between atoms: C_26  and  N_27 
REMARK    7  A    between atoms: N_27  and  C_28 
REMARK    8  A    between atoms: C_28  and  C_29 
ROOT
HETATM    1  C   UNL     1      10.201  30.477  58.136  1.00  0.00     0.001 A 
HETATM    2  C   UNL     1       8.808  30.413  58.111  1.00  0.00     0.018 A 
HETATM    3  C   UNL     1       8.174  29.809  57.023  1.00  0.00     0.039 A 
HETATM    4  C   UNL     1       8.903  29.267  55.963  1.00  0.00     0.073 A 
HETATM    5  N   UNL     1       8.281  28.642  54.872  1.00  0.00    -0.223 NA
HETATM    6  C   UNL     1       6.989  28.578  54.848  1.00  0.00     0.178 A 
HETATM    7  N   UNL     1       6.180  29.092  55.854  1.00  0.00    -0.241 N 
HETATM    8  C   UNL     1       6.717  29.700  56.942  1.00  0.00     0.147 A 
HETATM    9  N   UNL     1       5.902  30.157  57.838  1.00  0.00    -0.256 NA
HETATM   10  C   UNL     1       4.808  29.148  55.987  1.00  0.00     0.257 A 
HETATM   11  O   UNL     1       3.939  28.838  55.188  1.00  0.00    -0.270 OA
HETATM   12  C   UNL     1       4.550  29.768  57.349  1.00  0.00     0.211 A 
HETATM   13  C   UNL     1      10.295  29.340  55.999  1.00  0.00     0.032 A 
HETATM   14  C   UNL     1      10.943  29.942  57.082  1.00  0.00     0.002 A 
ENDROOT
BRANCH  12  15
HETATM   15  C   UNL     1       3.654  30.990  57.233  1.00  0.00     0.140 C 
BRANCH  15  16
HETATM   16  C   UNL     1       3.564  31.737  58.545  1.00  0.00     0.220 C 
HETATM   17  N   UNL     1       4.244  32.936  58.527  1.00  0.00    -0.357 N 
HETATM   18  H   UNL     1       4.424  33.369  57.632  1.00  0.00     0.162 HD
HETATM   19  O   UNL     1       2.927  31.341  59.515  1.00  0.00    -0.274 OA
BRANCH  17  20
HETATM   20  C   UNL     1       4.276  33.775  59.705  1.00  0.00     0.161 C 
BRANCH  20  21
HETATM   21  C   UNL     1       5.383  33.434  60.676  1.00  0.00    -0.038 A 
HETATM   22  C   UNL     1       5.345  34.018  61.955  1.00  0.00     0.048 A 
HETATM   23  C   UNL     1       6.323  33.677  62.867  1.00  0.00     0.105 A 
HETATM   24  C   UNL     1       7.326  32.793  62.555  1.00  0.00     0.105 A 
HETATM   25  O   UNL     1       6.417  34.140  64.142  1.00  0.00    -0.323 OA
HETATM   26  O   UNL     1       8.182  32.591  63.591  1.00  0.00    -0.323 OA
HETATM   27  C   UNL     1       7.401  32.192  61.318  1.00  0.00     0.040 A 
HETATM   28  C   UNL     1       7.584  33.427  64.602  1.00  0.00     0.352 A 
HETATM   29  C   UNL     1       6.411  32.507  60.379  1.00  0.00     0.012 A 
ENDBRANCH  20  21
ENDBRANCH  17  20
ENDBRANCH  15  16
ENDBRANCH  12  15
BRANCH   6  30
HETATM   30  S   UNL     1       6.251  27.747  53.502  1.00  0.00    -0.082 SA
BRANCH  30  31
HETATM   31  C   UNL     1       7.484  26.440  53.218  1.00  0.00     0.185 C 
BRANCH  31  32
HETATM   32  C   UNL     1       7.126  25.058  53.764  1.00  0.00     0.231 C 
HETATM   33  N   UNL     1       8.201  24.259  54.101  1.00  0.00    -0.327 N 
HETATM   34  H   UNL     1       9.107  24.633  53.843  1.00  0.00     0.169 HD
HETATM   35  O   UNL     1       5.941  24.764  53.917  1.00  0.00    -0.272 OA
BRANCH  33  36
HETATM   36  C   UNL     1       8.184  22.935  54.576  1.00  0.00     0.034 A 
HETATM   37  C   UNL     1       7.964  21.816  53.768  1.00  0.00     0.032 A 
HETATM   38  C   UNL     1       7.984  20.531  54.320  1.00  0.00     0.044 A 
HETATM   39  C   UNL     1       8.224  20.368  55.678  1.00  0.00     0.116 A 
HETATM   40  F   UNL     1       8.249  19.137  56.203  1.00  0.00    -0.206 F 
HETATM   41  C   UNL     1       8.441  21.466  56.498  1.00  0.00     0.044 A 
HETATM   42  C   UNL     1       8.417  22.750  55.947  1.00  0.00     0.032 A 
ENDBRANCH  33  36
ENDBRANCH  31  32
ENDBRANCH  30  31
ENDBRANCH   6  30
TORSDOF 8
ENDMDL
MODEL 10
REMARK VINA RESULT:     -10.8      1.875      2.810
REMARK  8 active torsions:
REMARK  status: ('A' for Active; 'I' for Inactive)
REMARK    1  A    between atoms: C_6  and  S_7 
REMARK    2  A    between atoms: S_7  and  C_8 
REMARK    3  A    between atoms: C_8  and  C_9 
REMARK       I    between atoms: C_9  and  N_10 
REMARK    4  A    between atoms: N_10  and  C_11 
REMARK    5  A    between atoms: C_24  and  C_25 
REMARK    6  A    between atoms: C_25  and  C_26 
REMARK       I    between atoms: C_26  and  N_27 
REMARK    7  A    between atoms: N_27  and  C_28 
REMARK    8  A    between atoms: C_28  and  C_29 
ROOT
HETATM    1  C   UNL     1       9.679  30.822  61.061  1.00  0.00     0.001 A 
HETATM    2  C   UNL     1       8.849  30.527  59.980  1.00  0.00     0.018 A 
HETATM    3  C   UNL     1       7.638  31.210  59.844  1.00  0.00     0.039 A 
HETATM    4  C   UNL     1       7.243  32.183  60.764  1.00  0.00     0.073 A 
HETATM    5  N   UNL     1       6.039  32.889  60.632  1.00  0.00    -0.223 NA
HETATM    6  C   UNL     1       5.269  32.620  59.629  1.00  0.00     0.178 A 
HETATM    7  N   UNL     1       5.575  31.667  58.665  1.00  0.00    -0.241 N 
HETATM    8  C   UNL     1       6.729  30.954  58.728  1.00  0.00     0.147 A 
HETATM    9  N   UNL     1       6.946  30.082  57.796  1.00  0.00    -0.256 NA
HETATM   10  C   UNL     1       4.877  31.224  57.561  1.00  0.00     0.257 A 
HETATM   11  O   UNL     1       3.744  31.497  57.199  1.00  0.00    -0.270 OA
HETATM   12  C   UNL     1       5.787  30.221  56.872  1.00  0.00     0.211 A 
HETATM   13  C   UNL     1       8.081  32.467  61.842  1.00  0.00     0.032 A 
HETATM   14  C   UNL     1       9.295  31.790  61.991  1.00  0.00     0.002 A 
ENDROOT
BRANCH  12  15
HETATM   15  C   UNL     1       5.088  28.884  56.688  1.00  0.00     0.140 C 
BRANCH  15  16
HETATM   16  C   UNL     1       5.592  28.160  55.459  1.00  0.00     0.220 C 
HETATM   17  N   UNL     1       4.974  26.943  55.263  1.00  0.00    -0.357 N 
HETATM   18  H   UNL     1       4.068  26.796  55.685  1.00  0.00     0.162 HD
HETATM   19  O   UNL     1       6.435  28.617  54.696  1.00  0.00    -0.274 OA
BRANCH  17  20
HETATM   20  C   UNL     1       5.344  26.110  54.141  1.00  0.00     0.161 C 
BRANCH  20  21
HETATM   21  C   UNL     1       6.206  24.924  54.511  1.00  0.00    -0.038 A 
HETATM   22  C   UNL     1       6.603  24.048  53.484  1.00  0.00     0.048 A 
HETATM   23  C   UNL     1       7.429  22.989  53.802  1.00  0.00     0.105 A 
HETATM   24  C   UNL     1       7.865  22.771  55.086  1.00  0.00     0.105 A 
HETATM   25  O   UNL     1       7.910  22.067  52.926  1.00  0.00    -0.323 OA
HETATM   26  O   UNL     1       8.671  21.681  55.183  1.00  0.00    -0.323 OA
HETATM   27  C   UNL     1       7.508  23.605  56.121  1.00  0.00     0.040 A 
HETATM   28  C   UNL     1       8.717  21.256  53.805  1.00  0.00     0.352 A 
HETATM   29  C   UNL     1       6.683  24.698  55.825  1.00  0.00     0.012 A 
ENDBRANCH  20  21
ENDBRANCH  17  20
ENDBRANCH  15  16
ENDBRANCH  12  15
BRANCH   6  30
HETATM   30  S   UNL     1       3.804  33.556  59.466  1.00  0.00    -0.082 SA
BRANCH  30  31
HETATM   31  C   UNL     1       3.089  33.320  61.122  1.00  0.00     0.185 C 
BRANCH  31  32
HETATM   32  C   UNL     1       3.821  34.016  62.268  1.00  0.00     0.231 C 
HETATM   33  N   UNL     1       4.216  33.192  63.303  1.00  0.00    -0.327 N 
HETATM   34  H   UNL     1       3.877  32.238  63.242  1.00  0.00     0.169 HD
HETATM   35  O   UNL     1       4.057  35.221  62.184  1.00  0.00    -0.272 OA
BRANCH  33  36
HETATM   36  C   UNL     1       4.858  33.550  64.502  1.00  0.00     0.034 A 
HETATM   37  C   UNL     1       4.189  33.989  65.648  1.00  0.00     0.032 A 
HETATM   38  C   UNL     1       4.905  34.306  66.807  1.00  0.00     0.044 A 
HETATM   39  C   UNL     1       6.288  34.184  66.817  1.00  0.00     0.116 A 
HETATM   40  F   UNL     1       6.971  34.483  67.930  1.00  0.00    -0.206 F 
HETATM   41  C   UNL     1       6.972  33.755  65.689  1.00  0.00     0.044 A 
HETATM   42  C   UNL     1       6.257  33.441  64.531  1.00  0.00     0.032 A 
ENDBRANCH  33  36
ENDBRANCH  31  32
ENDBRANCH  30  31
ENDBRANCH   6  30
TORSDOF 8
ENDMDL
