MODEL 1
REMARK VINA RESULT:      -9.6      0.000      0.000
REMARK  6 active torsions:
REMARK  status: ('A' for Active; 'I' for Inactive)
REMARK    1  A    between atoms: C_2  and  C_3 
REMARK       I    between atoms: C_3  and  N_4 
REMARK    2  A    between atoms: N_4  and  C_5 
REMARK    3  A    between atoms: C_7  and  N_8 
REMARK       I    between atoms: N_8  and  C_9 
REMARK    4  A    between atoms: C_9  and  C_10 
REMARK    5  A    between atoms: C_12  and  O_13 
REMARK    6  A    between atoms: O_13  and  C_14 
ROOT
HETATM    1  N   UNL     1       7.695  28.126  55.789  1.00  0.00    -0.323 N 
HETATM    2  C   UNL     1       8.039  28.189  57.128  1.00  0.00     0.256 C 
HETATM    3  O   UNL     1       7.666  27.429  58.014  1.00  0.00    -0.267 OA
HETATM    4  H   UNL     1       7.959  28.904  55.197  1.00  0.00     0.169 HD
ENDROOT
BRANCH   1   5
HETATM    5  C   UNL     1       6.928  27.121  55.156  1.00  0.00     0.037 A 
HETATM    6  C   UNL     1       7.397  25.800  55.248  1.00  0.00     0.059 A 
HETATM    7  C   UNL     1       6.700  24.742  54.652  1.00  0.00     0.036 A 
HETATM    8  C   UNL     1       5.516  25.016  53.961  1.00  0.00     0.029 A 
HETATM    9  C   UNL     1       5.037  26.322  53.870  1.00  0.00     0.004 A 
HETATM   10  C   UNL     1       5.740  27.369  54.467  1.00  0.00     0.029 A 
BRANCH   7  11
HETATM   11  N   UNL     1       7.114  23.394  54.699  1.00  0.00    -0.327 N 
HETATM   12  C   UNL     1       7.694  22.651  53.688  1.00  0.00     0.221 C 
HETATM   13  O   UNL     1       7.955  23.036  52.553  1.00  0.00    -0.273 OA
HETATM   14  H   UNL     1       6.971  22.922  55.583  1.00  0.00     0.169 HD
BRANCH  12  15
HETATM   15  C   UNL     1       8.001  21.226  54.111  1.00  0.00     0.098 C 
HETATM   16  C   UNL     1       8.456  20.370  52.943  1.00  0.00     0.014 C 
ENDBRANCH  12  15
ENDBRANCH   7  11
ENDBRANCH   1   5
BRANCH   2  17
HETATM   17  C   UNL     1       8.928  29.318  57.521  1.00  0.00     0.037 A 
HETATM   18  C   UNL     1       8.515  30.334  58.381  1.00  0.00     0.075 A 
HETATM   19  C   UNL     1       9.400  31.369  58.620  1.00  0.00     0.165 A 
HETATM   20  N   UNL     1      10.636  31.450  58.086  1.00  0.00    -0.237 NA
HETATM   21  C   UNL     1      11.010  30.454  57.259  1.00  0.00     0.120 A 
HETATM   22  C   UNL     1      10.199  29.381  56.943  1.00  0.00     0.036 A 
BRANCH  19  23
HETATM   23  O   UNL     1       8.967  32.377  59.461  1.00  0.00    -0.329 OA
BRANCH  23  24
HETATM   24  C   UNL     1       8.328  31.945  60.683  1.00  0.00     0.130 C 
HETATM   25  C   UNL     1       9.292  31.755  61.885  1.00  0.00     0.032 C 
HETATM   26  C   UNL     1       8.165  32.289  62.787  1.00  0.00     0.005 C 
HETATM   27  C   UNL     1       7.617  33.020  61.548  1.00  0.00     0.032 C 
ENDBRANCH  23  24
ENDBRANCH  19  23
ENDBRANCH   2  17
TORSDOF 6
ENDMDL
MODEL 2
REMARK VINA RESULT:      -9.3      1.480      9.557
REMARK  6 active torsions:
REMARK  status: ('A' for Active; 'I' for Inactive)
REMARK    1  A    between atoms: C_2  and  C_3 
REMARK       I    between atoms: C_3  and  N_4 
REMARK    2  A    between atoms: N_4  and  C_5 
REMARK    3  A    between atoms: C_7  and  N_8 
REMARK       I    between atoms: N_8  and  C_9 
REMARK    4  A    between atoms: C_9  and  C_10 
REMARK    5  A    between atoms: C_12  and  O_13 
REMARK    6  A    between atoms: O_13  and  C_14 
ROOT
HETATM    1  N   UNL     1       8.413  28.154  56.566  1.00  0.00    -0.323 N 
HETATM    2  C   UNL     1       7.956  26.951  57.075  1.00  0.00     0.256 C 
HETATM    3  O   UNL     1       8.009  26.588  58.245  1.00  0.00    -0.267 OA
HETATM    4  H   UNL     1       8.437  28.260  55.560  1.00  0.00     0.169 HD
ENDROOT
BRANCH   1   5
HETATM    5  C   UNL     1       8.938  29.242  57.300  1.00  0.00     0.037 A 
HETATM    6  C   UNL     1       8.200  29.687  58.409  1.00  0.00     0.059 A 
HETATM    7  C   UNL     1       8.646  30.757  59.192  1.00  0.00     0.036 A 
HETATM    8  C   UNL     1       9.851  31.384  58.859  1.00  0.00     0.029 A 
HETATM    9  C   UNL     1      10.596  30.945  57.766  1.00  0.00     0.004 A 
HETATM   10  C   UNL     1      10.141  29.878  56.991  1.00  0.00     0.029 A 
BRANCH   7  11
HETATM   11  N   UNL     1       7.955  31.260  60.315  1.00  0.00    -0.327 N 
HETATM   12  C   UNL     1       8.237  31.041  61.651  1.00  0.00     0.221 C 
HETATM   13  O   UNL     1       9.151  30.360  62.105  1.00  0.00    -0.273 OA
HETATM   14  H   UNL     1       7.162  31.855  60.111  1.00  0.00     0.169 HD
BRANCH  12  15
HETATM   15  C   UNL     1       7.265  31.748  62.578  1.00  0.00     0.098 C 
HETATM   16  C   UNL     1       7.977  32.651  63.569  1.00  0.00     0.014 C 
ENDBRANCH  12  15
ENDBRANCH   7  11
ENDBRANCH   1   5
BRANCH   2  17
HETATM   17  C   UNL     1       7.373  26.002  56.087  1.00  0.00     0.037 A 
HETATM   18  C   UNL     1       7.544  24.622  56.181  1.00  0.00     0.075 A 
HETATM   19  C   UNL     1       7.020  23.841  55.167  1.00  0.00     0.165 A 
HETATM   20  N   UNL     1       6.345  24.328  54.105  1.00  0.00    -0.237 NA
HETATM   21  C   UNL     1       6.194  25.665  54.040  1.00  0.00     0.120 A 
HETATM   22  C   UNL     1       6.690  26.536  54.992  1.00  0.00     0.036 A 
BRANCH  19  23
HETATM   23  O   UNL     1       7.214  22.477  55.268  1.00  0.00    -0.329 OA
BRANCH  23  24
HETATM   24  C   UNL     1       8.250  21.925  54.425  1.00  0.00     0.130 C 
HETATM   25  C   UNL     1       8.525  20.414  54.642  1.00  0.00     0.032 C 
HETATM   26  C   UNL     1       8.774  20.308  53.127  1.00  0.00     0.005 C 
HETATM   27  C   UNL     1       7.874  21.547  52.966  1.00  0.00     0.032 C 
ENDBRANCH  23  24
ENDBRANCH  19  23
ENDBRANCH   2  17
TORSDOF 6
ENDMDL
MODEL 3
REMARK VINA RESULT:      -8.8      1.566      9.514
REMARK  6 active torsions:
REMARK  status: ('A' for Active; 'I' for Inactive)
REMARK    1  A    between atoms: C_2  and  C_3 
REMARK       I    between atoms: C_3  and  N_4 
REMARK    2  A    between atoms: N_4  and  C_5 
REMARK    3  A    between atoms: C_7  and  N_8 
REMARK       I    between atoms: N_8  and  C_9 
REMARK    4  A    between atoms: C_9  and  C_10 
REMARK    5  A    between atoms: C_12  and  O_13 
REMARK    6  A    between atoms: O_13  and  C_14 
ROOT
HETATM    1  N   UNL     1       8.313  28.052  56.566  1.00  0.00    -0.323 N 
HETATM    2  C   UNL     1       7.937  26.813  57.054  1.00  0.00     0.256 C 
HETATM    3  O   UNL     1       8.045  26.420  58.210  1.00  0.00    -0.267 OA
HETATM    4  H   UNL     1       8.301  28.187  55.563  1.00  0.00     0.169 HD
ENDROOT
BRANCH   1   5
HETATM    5  C   UNL     1       8.801  29.147  57.316  1.00  0.00     0.037 A 
HETATM    6  C   UNL     1       7.988  29.630  58.355  1.00  0.00     0.059 A 
HETATM    7  C   UNL     1       8.393  30.709  59.148  1.00  0.00     0.036 A 
HETATM    8  C   UNL     1       9.632  31.306  58.897  1.00  0.00     0.029 A 
HETATM    9  C   UNL     1      10.450  30.830  57.874  1.00  0.00     0.004 A 
HETATM   10  C   UNL     1      10.036  29.755  57.089  1.00  0.00     0.029 A 
BRANCH   7  11
HETATM   11  N   UNL     1       7.627  31.249  60.203  1.00  0.00    -0.327 N 
HETATM   12  C   UNL     1       6.644  32.218  60.126  1.00  0.00     0.221 C 
HETATM   13  O   UNL     1       6.258  32.790  59.112  1.00  0.00    -0.273 OA
HETATM   14  H   UNL     1       7.822  30.875  61.123  1.00  0.00     0.169 HD
BRANCH  12  15
HETATM   15  C   UNL     1       6.040  32.548  61.479  1.00  0.00     0.098 C 
HETATM   16  C   UNL     1       6.787  31.875  62.616  1.00  0.00     0.014 C 
ENDBRANCH  12  15
ENDBRANCH   7  11
ENDBRANCH   1   5
BRANCH   2  17
HETATM   17  C   UNL     1       7.377  25.860  56.055  1.00  0.00     0.037 A 
HETATM   18  C   UNL     1       7.560  24.482  56.148  1.00  0.00     0.075 A 
HETATM   19  C   UNL     1       7.056  23.699  55.125  1.00  0.00     0.165 A 
HETATM   20  N   UNL     1       6.391  24.182  54.056  1.00  0.00    -0.237 NA
HETATM   21  C   UNL     1       6.227  25.518  53.992  1.00  0.00     0.120 A 
HETATM   22  C   UNL     1       6.702  26.391  54.953  1.00  0.00     0.036 A 
BRANCH  19  23
HETATM   23  O   UNL     1       7.262  22.336  55.225  1.00  0.00    -0.329 OA
BRANCH  23  24
HETATM   24  C   UNL     1       8.292  21.792  54.369  1.00  0.00     0.130 C 
HETATM   25  C   UNL     1       8.732  20.347  54.725  1.00  0.00     0.032 C 
HETATM   26  C   UNL     1       8.891  20.094  53.215  1.00  0.00     0.005 C 
HETATM   27  C   UNL     1       7.863  21.218  52.992  1.00  0.00     0.032 C 
ENDBRANCH  23  24
ENDBRANCH  19  23
ENDBRANCH   2  17
TORSDOF 6
ENDMDL
MODEL 4
REMARK VINA RESULT:      -8.7      1.953      8.941
REMARK  6 active torsions:
REMARK  status: ('A' for Active; 'I' for Inactive)
REMARK    1  A    between atoms: C_2  and  C_3 
REMARK       I    between atoms: C_3  and  N_4 
REMARK    2  A    between atoms: N_4  and  C_5 
REMARK    3  A    between atoms: C_7  and  N_8 
REMARK       I    between atoms: N_8  and  C_9 
REMARK    4  A    between atoms: C_9  and  C_10 
REMARK    5  A    between atoms: C_12  and  O_13 
REMARK    6  A    between atoms: O_13  and  C_14 
ROOT
HETATM    1  N   UNL     1       7.076  28.072  55.669  1.00  0.00    -0.323 N 
HETATM    2  C   UNL     1       6.351  26.901  55.541  1.00  0.00     0.256 C 
HETATM    3  O   UNL     1       5.354  26.586  56.182  1.00  0.00    -0.267 OA
HETATM    4  H   UNL     1       7.959  28.135  55.179  1.00  0.00     0.169 HD
ENDROOT
BRANCH   1   5
HETATM    5  C   UNL     1       6.760  29.181  56.488  1.00  0.00     0.037 A 
HETATM    6  C   UNL     1       7.497  29.334  57.675  1.00  0.00     0.059 A 
HETATM    7  C   UNL     1       7.252  30.404  58.544  1.00  0.00     0.036 A 
HETATM    8  C   UNL     1       6.260  31.331  58.213  1.00  0.00     0.029 A 
HETATM    9  C   UNL     1       5.529  31.193  57.034  1.00  0.00     0.004 A 
HETATM   10  C   UNL     1       5.780  30.123  56.175  1.00  0.00     0.029 A 
BRANCH   7  11
HETATM   11  N   UNL     1       7.948  30.617  59.753  1.00  0.00    -0.327 N 
HETATM   12  C   UNL     1       8.893  31.588  60.026  1.00  0.00     0.221 C 
HETATM   13  O   UNL     1       9.303  32.449  59.255  1.00  0.00    -0.273 OA
HETATM   14  H   UNL     1       7.719  29.983  60.508  1.00  0.00     0.169 HD
BRANCH  12  15
HETATM   15  C   UNL     1       9.427  31.502  61.444  1.00  0.00     0.098 C 
HETATM   16  C   UNL     1       8.404  30.922  62.404  1.00  0.00     0.014 C 
ENDBRANCH  12  15
ENDBRANCH   7  11
ENDBRANCH   1   5
BRANCH   2  17
HETATM   17  C   UNL     1       6.863  25.921  54.543  1.00  0.00     0.037 A 
HETATM   18  C   UNL     1       6.807  24.543  54.747  1.00  0.00     0.075 A 
HETATM   19  C   UNL     1       7.378  23.730  53.786  1.00  0.00     0.165 A 
HETATM   20  N   UNL     1       7.971  24.184  52.662  1.00  0.00    -0.237 NA
HETATM   21  C   UNL     1       8.009  25.520  52.489  1.00  0.00     0.120 A 
HETATM   22  C   UNL     1       7.481  26.421  53.394  1.00  0.00     0.036 A 
BRANCH  19  23
HETATM   23  O   UNL     1       7.330  22.368  54.013  1.00  0.00    -0.329 OA
BRANCH  23  24
HETATM   24  C   UNL     1       7.732  21.936  55.332  1.00  0.00     0.130 C 
HETATM   25  C   UNL     1       7.680  20.401  55.555  1.00  0.00     0.032 C 
HETATM   26  C   UNL     1       8.939  20.551  56.428  1.00  0.00     0.005 C 
HETATM   27  C   UNL     1       9.252  21.829  55.629  1.00  0.00     0.032 C 
ENDBRANCH  23  24
ENDBRANCH  19  23
ENDBRANCH   2  17
TORSDOF 6
ENDMDL
MODEL 5
REMARK VINA RESULT:      -8.4      4.767      8.036
REMARK  6 active torsions:
REMARK  status: ('A' for Active; 'I' for Inactive)
REMARK    1  A    between atoms: C_2  and  C_3 
REMARK       I    between atoms: C_3  and  N_4 
REMARK    2  A    between atoms: N_4  and  C_5 
REMARK    3  A    between atoms: C_7  and  N_8 
REMARK       I    between atoms: N_8  and  C_9 
REMARK    4  A    between atoms: C_9  and  C_10 
REMARK    5  A    between atoms: C_12  and  O_13 
REMARK    6  A    between atoms: O_13  and  C_14 
ROOT
HETATM    1  N   UNL     1       6.607  26.506  53.336  1.00  0.00    -0.323 N 
HETATM    2  C   UNL     1       6.225  26.390  54.661  1.00  0.00     0.256 C 
HETATM    3  O   UNL     1       5.294  26.973  55.205  1.00  0.00    -0.267 OA
HETATM    4  H   UNL     1       7.481  26.078  53.059  1.00  0.00     0.169 HD
ENDROOT
BRANCH   1   5
HETATM    5  C   UNL     1       5.947  27.239  52.323  1.00  0.00     0.037 A 
HETATM    6  C   UNL     1       5.247  26.506  51.350  1.00  0.00     0.059 A 
HETATM    7  C   UNL     1       4.565  27.150  50.312  1.00  0.00     0.036 A 
HETATM    8  C   UNL     1       4.583  28.547  50.254  1.00  0.00     0.029 A 
HETATM    9  C   UNL     1       5.267  29.285  51.219  1.00  0.00     0.004 A 
HETATM   10  C   UNL     1       5.945  28.633  52.249  1.00  0.00     0.029 A 
BRANCH   7  11
HETATM   11  N   UNL     1       3.847  26.479  49.299  1.00  0.00    -0.327 N 
HETATM   12  C   UNL     1       4.175  26.368  47.961  1.00  0.00     0.221 C 
HETATM   13  O   UNL     1       5.162  26.840  47.407  1.00  0.00    -0.273 OA
HETATM   14  H   UNL     1       2.993  26.024  49.596  1.00  0.00     0.169 HD
BRANCH  12  15
HETATM   15  C   UNL     1       3.153  25.569  47.172  1.00  0.00     0.098 C 
HETATM   16  C   UNL     1       2.761  24.286  47.883  1.00  0.00     0.014 C 
ENDBRANCH  12  15
ENDBRANCH   7  11
ENDBRANCH   1   5
BRANCH   2  17
HETATM   17  C   UNL     1       7.055  25.485  55.504  1.00  0.00     0.037 A 
HETATM   18  C   UNL     1       7.142  24.113  55.272  1.00  0.00     0.075 A 
HETATM   19  C   UNL     1       7.885  23.360  56.162  1.00  0.00     0.165 A 
HETATM   20  N   UNL     1       8.539  23.868  57.226  1.00  0.00    -0.237 NA
HETATM   21  C   UNL     1       8.439  25.197  57.426  1.00  0.00     0.120 A 
HETATM   22  C   UNL     1       7.712  26.038  56.606  1.00  0.00     0.036 A 
BRANCH  19  23
HETATM   23  O   UNL     1       7.946  21.999  55.927  1.00  0.00    -0.329 OA
BRANCH  23  24
HETATM   24  C   UNL     1       8.660  21.598  54.736  1.00  0.00     0.130 C 
HETATM   25  C   UNL     1       8.762  20.064  54.529  1.00  0.00     0.032 C 
HETATM   26  C   UNL     1       8.619  20.324  53.018  1.00  0.00     0.005 C 
HETATM   27  C   UNL     1       7.893  21.631  53.386  1.00  0.00     0.032 C 
ENDBRANCH  23  24
ENDBRANCH  19  23
ENDBRANCH   2  17
TORSDOF 6
ENDMDL
MODEL 6
REMARK VINA RESULT:      -8.4      3.367      6.103
REMARK  6 active torsions:
REMARK  status: ('A' for Active; 'I' for Inactive)
REMARK    1  A    between atoms: C_2  and  C_3 
REMARK       I    between atoms: C_3  and  N_4 
REMARK    2  A    between atoms: N_4  and  C_5 
REMARK    3  A    between atoms: C_7  and  N_8 
REMARK       I    between atoms: N_8  and  C_9 
REMARK    4  A    between atoms: C_9  and  C_10 
REMARK    5  A    between atoms: C_12  and  O_13 
REMARK    6  A    between atoms: O_13  and  C_14 
ROOT
HETATM    1  N   UNL     1       7.269  31.187  59.656  1.00  0.00    -0.323 N 
HETATM    2  C   UNL     1       7.455  31.492  60.993  1.00  0.00     0.256 C 
HETATM    3  O   UNL     1       8.403  31.154  61.693  1.00  0.00    -0.267 OA
HETATM    4  H   UNL     1       6.372  31.407  59.243  1.00  0.00     0.169 HD
ENDROOT
BRANCH   1   5
HETATM    5  C   UNL     1       8.176  30.514  58.804  1.00  0.00     0.037 A 
HETATM    6  C   UNL     1       7.727  29.331  58.193  1.00  0.00     0.059 A 
HETATM    7  C   UNL     1       8.557  28.601  57.334  1.00  0.00     0.036 A 
HETATM    8  C   UNL     1       9.850  29.069  57.083  1.00  0.00     0.029 A 
HETATM    9  C   UNL     1      10.303  30.246  57.678  1.00  0.00     0.004 A 
HETATM   10  C   UNL     1       9.468  30.965  58.533  1.00  0.00     0.029 A 
BRANCH   7  11
HETATM   11  N   UNL     1       8.176  27.404  56.692  1.00  0.00    -0.327 N 
HETATM   12  C   UNL     1       7.935  26.172  57.271  1.00  0.00     0.221 C 
HETATM   13  O   UNL     1       8.011  25.895  58.463  1.00  0.00    -0.273 OA
HETATM   14  H   UNL     1       8.063  27.463  55.688  1.00  0.00     0.169 HD
BRANCH  12  15
HETATM   15  C   UNL     1       7.548  25.114  56.254  1.00  0.00     0.098 C 
HETATM   16  C   UNL     1       7.350  25.700  54.867  1.00  0.00     0.014 C 
ENDBRANCH  12  15
ENDBRANCH   7  11
ENDBRANCH   1   5
BRANCH   2  17
HETATM   17  C   UNL     1       6.372  32.283  61.639  1.00  0.00     0.037 A 
HETATM   18  C   UNL     1       6.115  32.226  63.008  1.00  0.00     0.075 A 
HETATM   19  C   UNL     1       5.038  32.948  63.488  1.00  0.00     0.165 A 
HETATM   20  N   UNL     1       4.232  33.711  62.721  1.00  0.00    -0.237 NA
HETATM   21  C   UNL     1       4.503  33.748  61.401  1.00  0.00     0.120 A 
HETATM   22  C   UNL     1       5.546  33.055  60.817  1.00  0.00     0.036 A 
BRANCH  19  23
HETATM   23  O   UNL     1       4.788  32.866  64.844  1.00  0.00    -0.329 OA
BRANCH  23  24
HETATM   24  C   UNL     1       5.243  33.986  65.637  1.00  0.00     0.130 C 
HETATM   25  C   UNL     1       4.702  34.012  67.091  1.00  0.00     0.032 C 
HETATM   26  C   UNL     1       6.069  34.575  67.520  1.00  0.00     0.005 C 
HETATM   27  C   UNL     1       6.659  33.898  66.269  1.00  0.00     0.032 C 
ENDBRANCH  23  24
ENDBRANCH  19  23
ENDBRANCH   2  17
TORSDOF 6
ENDMDL
MODEL 7
REMARK VINA RESULT:      -8.3      2.437      3.268
REMARK  6 active torsions:
REMARK  status: ('A' for Active; 'I' for Inactive)
REMARK    1  A    between atoms: C_2  and  C_3 
REMARK       I    between atoms: C_3  and  N_4 
REMARK    2  A    between atoms: N_4  and  C_5 
REMARK    3  A    between atoms: C_7  and  N_8 
REMARK       I    between atoms: N_8  and  C_9 
REMARK    4  A    between atoms: C_9  and  C_10 
REMARK    5  A    between atoms: C_12  and  O_13 
REMARK    6  A    between atoms: O_13  and  C_14 
ROOT
HETATM    1  N   UNL     1       7.373  28.436  56.058  1.00  0.00    -0.323 N 
HETATM    2  C   UNL     1       8.358  28.263  57.014  1.00  0.00     0.256 C 
HETATM    3  O   UNL     1       8.765  27.194  57.456  1.00  0.00    -0.267 OA
HETATM    4  H   UNL     1       7.036  29.376  55.895  1.00  0.00     0.169 HD
ENDROOT
BRANCH   1   5
HETATM    5  C   UNL     1       6.711  27.423  55.327  1.00  0.00     0.037 A 
HETATM    6  C   UNL     1       6.579  27.611  53.941  1.00  0.00     0.059 A 
HETATM    7  C   UNL     1       5.939  26.659  53.140  1.00  0.00     0.036 A 
HETATM    8  C   UNL     1       5.429  25.503  53.739  1.00  0.00     0.029 A 
HETATM    9  C   UNL     1       5.562  25.302  55.113  1.00  0.00     0.004 A 
HETATM   10  C   UNL     1       6.201  26.258  55.902  1.00  0.00     0.029 A 
BRANCH   7  11
HETATM   11  N   UNL     1       5.766  26.783  51.745  1.00  0.00    -0.327 N 
HETATM   12  C   UNL     1       4.870  27.593  51.072  1.00  0.00     0.221 C 
HETATM   13  O   UNL     1       4.053  28.358  51.575  1.00  0.00    -0.273 OA
HETATM   14  H   UNL     1       6.376  26.212  51.175  1.00  0.00     0.169 HD
BRANCH  12  15
HETATM   15  C   UNL     1       4.974  27.454  49.564  1.00  0.00     0.098 C 
HETATM   16  C   UNL     1       4.180  26.268  49.045  1.00  0.00     0.014 C 
ENDBRANCH  12  15
ENDBRANCH   7  11
ENDBRANCH   1   5
BRANCH   2  17
HETATM   17  C   UNL     1       8.950  29.508  57.576  1.00  0.00     0.037 A 
HETATM   18  C   UNL     1       8.234  30.374  58.401  1.00  0.00     0.075 A 
HETATM   19  C   UNL     1       8.862  31.538  58.806  1.00  0.00     0.165 A 
HETATM   20  N   UNL     1      10.122  31.880  58.465  1.00  0.00    -0.237 NA
HETATM   21  C   UNL     1      10.791  31.024  57.667  1.00  0.00     0.120 A 
HETATM   22  C   UNL     1      10.253  29.842  57.196  1.00  0.00     0.036 A 
BRANCH  19  23
HETATM   23  O   UNL     1       8.132  32.393  59.609  1.00  0.00    -0.329 OA
BRANCH  23  24
HETATM   24  C   UNL     1       7.844  31.911  60.941  1.00  0.00     0.130 C 
HETATM   25  C   UNL     1       9.078  31.826  61.879  1.00  0.00     0.032 C 
HETATM   26  C   UNL     1       8.151  32.256  63.030  1.00  0.00     0.005 C 
HETATM   27  C   UNL     1       7.258  32.920  61.966  1.00  0.00     0.032 C 
ENDBRANCH  23  24
ENDBRANCH  19  23
ENDBRANCH   2  17
TORSDOF 6
ENDMDL
MODEL 8
REMARK VINA RESULT:      -8.1      3.116      9.863
REMARK  6 active torsions:
REMARK  status: ('A' for Active; 'I' for Inactive)
REMARK    1  A    between atoms: C_2  and  C_3 
REMARK       I    between atoms: C_3  and  N_4 
REMARK    2  A    between atoms: N_4  and  C_5 
REMARK    3  A    between atoms: C_7  and  N_8 
REMARK       I    between atoms: N_8  and  C_9 
REMARK    4  A    between atoms: C_9  and  C_10 
REMARK    5  A    between atoms: C_12  and  O_13 
REMARK    6  A    between atoms: O_13  and  C_14 
ROOT
HETATM    1  N   UNL     1       7.988  31.195  60.547  1.00  0.00    -0.323 N 
HETATM    2  C   UNL     1       8.806  31.561  59.493  1.00  0.00     0.256 C 
HETATM    3  O   UNL     1       9.283  32.672  59.291  1.00  0.00    -0.267 OA
HETATM    4  H   UNL     1       7.550  30.283  60.509  1.00  0.00     0.169 HD
ENDROOT
BRANCH   1   5
HETATM    5  C   UNL     1       7.619  31.995  61.653  1.00  0.00     0.037 A 
HETATM    6  C   UNL     1       6.451  32.765  61.528  1.00  0.00     0.059 A 
HETATM    7  C   UNL     1       6.011  33.584  62.574  1.00  0.00     0.036 A 
HETATM    8  C   UNL     1       6.751  33.626  63.759  1.00  0.00     0.029 A 
HETATM    9  C   UNL     1       7.907  32.859  63.897  1.00  0.00     0.004 A 
HETATM   10  C   UNL     1       8.338  32.047  62.848  1.00  0.00     0.029 A 
BRANCH   7  11
HETATM   11  N   UNL     1       4.852  34.388  62.517  1.00  0.00    -0.327 N 
HETATM   12  C   UNL     1       3.535  33.984  62.634  1.00  0.00     0.221 C 
HETATM   13  O   UNL     1       3.133  32.839  62.809  1.00  0.00    -0.273 OA
HETATM   14  H   UNL     1       5.012  35.378  62.379  1.00  0.00     0.169 HD
BRANCH  12  15
HETATM   15  C   UNL     1       2.557  35.139  62.517  1.00  0.00     0.098 C 
HETATM   16  C   UNL     1       1.229  34.703  61.921  1.00  0.00     0.014 C 
ENDBRANCH  12  15
ENDBRANCH   7  11
ENDBRANCH   1   5
BRANCH   2  17
HETATM   17  C   UNL     1       9.102  30.495  58.495  1.00  0.00     0.037 A 
HETATM   18  C   UNL     1       8.269  29.394  58.303  1.00  0.00     0.075 A 
HETATM   19  C   UNL     1       8.680  28.430  57.401  1.00  0.00     0.165 A 
HETATM   20  N   UNL     1       9.824  28.495  56.688  1.00  0.00    -0.237 NA
HETATM   21  C   UNL     1      10.609  29.571  56.892  1.00  0.00     0.120 A 
HETATM   22  C   UNL     1      10.299  30.584  57.780  1.00  0.00     0.036 A 
BRANCH  19  23
HETATM   23  O   UNL     1       7.851  27.337  57.237  1.00  0.00    -0.329 OA
BRANCH  23  24
HETATM   24  C   UNL     1       6.996  27.366  56.072  1.00  0.00     0.130 C 
HETATM   25  C   UNL     1       7.189  26.174  55.097  1.00  0.00     0.032 C 
HETATM   26  C   UNL     1       5.671  26.219  54.846  1.00  0.00     0.005 C 
HETATM   27  C   UNL     1       5.533  26.870  56.234  1.00  0.00     0.032 C 
ENDBRANCH  23  24
ENDBRANCH  19  23
ENDBRANCH   2  17
TORSDOF 6
ENDMDL
MODEL 9
REMARK VINA RESULT:      -8.1      1.941      2.412
REMARK  6 active torsions:
REMARK  status: ('A' for Active; 'I' for Inactive)
REMARK    1  A    between atoms: C_2  and  C_3 
REMARK       I    between atoms: C_3  and  N_4 
REMARK    2  A    between atoms: N_4  and  C_5 
REMARK    3  A    between atoms: C_7  and  N_8 
REMARK       I    between atoms: N_8  and  C_9 
REMARK    4  A    between atoms: C_9  and  C_10 
REMARK    5  A    between atoms: C_12  and  O_13 
REMARK    6  A    between atoms: O_13  and  C_14 
ROOT
HETATM    1  N   UNL     1       6.712  27.831  55.553  1.00  0.00    -0.323 N 
HETATM    2  C   UNL     1       7.474  28.304  56.607  1.00  0.00     0.256 C 
HETATM    3  O   UNL     1       8.522  27.824  57.022  1.00  0.00    -0.267 OA
HETATM    4  H   UNL     1       5.797  28.239  55.412  1.00  0.00     0.169 HD
ENDROOT
BRANCH   1   5
HETATM    5  C   UNL     1       7.036  26.764  54.683  1.00  0.00     0.037 A 
HETATM    6  C   UNL     1       6.951  25.461  55.203  1.00  0.00     0.059 A 
HETATM    7  C   UNL     1       7.252  24.347  54.412  1.00  0.00     0.036 A 
HETATM    8  C   UNL     1       7.638  24.544  53.083  1.00  0.00     0.029 A 
HETATM    9  C   UNL     1       7.718  25.831  52.554  1.00  0.00     0.004 A 
HETATM   10  C   UNL     1       7.417  26.936  53.351  1.00  0.00     0.029 A 
BRANCH   7  11
HETATM   11  N   UNL     1       7.193  23.013  54.868  1.00  0.00    -0.327 N 
HETATM   12  C   UNL     1       8.250  22.170  55.157  1.00  0.00     0.221 C 
HETATM   13  O   UNL     1       9.444  22.435  55.068  1.00  0.00    -0.273 OA
HETATM   14  H   UNL     1       6.263  22.635  55.000  1.00  0.00     0.169 HD
BRANCH  12  15
HETATM   15  C   UNL     1       7.794  20.798  55.621  1.00  0.00     0.098 C 
HETATM   16  C   UNL     1       8.783  20.164  56.584  1.00  0.00     0.014 C 
ENDBRANCH  12  15
ENDBRANCH   7  11
ENDBRANCH   1   5
BRANCH   2  17
HETATM   17  C   UNL     1       6.937  29.499  57.316  1.00  0.00     0.037 A 
HETATM   18  C   UNL     1       7.717  30.279  58.168  1.00  0.00     0.075 A 
HETATM   19  C   UNL     1       7.094  31.321  58.829  1.00  0.00     0.165 A 
HETATM   20  N   UNL     1       5.790  31.637  58.693  1.00  0.00    -0.237 NA
HETATM   21  C   UNL     1       5.060  30.867  57.863  1.00  0.00     0.120 A 
HETATM   22  C   UNL     1       5.580  29.794  57.164  1.00  0.00     0.036 A 
BRANCH  19  23
HETATM   23  O   UNL     1       7.878  32.074  59.684  1.00  0.00    -0.329 OA
BRANCH  23  24
HETATM   24  C   UNL     1       7.810  31.712  61.081  1.00  0.00     0.130 C 
HETATM   25  C   UNL     1       9.114  31.973  61.881  1.00  0.00     0.032 C 
HETATM   26  C   UNL     1       8.226  32.359  63.077  1.00  0.00     0.005 C 
HETATM   27  C   UNL     1       7.129  32.711  62.056  1.00  0.00     0.032 C 
ENDBRANCH  23  24
ENDBRANCH  19  23
ENDBRANCH   2  17
TORSDOF 6
ENDMDL
MODEL 10
REMARK VINA RESULT:      -7.9      4.521      8.249
REMARK  6 active torsions:
REMARK  status: ('A' for Active; 'I' for Inactive)
REMARK    1  A    between atoms: C_2  and  C_3 
REMARK       I    between atoms: C_3  and  N_4 
REMARK    2  A    between atoms: N_4  and  C_5 
REMARK    3  A    between atoms: C_7  and  N_8 
REMARK       I    between atoms: N_8  and  C_9 
REMARK    4  A    between atoms: C_9  and  C_10 
REMARK    5  A    between atoms: C_12  and  O_13 
REMARK    6  A    between atoms: O_13  and  C_14 
ROOT
HETATM    1  N   UNL     1       5.831  27.485  54.880  1.00  0.00    -0.323 N 
HETATM    2  C   UNL     1       5.700  26.770  56.057  1.00  0.00     0.256 C 
HETATM    3  O   UNL     1       4.856  26.947  56.928  1.00  0.00    -0.267 OA
HETATM    4  H   UNL     1       6.661  27.327  54.322  1.00  0.00     0.169 HD
ENDROOT
BRANCH   1   5
HETATM    5  C   UNL     1       4.964  28.494  54.398  1.00  0.00     0.037 A 
HETATM    6  C   UNL     1       4.149  28.170  53.300  1.00  0.00     0.059 A 
HETATM    7  C   UNL     1       3.262  29.107  52.759  1.00  0.00     0.036 A 
HETATM    8  C   UNL     1       3.189  30.380  53.331  1.00  0.00     0.029 A 
HETATM    9  C   UNL     1       3.987  30.709  54.426  1.00  0.00     0.004 A 
HETATM   10  C   UNL     1       4.869  29.768  54.957  1.00  0.00     0.029 A 
BRANCH   7  11
HETATM   11  N   UNL     1       2.419  28.854  51.655  1.00  0.00    -0.327 N 
HETATM   12  C   UNL     1       2.749  28.884  50.313  1.00  0.00     0.221 C 
HETATM   13  O   UNL     1       3.849  29.140  49.835  1.00  0.00    -0.273 OA
HETATM   14  H   UNL     1       1.460  28.620  51.881  1.00  0.00     0.169 HD
BRANCH  12  15
HETATM   15  C   UNL     1       1.570  28.560  49.413  1.00  0.00     0.098 C 
HETATM   16  C   UNL     1       1.911  27.492  48.390  1.00  0.00     0.014 C 
ENDBRANCH  12  15
ENDBRANCH   7  11
ENDBRANCH   1   5
BRANCH   2  17
HETATM   17  C   UNL     1       6.712  25.702  56.289  1.00  0.00     0.037 A 
HETATM   18  C   UNL     1       6.555  24.403  55.809  1.00  0.00     0.075 A 
HETATM   19  C   UNL     1       7.523  23.475  56.146  1.00  0.00     0.165 A 
HETATM   20  N   UNL     1       8.611  23.749  56.894  1.00  0.00    -0.237 NA
HETATM   21  C   UNL     1       8.738  25.013  57.345  1.00  0.00     0.120 A 
HETATM   22  C   UNL     1       7.822  26.013  57.077  1.00  0.00     0.036 A 
BRANCH  19  23
HETATM   23  O   UNL     1       7.342  22.188  55.676  1.00  0.00    -0.329 OA
BRANCH  23  24
HETATM   24  C   UNL     1       8.282  21.748  54.669  1.00  0.00     0.130 C 
HETATM   25  C   UNL     1       8.057  20.298  54.164  1.00  0.00     0.032 C 
HETATM   26  C   UNL     1       8.487  20.787  52.770  1.00  0.00     0.005 C 
HETATM   27  C   UNL     1       8.033  22.193  53.203  1.00  0.00     0.032 C 
ENDBRANCH  23  24
ENDBRANCH  19  23
ENDBRANCH   2  17
TORSDOF 6
ENDMDL
