MODEL 1
REMARK VINA RESULT:      -7.9      0.000      0.000
REMARK  3 active torsions:
REMARK  status: ('A' for Active; 'I' for Inactive)
REMARK    1  A    between atoms: C_2  and  C_3 
REMARK    2  A    between atoms: C_9  and  C_10 
REMARK    3  A    between atoms: C_20  and  N_21 
ROOT
HETATM    1  C   UNL     1       7.849  23.712  56.028  1.00  0.00     0.043 A 
HETATM    2  N   UNL     1       9.051  23.661  56.703  1.00  0.00    -0.279 N 
HETATM    3  H   UNL     1       9.685  22.874  56.789  1.00  0.00     0.189 HD
HETATM    4  N   UNL     1       9.364  24.801  57.349  1.00  0.00    -0.148 NA
HETATM    5  C   UNL     1       8.356  25.601  57.027  1.00  0.00     0.199 A 
HETATM    6  C   UNL     1       7.398  25.009  56.196  1.00  0.00     0.035 A 
HETATM    7  C   UNL     1       6.183  25.765  55.795  1.00  0.00     0.106 A 
HETATM    8  C   UNL     1       6.120  27.107  56.501  1.00  0.00     0.067 A 
HETATM    9  C   UNL     1       4.787  27.834  56.417  1.00  0.00     0.020 C 
HETATM   10  N   UNL     1       3.683  28.438  56.347  1.00  0.00    -0.096 N 
HETATM   11  C   UNL     1       7.108  27.579  57.303  1.00  0.00     0.139 A 
HETATM   12  O   UNL     1       8.285  26.848  57.533  1.00  0.00    -0.277 OA
ENDROOT
BRANCH   7  13
HETATM   13  C   UNL     1       6.146  25.830  54.273  1.00  0.00    -0.022 A 
HETATM   14  C   UNL     1       6.944  26.664  53.466  1.00  0.00     0.041 A 
HETATM   15 CL   UNL     1       8.107  27.773  54.096  1.00  0.00    -0.084 Cl
HETATM   16  C   UNL     1       6.818  26.644  52.069  1.00  0.00     0.024 A 
HETATM   17  C   UNL     1       5.891  25.808  51.451  1.00  0.00     0.002 A 
HETATM   18  C   UNL     1       5.082  24.990  52.227  1.00  0.00     0.001 A 
HETATM   19  C   UNL     1       5.206  25.001  53.618  1.00  0.00     0.010 A 
ENDBRANCH   7  13
BRANCH  11  20
HETATM   20  N   UNL     1       7.073  28.767  57.997  1.00  0.00    -0.282 NA
HETATM   21  H   UNL     1       6.157  29.186  58.133  1.00  0.00     0.126 HD
HETATM   22  H   UNL     1       7.633  28.731  58.847  1.00  0.00     0.126 HD
ENDBRANCH  11  20
BRANCH   1  23
HETATM   23  C   UNL     1       7.265  22.531  55.315  1.00  0.00     0.029 C 
HETATM   24  C   UNL     1       7.634  21.221  56.015  1.00  0.00     0.016 C 
HETATM   25  C   UNL     1       7.683  22.503  53.846  1.00  0.00     0.016 C 
ENDBRANCH   1  23
TORSDOF 3
ENDMDL
MODEL 2
REMARK VINA RESULT:      -7.8      2.467      4.775
REMARK  3 active torsions:
REMARK  status: ('A' for Active; 'I' for Inactive)
REMARK    1  A    between atoms: C_2  and  C_3 
REMARK    2  A    between atoms: C_9  and  C_10 
REMARK    3  A    between atoms: C_20  and  N_21 
ROOT
HETATM    1  C   UNL     1       4.793  26.974  52.827  1.00  0.00     0.043 A 
HETATM    2  N   UNL     1       3.508  27.475  52.862  1.00  0.00    -0.279 N 
HETATM    3  H   UNL     1       2.726  27.230  52.263  1.00  0.00     0.189 HD
HETATM    4  N   UNL     1       3.319  28.434  53.789  1.00  0.00    -0.148 NA
HETATM    5  C   UNL     1       4.504  28.498  54.383  1.00  0.00     0.199 A 
HETATM    6  C   UNL     1       5.454  27.612  53.862  1.00  0.00     0.035 A 
HETATM    7  C   UNL     1       6.843  27.607  54.390  1.00  0.00     0.106 A 
HETATM    8  C   UNL     1       7.048  28.726  55.395  1.00  0.00     0.067 A 
HETATM    9  C   UNL     1       8.491  29.019  55.770  1.00  0.00     0.020 C 
HETATM   10  N   UNL     1       9.688  29.262  56.083  1.00  0.00    -0.096 N 
HETATM   11  C   UNL     1       6.050  29.542  55.820  1.00  0.00     0.139 A 
HETATM   12  O   UNL     1       4.731  29.399  55.359  1.00  0.00    -0.277 OA
ENDROOT
BRANCH   7  13
HETATM   13  C   UNL     1       7.148  26.206  54.908  1.00  0.00    -0.022 A 
HETATM   14  C   UNL     1       7.760  25.172  54.173  1.00  0.00     0.041 A 
HETATM   15 CL   UNL     1       8.260  25.337  52.530  1.00  0.00    -0.084 Cl
HETATM   16  C   UNL     1       7.986  23.916  54.754  1.00  0.00     0.024 A 
HETATM   17  C   UNL     1       7.597  23.660  56.066  1.00  0.00     0.002 A 
HETATM   18  C   UNL     1       6.977  24.658  56.805  1.00  0.00     0.001 A 
HETATM   19  C   UNL     1       6.754  25.913  56.234  1.00  0.00     0.010 A 
ENDBRANCH   7  13
BRANCH  11  20
HETATM   20  N   UNL     1       6.199  30.595  56.694  1.00  0.00    -0.282 NA
HETATM   21  H   UNL     1       5.578  31.388  56.558  1.00  0.00     0.126 HD
HETATM   22  H   UNL     1       6.257  30.284  57.661  1.00  0.00     0.126 HD
ENDBRANCH  11  20
BRANCH   1  23
HETATM   23  C   UNL     1       5.247  25.964  51.817  1.00  0.00     0.029 C 
HETATM   24  C   UNL     1       4.860  26.386  50.398  1.00  0.00     0.016 C 
HETATM   25  C   UNL     1       4.709  24.572  52.141  1.00  0.00     0.016 C 
ENDBRANCH   1  23
TORSDOF 3
ENDMDL
MODEL 3
REMARK VINA RESULT:      -7.4      2.448      5.080
REMARK  3 active torsions:
REMARK  status: ('A' for Active; 'I' for Inactive)
REMARK    1  A    between atoms: C_2  and  C_3 
REMARK    2  A    between atoms: C_9  and  C_10 
REMARK    3  A    between atoms: C_20  and  N_21 
ROOT
HETATM    1  C   UNL     1       4.778  27.753  51.993  1.00  0.00     0.043 A 
HETATM    2  N   UNL     1       3.461  28.159  52.047  1.00  0.00    -0.279 N 
HETATM    3  H   UNL     1       2.802  28.243  51.280  1.00  0.00     0.189 HD
HETATM    4  N   UNL     1       3.049  28.522  53.278  1.00  0.00    -0.148 NA
HETATM    5  C   UNL     1       4.123  28.286  54.021  1.00  0.00     0.199 A 
HETATM    6  C   UNL     1       5.218  27.788  53.305  1.00  0.00     0.035 A 
HETATM    7  C   UNL     1       6.509  27.528  53.993  1.00  0.00     0.106 A 
HETATM    8  C   UNL     1       6.459  27.992  55.437  1.00  0.00     0.067 A 
HETATM    9  C   UNL     1       7.798  28.067  56.153  1.00  0.00     0.020 C 
HETATM   10  N   UNL     1       8.908  28.127  56.747  1.00  0.00    -0.096 N 
HETATM   11  C   UNL     1       5.338  28.476  56.030  1.00  0.00     0.139 A 
HETATM   12  O   UNL     1       4.120  28.576  55.337  1.00  0.00    -0.277 OA
ENDROOT
BRANCH   7  13
HETATM   13  C   UNL     1       6.864  26.059  53.795  1.00  0.00    -0.022 A 
HETATM   14  C   UNL     1       6.427  24.991  54.604  1.00  0.00     0.041 A 
HETATM   15 CL   UNL     1       5.408  25.193  55.981  1.00  0.00    -0.084 Cl
HETATM   16  C   UNL     1       6.825  23.675  54.329  1.00  0.00     0.024 A 
HETATM   17  C   UNL     1       7.672  23.397  53.259  1.00  0.00     0.002 A 
HETATM   18  C   UNL     1       8.128  24.434  52.458  1.00  0.00     0.001 A 
HETATM   19  C   UNL     1       7.731  25.747  52.723  1.00  0.00     0.010 A 
ENDBRANCH   7  13
BRANCH  11  20
HETATM   20  N   UNL     1       5.258  28.949  57.320  1.00  0.00    -0.282 NA
HETATM   21  H   UNL     1       4.429  29.486  57.556  1.00  0.00     0.126 HD
HETATM   22  H   UNL     1       5.487  28.231  58.005  1.00  0.00     0.126 HD
ENDBRANCH  11  20
BRANCH   1  23
HETATM   23  C   UNL     1       5.467  27.391  50.713  1.00  0.00     0.029 C 
HETATM   24  C   UNL     1       5.426  28.549  49.714  1.00  0.00     0.016 C 
HETATM   25  C   UNL     1       4.878  26.119  50.103  1.00  0.00     0.016 C 
ENDBRANCH   1  23
TORSDOF 3
ENDMDL
MODEL 4
REMARK VINA RESULT:      -7.4      2.102      4.612
REMARK  3 active torsions:
REMARK  status: ('A' for Active; 'I' for Inactive)
REMARK    1  A    between atoms: C_2  and  C_3 
REMARK    2  A    between atoms: C_9  and  C_10 
REMARK    3  A    between atoms: C_20  and  N_21 
ROOT
HETATM    1  C   UNL     1       8.016  27.004  56.200  1.00  0.00     0.043 A 
HETATM    2  N   UNL     1       7.859  27.180  57.559  1.00  0.00    -0.279 N 
HETATM    3  H   UNL     1       7.798  28.053  58.073  1.00  0.00     0.189 HD
HETATM    4  N   UNL     1       7.831  26.030  58.260  1.00  0.00    -0.148 NA
HETATM    5  C   UNL     1       7.921  25.110  57.308  1.00  0.00     0.199 A 
HETATM    6  C   UNL     1       8.013  25.633  56.013  1.00  0.00     0.035 A 
HETATM    7  C   UNL     1       8.175  24.726  54.847  1.00  0.00     0.106 A 
HETATM    8  C   UNL     1       8.346  23.287  55.298  1.00  0.00     0.067 A 
HETATM    9  C   UNL     1       8.826  22.315  54.231  1.00  0.00     0.020 C 
HETATM   10  N   UNL     1       9.222  21.509  53.347  1.00  0.00    -0.096 N 
HETATM   11  C   UNL     1       8.252  22.891  56.593  1.00  0.00     0.139 A 
HETATM   12  O   UNL     1       7.974  23.802  57.625  1.00  0.00    -0.277 OA
ENDROOT
BRANCH   7  13
HETATM   13  C   UNL     1       7.014  24.973  53.891  1.00  0.00    -0.022 A 
HETATM   14  C   UNL     1       5.650  25.011  54.243  1.00  0.00     0.041 A 
HETATM   15 CL   UNL     1       5.075  24.769  55.852  1.00  0.00    -0.084 Cl
HETATM   16  C   UNL     1       4.665  25.240  53.272  1.00  0.00     0.024 A 
HETATM   17  C   UNL     1       5.012  25.420  51.936  1.00  0.00     0.002 A 
HETATM   18  C   UNL     1       6.347  25.370  51.562  1.00  0.00     0.001 A 
HETATM   19  C   UNL     1       7.335  25.148  52.524  1.00  0.00     0.010 A 
ENDBRANCH   7  13
BRANCH  11  20
HETATM   20  N   UNL     1       8.445  21.607  57.050  1.00  0.00    -0.282 NA
HETATM   21  H   UNL     1       8.073  20.859  56.471  1.00  0.00     0.126 HD
HETATM   22  H   UNL     1       9.404  21.449  57.352  1.00  0.00     0.126 HD
ENDBRANCH  11  20
BRANCH   1  23
HETATM   23  C   UNL     1       8.161  28.148  55.243  1.00  0.00     0.029 C 
HETATM   24  C   UNL     1       8.867  29.336  55.899  1.00  0.00     0.016 C 
HETATM   25  C   UNL     1       6.810  28.564  54.664  1.00  0.00     0.016 C 
ENDBRANCH   1  23
TORSDOF 3
ENDMDL
MODEL 5
REMARK VINA RESULT:      -7.3      9.747     12.440
REMARK  3 active torsions:
REMARK  status: ('A' for Active; 'I' for Inactive)
REMARK    1  A    between atoms: C_2  and  C_3 
REMARK    2  A    between atoms: C_9  and  C_10 
REMARK    3  A    between atoms: C_20  and  N_21 
ROOT
HETATM    1  C   UNL     1       6.323  33.074  61.987  1.00  0.00     0.043 A 
HETATM    2  N   UNL     1       7.567  32.488  62.096  1.00  0.00    -0.279 N 
HETATM    3  H   UNL     1       8.099  32.013  61.374  1.00  0.00     0.189 HD
HETATM    4  N   UNL     1       8.087  32.533  63.339  1.00  0.00    -0.148 NA
HETATM    5  C   UNL     1       7.166  33.211  64.011  1.00  0.00     0.199 A 
HETATM    6  C   UNL     1       6.064  33.599  63.241  1.00  0.00     0.035 A 
HETATM    7  C   UNL     1       4.925  34.318  63.869  1.00  0.00     0.106 A 
HETATM    8  C   UNL     1       5.105  34.413  65.373  1.00  0.00     0.067 A 
HETATM    9  C   UNL     1       3.877  34.845  66.158  1.00  0.00     0.020 C 
HETATM   10  N   UNL     1       2.859  35.204  66.809  1.00  0.00    -0.096 N 
HETATM   11  C   UNL     1       6.218  33.987  66.023  1.00  0.00     0.139 A 
HETATM   12  O   UNL     1       7.306  33.426  65.334  1.00  0.00    -0.277 OA
ENDROOT
BRANCH   7  13
HETATM   13  C   UNL     1       4.753  35.652  63.151  1.00  0.00    -0.022 A 
HETATM   14  C   UNL     1       3.608  36.062  62.440  1.00  0.00     0.041 A 
HETATM   15 CL   UNL     1       2.196  35.086  62.263  1.00  0.00    -0.084 Cl
HETATM   16  C   UNL     1       3.565  37.314  61.812  1.00  0.00     0.024 A 
HETATM   17  C   UNL     1       4.658  38.174  61.864  1.00  0.00     0.002 A 
HETATM   18  C   UNL     1       5.804  37.786  62.545  1.00  0.00     0.001 A 
HETATM   19  C   UNL     1       5.852  36.541  63.178  1.00  0.00     0.010 A 
ENDBRANCH   7  13
BRANCH  11  20
HETATM   20  N   UNL     1       6.404  34.012  67.386  1.00  0.00    -0.282 NA
HETATM   21  H   UNL     1       7.364  33.948  67.714  1.00  0.00     0.126 HD
HETATM   22  H   UNL     1       5.871  34.756  67.831  1.00  0.00     0.126 HD
ENDBRANCH  11  20
BRANCH   1  23
HETATM   23  C   UNL     1       5.525  33.061  60.719  1.00  0.00     0.029 C 
HETATM   24  C   UNL     1       4.175  32.371  60.920  1.00  0.00     0.016 C 
HETATM   25  C   UNL     1       6.306  32.415  59.576  1.00  0.00     0.016 C 
ENDBRANCH   1  23
TORSDOF 3
ENDMDL
MODEL 6
REMARK VINA RESULT:      -7.2     10.495     12.655
REMARK  3 active torsions:
REMARK  status: ('A' for Active; 'I' for Inactive)
REMARK    1  A    between atoms: C_2  and  C_3 
REMARK    2  A    between atoms: C_9  and  C_10 
REMARK    3  A    between atoms: C_20  and  N_21 
ROOT
HETATM    1  C   UNL     1       5.875  32.790  62.907  1.00  0.00     0.043 A 
HETATM    2  N   UNL     1       5.480  31.469  62.862  1.00  0.00    -0.279 N 
HETATM    3  H   UNL     1       6.011  30.649  63.135  1.00  0.00     0.189 HD
HETATM    4  N   UNL     1       4.249  31.284  62.345  1.00  0.00    -0.148 NA
HETATM    5  C   UNL     1       3.846  32.526  62.110  1.00  0.00     0.199 A 
HETATM    6  C   UNL     1       4.782  33.507  62.454  1.00  0.00     0.035 A 
HETATM    7  C   UNL     1       4.493  34.942  62.197  1.00  0.00     0.106 A 
HETATM    8  C   UNL     1       3.187  35.108  61.441  1.00  0.00     0.067 A 
HETATM    9  C   UNL     1       2.937  36.486  60.852  1.00  0.00     0.020 C 
HETATM   10  N   UNL     1       2.728  37.630  60.364  1.00  0.00    -0.096 N 
HETATM   11  C   UNL     1       2.357  34.075  61.146  1.00  0.00     0.139 A 
HETATM   12  O   UNL     1       2.649  32.757  61.534  1.00  0.00    -0.277 OA
ENDROOT
BRANCH   7  13
HETATM   13  C   UNL     1       4.573  35.686  63.525  1.00  0.00    -0.022 A 
HETATM   14  C   UNL     1       5.282  36.881  63.758  1.00  0.00     0.041 A 
HETATM   15 CL   UNL     1       6.200  37.696  62.545  1.00  0.00    -0.084 Cl
HETATM   16  C   UNL     1       5.289  37.475  65.028  1.00  0.00     0.024 A 
HETATM   17  C   UNL     1       4.606  36.889  66.090  1.00  0.00     0.002 A 
HETATM   18  C   UNL     1       3.913  35.703  65.890  1.00  0.00     0.001 A 
HETATM   19  C   UNL     1       3.898  35.109  64.625  1.00  0.00     0.010 A 
ENDBRANCH   7  13
BRANCH  11  20
HETATM   20  N   UNL     1       1.189  34.173  60.424  1.00  0.00    -0.282 NA
HETATM   21  H   UNL     1       0.517  34.866  60.742  1.00  0.00     0.126 HD
HETATM   22  H   UNL     1       1.360  34.203  59.421  1.00  0.00     0.126 HD
ENDBRANCH  11  20
BRANCH   1  23
HETATM   23  C   UNL     1       7.237  33.217  63.362  1.00  0.00     0.029 C 
HETATM   24  C   UNL     1       8.301  32.190  62.969  1.00  0.00     0.016 C 
HETATM   25  C   UNL     1       7.264  33.487  64.865  1.00  0.00     0.016 C 
ENDBRANCH   1  23
TORSDOF 3
ENDMDL
MODEL 7
REMARK VINA RESULT:      -7.1      2.305      3.434
REMARK  3 active torsions:
REMARK  status: ('A' for Active; 'I' for Inactive)
REMARK    1  A    between atoms: C_2  and  C_3 
REMARK    2  A    between atoms: C_9  and  C_10 
REMARK    3  A    between atoms: C_20  and  N_21 
ROOT
HETATM    1  C   UNL     1       6.464  27.047  57.141  1.00  0.00     0.043 A 
HETATM    2  N   UNL     1       7.120  27.933  57.971  1.00  0.00    -0.279 N 
HETATM    3  H   UNL     1       7.619  27.731  58.830  1.00  0.00     0.189 HD
HETATM    4  N   UNL     1       7.027  29.220  57.581  1.00  0.00    -0.148 NA
HETATM    5  C   UNL     1       6.338  29.128  56.450  1.00  0.00     0.199 A 
HETATM    6  C   UNL     1       5.979  27.821  56.102  1.00  0.00     0.035 A 
HETATM    7  C   UNL     1       5.158  27.566  54.890  1.00  0.00     0.106 A 
HETATM    8  C   UNL     1       4.713  28.869  54.250  1.00  0.00     0.067 A 
HETATM    9  C   UNL     1       3.623  28.748  53.197  1.00  0.00     0.020 C 
HETATM   10  N   UNL     1       2.721  28.648  52.322  1.00  0.00    -0.096 N 
HETATM   11  C   UNL     1       5.114  30.092  54.684  1.00  0.00     0.139 A 
HETATM   12  O   UNL     1       5.994  30.239  55.769  1.00  0.00    -0.277 OA
ENDROOT
BRANCH   7  13
HETATM   13  C   UNL     1       5.940  26.630  53.976  1.00  0.00    -0.022 A 
HETATM   14  C   UNL     1       7.258  26.833  53.523  1.00  0.00     0.041 A 
HETATM   15 CL   UNL     1       8.207  28.213  53.938  1.00  0.00    -0.084 Cl
HETATM   16  C   UNL     1       7.877  25.902  52.676  1.00  0.00     0.024 A 
HETATM   17  C   UNL     1       7.196  24.764  52.253  1.00  0.00     0.002 A 
HETATM   18  C   UNL     1       5.890  24.550  52.672  1.00  0.00     0.001 A 
HETATM   19  C   UNL     1       5.270  25.471  53.520  1.00  0.00     0.010 A 
ENDBRANCH   7  13
BRANCH  11  20
HETATM   20  N   UNL     1       4.700  31.297  54.164  1.00  0.00    -0.282 NA
HETATM   21  H   UNL     1       4.744  32.098  54.787  1.00  0.00     0.126 HD
HETATM   22  H   UNL     1       5.100  31.474  53.244  1.00  0.00     0.126 HD
ENDBRANCH  11  20
BRANCH   1  23
HETATM   23  C   UNL     1       6.365  25.581  57.432  1.00  0.00     0.029 C 
HETATM   24  C   UNL     1       7.367  24.780  56.599  1.00  0.00     0.016 C 
HETATM   25  C   UNL     1       4.942  25.066  57.222  1.00  0.00     0.016 C 
ENDBRANCH   1  23
TORSDOF 3
ENDMDL
MODEL 8
REMARK VINA RESULT:      -7.0     10.436     12.397
REMARK  3 active torsions:
REMARK  status: ('A' for Active; 'I' for Inactive)
REMARK    1  A    between atoms: C_2  and  C_3 
REMARK    2  A    between atoms: C_9  and  C_10 
REMARK    3  A    between atoms: C_20  and  N_21 
ROOT
HETATM    1  C   UNL     1       5.874  32.799  62.782  1.00  0.00     0.043 A 
HETATM    2  N   UNL     1       5.251  31.588  63.005  1.00  0.00    -0.279 N 
HETATM    3  H   UNL     1       5.615  30.781  63.500  1.00  0.00     0.189 HD
HETATM    4  N   UNL     1       4.029  31.490  62.446  1.00  0.00    -0.148 NA
HETATM    5  C   UNL     1       3.864  32.689  61.903  1.00  0.00     0.199 A 
HETATM    6  C   UNL     1       4.946  33.557  62.090  1.00  0.00     0.035 A 
HETATM    7  C   UNL     1       4.930  34.916  61.491  1.00  0.00     0.106 A 
HETATM    8  C   UNL     1       3.707  35.109  60.613  1.00  0.00     0.067 A 
HETATM    9  C   UNL     1       3.731  36.330  59.707  1.00  0.00     0.020 C 
HETATM   10  N   UNL     1       3.750  37.343  58.957  1.00  0.00    -0.096 N 
HETATM   11  C   UNL     1       2.718  34.187  60.493  1.00  0.00     0.139 A 
HETATM   12  O   UNL     1       2.754  32.970  61.193  1.00  0.00    -0.277 OA
ENDROOT
BRANCH   7  13
HETATM   13  C   UNL     1       5.086  35.932  62.616  1.00  0.00    -0.022 A 
HETATM   14  C   UNL     1       4.389  35.918  63.841  1.00  0.00     0.041 A 
HETATM   15 CL   UNL     1       3.215  34.723  64.255  1.00  0.00    -0.084 Cl
HETATM   16  C   UNL     1       4.612  36.912  64.804  1.00  0.00     0.024 A 
HETATM   17  C   UNL     1       5.516  37.944  64.565  1.00  0.00     0.002 A 
HETATM   18  C   UNL     1       6.203  37.988  63.360  1.00  0.00     0.001 A 
HETATM   19  C   UNL     1       5.990  36.998  62.398  1.00  0.00     0.010 A 
ENDBRANCH   7  13
BRANCH  11  20
HETATM   20  N   UNL     1       1.616  34.301  59.675  1.00  0.00    -0.282 NA
HETATM   21  H   UNL     1       1.533  33.616  58.929  1.00  0.00     0.126 HD
HETATM   22  H   UNL     1       0.758  34.431  60.206  1.00  0.00     0.126 HD
ENDBRANCH  11  20
BRANCH   1  23
HETATM   23  C   UNL     1       7.271  33.092  63.237  1.00  0.00     0.029 C 
HETATM   24  C   UNL     1       8.200  31.903  62.982  1.00  0.00     0.016 C 
HETATM   25  C   UNL     1       7.302  33.506  64.708  1.00  0.00     0.016 C 
ENDBRANCH   1  23
TORSDOF 3
ENDMDL
MODEL 9
REMARK VINA RESULT:      -6.9      2.788      5.759
REMARK  3 active torsions:
REMARK  status: ('A' for Active; 'I' for Inactive)
REMARK    1  A    between atoms: C_2  and  C_3 
REMARK    2  A    between atoms: C_9  and  C_10 
REMARK    3  A    between atoms: C_20  and  N_21 
ROOT
HETATM    1  C   UNL     1       4.814  27.458  53.811  1.00  0.00     0.043 A 
HETATM    2  N   UNL     1       4.371  27.458  52.504  1.00  0.00    -0.279 N 
HETATM    3  H   UNL     1       3.656  28.044  52.087  1.00  0.00     0.189 HD
HETATM    4  N   UNL     1       4.952  26.521  51.729  1.00  0.00    -0.148 NA
HETATM    5  C   UNL     1       5.817  25.956  52.561  1.00  0.00     0.199 A 
HETATM    6  C   UNL     1       5.807  26.496  53.853  1.00  0.00     0.035 A 
HETATM    7  C   UNL     1       6.683  25.929  54.910  1.00  0.00     0.106 A 
HETATM    8  C   UNL     1       7.408  24.692  54.411  1.00  0.00     0.067 A 
HETATM    9  C   UNL     1       8.086  23.849  55.479  1.00  0.00     0.020 C 
HETATM   10  N   UNL     1       8.650  23.150  56.364  1.00  0.00    -0.096 N 
HETATM   11  C   UNL     1       7.333  24.245  53.131  1.00  0.00     0.139 A 
HETATM   12  O   UNL     1       6.573  24.915  52.158  1.00  0.00    -0.277 OA
ENDROOT
BRANCH   7  13
HETATM   13  C   UNL     1       7.585  27.043  55.427  1.00  0.00    -0.022 A 
HETATM   14  C   UNL     1       7.963  27.240  56.770  1.00  0.00     0.041 A 
HETATM   15 CL   UNL     1       7.441  26.227  58.065  1.00  0.00    -0.084 Cl
HETATM   16  C   UNL     1       8.796  28.309  57.131  1.00  0.00     0.024 A 
HETATM   17  C   UNL     1       9.255  29.208  56.172  1.00  0.00     0.002 A 
HETATM   18  C   UNL     1       8.882  29.045  54.845  1.00  0.00     0.001 A 
HETATM   19  C   UNL     1       8.057  27.979  54.477  1.00  0.00     0.010 A 
ENDBRANCH   7  13
BRANCH  11  20
HETATM   20  N   UNL     1       7.936  23.106  52.648  1.00  0.00    -0.282 NA
HETATM   21  H   UNL     1       8.940  23.152  52.499  1.00  0.00     0.126 HD
HETATM   22  H   UNL     1       7.636  22.273  53.150  1.00  0.00     0.126 HD
ENDBRANCH  11  20
BRANCH   1  23
HETATM   23  C   UNL     1       4.241  28.356  54.864  1.00  0.00     0.029 C 
HETATM   24  C   UNL     1       4.863  29.752  54.802  1.00  0.00     0.016 C 
HETATM   25  C   UNL     1       4.393  27.749  56.257  1.00  0.00     0.016 C 
ENDBRANCH   1  23
TORSDOF 3
ENDMDL
MODEL 10
REMARK VINA RESULT:      -6.8      2.450      6.096
REMARK  3 active torsions:
REMARK  status: ('A' for Active; 'I' for Inactive)
REMARK    1  A    between atoms: C_2  and  C_3 
REMARK    2  A    between atoms: C_9  and  C_10 
REMARK    3  A    between atoms: C_20  and  N_21 
ROOT
HETATM    1  C   UNL     1       4.390  29.096  55.379  1.00  0.00     0.043 A 
HETATM    2  N   UNL     1       3.702  29.211  54.188  1.00  0.00    -0.279 N 
HETATM    3  H   UNL     1       3.054  29.939  53.909  1.00  0.00     0.189 HD
HETATM    4  N   UNL     1       3.910  28.188  53.335  1.00  0.00    -0.148 NA
HETATM    5  C   UNL     1       4.791  27.442  53.989  1.00  0.00     0.199 A 
HETATM    6  C   UNL     1       5.153  27.949  55.243  1.00  0.00     0.035 A 
HETATM    7  C   UNL     1       6.089  27.194  56.115  1.00  0.00     0.106 A 
HETATM    8  C   UNL     1       6.427  25.844  55.510  1.00  0.00     0.067 A 
HETATM    9  C   UNL     1       7.120  24.860  56.439  1.00  0.00     0.020 C 
HETATM   10  N   UNL     1       7.695  24.044  57.209  1.00  0.00    -0.096 N 
HETATM   11  C   UNL     1       6.006  25.446  54.283  1.00  0.00     0.139 A 
HETATM   12  O   UNL     1       5.219  26.276  53.467  1.00  0.00    -0.277 OA
ENDROOT
BRANCH   7  13
HETATM   13  C   UNL     1       7.285  28.089  56.413  1.00  0.00    -0.022 A 
HETATM   14  C   UNL     1       8.221  28.555  55.469  1.00  0.00     0.041 A 
HETATM   15 CL   UNL     1       8.156  28.161  53.790  1.00  0.00    -0.084 Cl
HETATM   16  C   UNL     1       9.291  29.372  55.861  1.00  0.00     0.024 A 
HETATM   17  C   UNL     1       9.459  29.730  57.196  1.00  0.00     0.002 A 
HETATM   18  C   UNL     1       8.560  29.270  58.148  1.00  0.00     0.001 A 
HETATM   19  C   UNL     1       7.489  28.460  57.763  1.00  0.00     0.010 A 
ENDBRANCH   7  13
BRANCH  11  20
HETATM   20  N   UNL     1       6.251  24.216  53.715  1.00  0.00    -0.282 NA
HETATM   21  H   UNL     1       6.672  24.219  52.791  1.00  0.00     0.126 HD
HETATM   22  H   UNL     1       6.704  23.578  54.367  1.00  0.00     0.126 HD
ENDBRANCH  11  20
BRANCH   1  23
HETATM   23  C   UNL     1       4.239  30.073  56.504  1.00  0.00     0.029 C 
HETATM   24  C   UNL     1       2.856  30.728  56.488  1.00  0.00     0.016 C 
HETATM   25  C   UNL     1       5.345  31.127  56.480  1.00  0.00     0.016 C 
ENDBRANCH   1  23
TORSDOF 3
ENDMDL
