MODEL 1
REMARK VINA RESULT:      -9.1      0.000      0.000
REMARK  4 active torsions:
REMARK  status: ('A' for Active; 'I' for Inactive)
REMARK    1  A    between atoms: C_9  and  C_10 
REMARK    2  A    between atoms: C_11  and  O_12 
REMARK    3  A    between atoms: C_18  and  C_19 
REMARK       I    between atoms: C_19  and  N_20 
REMARK    4  A    between atoms: N_20  and  C_21 
ROOT
HETATM    1  C   UNL     1       5.288  26.772  50.613  1.00  0.00     0.070 C 
HETATM    2  C   UNL     1       5.118  27.538  51.902  1.00  0.00     0.037 C 
HETATM    3  N   UNL     1       4.866  28.899  51.762  1.00  0.00    -0.192 N 
HETATM    4  C   UNL     1       4.455  29.676  52.783  1.00  0.00     0.725 A 
HETATM    5  N   UNL     1       4.422  29.162  54.053  1.00  0.00    -0.084 N 
HETATM    6  N   UNL     1       3.907  30.054  54.927  1.00  0.00    -0.149 NA
HETATM    7  C   UNL     1       3.694  31.098  54.118  1.00  0.00     0.275 A 
HETATM    8  N   UNL     1       4.017  30.909  52.799  1.00  0.00    -0.054 NA
HETATM    9  C   UNL     1       4.848  27.799  54.399  1.00  0.00     0.205 C 
HETATM   10  C   UNL     1       5.137  26.985  53.139  1.00  0.00     0.063 C 
HETATM   11  H   UNL     1       4.764  29.265  50.819  1.00  0.00     0.184 HD
ENDROOT
BRANCH  10  12
HETATM   12  C   UNL     1       5.329  25.532  53.380  1.00  0.00     0.256 C 
HETATM   13  N   UNL     1       6.638  25.200  53.657  1.00  0.00    -0.323 N 
HETATM   14  H   UNL     1       7.307  25.959  53.681  1.00  0.00     0.169 HD
HETATM   15  O   UNL     1       4.361  24.786  53.326  1.00  0.00    -0.267 OA
BRANCH  13  16
HETATM   16  C   UNL     1       7.162  23.909  53.878  1.00  0.00     0.035 A 
HETATM   17  C   UNL     1       7.573  23.049  52.858  1.00  0.00     0.031 A 
HETATM   18  C   UNL     1       8.096  21.786  53.161  1.00  0.00     0.026 A 
HETATM   19  C   UNL     1       8.214  21.381  54.486  1.00  0.00     0.034 A 
HETATM   20 CL   UNL     1       8.866  19.834  54.858  1.00  0.00    -0.084 Cl
HETATM   21  C   UNL     1       7.807  22.227  55.514  1.00  0.00     0.026 A 
HETATM   22  C   UNL     1       7.277  23.485  55.209  1.00  0.00     0.031 A 
ENDBRANCH  13  16
ENDBRANCH  10  12
BRANCH   9  23
HETATM   23  C   UNL     1       6.054  27.870  55.337  1.00  0.00     0.005 A 
HETATM   24  C   UNL     1       5.998  27.299  56.623  1.00  0.00     0.076 A 
HETATM   25  C   UNL     1       7.109  27.376  57.469  1.00  0.00     0.037 A 
HETATM   26  C   UNL     1       8.268  28.038  57.061  1.00  0.00     0.003 A 
HETATM   27  C   UNL     1       8.326  28.627  55.802  1.00  0.00     0.001 A 
HETATM   28  C   UNL     1       7.230  28.544  54.945  1.00  0.00     0.012 A 
BRANCH  24  29
HETATM   29  O   UNL     1       4.837  26.657  56.958  1.00  0.00    -0.355 OA
HETATM   30  C   UNL     1       4.942  25.261  57.215  1.00  0.00     0.210 C 
ENDBRANCH  24  29
ENDBRANCH   9  23
TORSDOF 4
ENDMDL
MODEL 2
REMARK VINA RESULT:      -8.5      2.119      3.238
REMARK  4 active torsions:
REMARK  status: ('A' for Active; 'I' for Inactive)
REMARK    1  A    between atoms: C_9  and  C_10 
REMARK    2  A    between atoms: C_11  and  O_12 
REMARK    3  A    between atoms: C_18  and  C_19 
REMARK       I    between atoms: C_19  and  N_20 
REMARK    4  A    between atoms: N_20  and  C_21 
ROOT
HETATM    1  C   UNL     1       4.629  27.550  53.775  1.00  0.00     0.070 C 
HETATM    2  C   UNL     1       5.235  28.495  54.783  1.00  0.00     0.037 C 
HETATM    3  N   UNL     1       4.840  29.825  54.673  1.00  0.00    -0.192 N 
HETATM    4  C   UNL     1       5.092  30.744  55.624  1.00  0.00     0.725 A 
HETATM    5  N   UNL     1       5.897  30.418  56.683  1.00  0.00    -0.084 N 
HETATM    6  N   UNL     1       5.966  31.432  57.574  1.00  0.00    -0.149 NA
HETATM    7  C   UNL     1       5.211  32.351  56.961  1.00  0.00     0.275 A 
HETATM    8  N   UNL     1       4.659  31.971  55.765  1.00  0.00    -0.054 NA
HETATM    9  C   UNL     1       6.557  29.115  56.844  1.00  0.00     0.205 C 
HETATM   10  C   UNL     1       6.065  28.125  55.789  1.00  0.00     0.063 C 
HETATM   11  H   UNL     1       4.145  30.052  53.967  1.00  0.00     0.184 HD
ENDROOT
BRANCH  10  12
HETATM   12  C   UNL     1       6.483  26.720  56.026  1.00  0.00     0.256 C 
HETATM   13  N   UNL     1       7.101  26.150  54.933  1.00  0.00    -0.323 N 
HETATM   14  H   UNL     1       7.215  26.735  54.115  1.00  0.00     0.169 HD
HETATM   15  O   UNL     1       6.267  26.209  57.117  1.00  0.00    -0.267 OA
BRANCH  13  16
HETATM   16  C   UNL     1       7.567  24.824  54.812  1.00  0.00     0.035 A 
HETATM   17  C   UNL     1       8.381  24.194  55.756  1.00  0.00     0.031 A 
HETATM   18  C   UNL     1       8.790  22.868  55.570  1.00  0.00     0.026 A 
HETATM   19  C   UNL     1       8.382  22.166  54.440  1.00  0.00     0.034 A 
HETATM   20 CL   UNL     1       8.876  20.534  54.217  1.00  0.00    -0.084 Cl
HETATM   21  C   UNL     1       7.572  22.781  53.489  1.00  0.00     0.026 A 
HETATM   22  C   UNL     1       7.171  24.109  53.673  1.00  0.00     0.031 A 
ENDBRANCH  13  16
ENDBRANCH  10  12
BRANCH   9  23
HETATM   23  C   UNL     1       8.073  29.307  56.801  1.00  0.00     0.005 A 
HETATM   24  C   UNL     1       8.800  29.543  57.983  1.00  0.00     0.076 A 
HETATM   25  C   UNL     1      10.187  29.720  57.927  1.00  0.00     0.037 A 
HETATM   26  C   UNL     1      10.856  29.692  56.701  1.00  0.00     0.003 A 
HETATM   27  C   UNL     1      10.144  29.484  55.525  1.00  0.00     0.001 A 
HETATM   28  C   UNL     1       8.765  29.292  55.572  1.00  0.00     0.012 A 
BRANCH  24  29
HETATM   29  O   UNL     1       8.086  29.549  59.151  1.00  0.00    -0.355 OA
HETATM   30  C   UNL     1       8.472  30.520  60.119  1.00  0.00     0.210 C 
ENDBRANCH  24  29
ENDBRANCH   9  23
TORSDOF 4
ENDMDL
MODEL 3
REMARK VINA RESULT:      -8.0      5.638      8.714
REMARK  4 active torsions:
REMARK  status: ('A' for Active; 'I' for Inactive)
REMARK    1  A    between atoms: C_9  and  C_10 
REMARK    2  A    between atoms: C_11  and  O_12 
REMARK    3  A    between atoms: C_18  and  C_19 
REMARK       I    between atoms: C_19  and  N_20 
REMARK    4  A    between atoms: N_20  and  C_21 
ROOT
HETATM    1  C   UNL     1       9.797  30.149  57.934  1.00  0.00     0.070 C 
HETATM    2  C   UNL     1       8.443  29.604  57.549  1.00  0.00     0.037 C 
HETATM    3  N   UNL     1       8.459  28.496  56.708  1.00  0.00    -0.192 N 
HETATM    4  C   UNL     1       7.367  27.746  56.465  1.00  0.00     0.725 A 
HETATM    5  N   UNL     1       6.146  28.158  56.932  1.00  0.00    -0.084 N 
HETATM    6  N   UNL     1       5.189  27.243  56.666  1.00  0.00    -0.149 NA
HETATM    7  C   UNL     1       5.899  26.328  55.998  1.00  0.00     0.275 A 
HETATM    8  N   UNL     1       7.235  26.598  55.852  1.00  0.00    -0.054 NA
HETATM    9  C   UNL     1       5.928  29.411  57.668  1.00  0.00     0.205 C 
HETATM   10  C   UNL     1       7.259  30.078  58.009  1.00  0.00     0.063 C 
HETATM   11  H   UNL     1       9.365  28.107  56.459  1.00  0.00     0.184 HD
ENDROOT
BRANCH  10  12
HETATM   12  C   UNL     1       7.150  31.211  58.963  1.00  0.00     0.256 C 
HETATM   13  N   UNL     1       7.278  30.821  60.279  1.00  0.00    -0.323 N 
HETATM   14  H   UNL     1       7.443  29.837  60.451  1.00  0.00     0.169 HD
HETATM   15  O   UNL     1       6.973  32.341  58.529  1.00  0.00    -0.267 OA
BRANCH  13  16
HETATM   16  C   UNL     1       7.170  31.637  61.425  1.00  0.00     0.035 A 
HETATM   17  C   UNL     1       6.008  32.320  61.790  1.00  0.00     0.031 A 
HETATM   18  C   UNL     1       5.977  33.101  62.951  1.00  0.00     0.026 A 
HETATM   19  C   UNL     1       7.108  33.197  63.755  1.00  0.00     0.034 A 
HETATM   20 CL   UNL     1       7.067  34.148  65.188  1.00  0.00    -0.084 Cl
HETATM   21  C   UNL     1       8.275  32.524  63.404  1.00  0.00     0.026 A 
HETATM   22  C   UNL     1       8.306  31.751  62.238  1.00  0.00     0.031 A 
ENDBRANCH  13  16
ENDBRANCH  10  12
BRANCH   9  23
HETATM   23  C   UNL     1       5.011  30.323  56.852  1.00  0.00     0.005 A 
HETATM   24  C   UNL     1       3.851  30.876  57.428  1.00  0.00     0.076 A 
HETATM   25  C   UNL     1       3.021  31.706  56.667  1.00  0.00     0.037 A 
HETATM   26  C   UNL     1       3.318  31.970  55.328  1.00  0.00     0.003 A 
HETATM   27  C   UNL     1       4.447  31.410  54.742  1.00  0.00     0.001 A 
HETATM   28  C   UNL     1       5.289  30.593  55.495  1.00  0.00     0.012 A 
BRANCH  24  29
HETATM   29  O   UNL     1       3.623  30.585  58.746  1.00  0.00    -0.355 OA
HETATM   30  C   UNL     1       3.314  31.689  59.589  1.00  0.00     0.210 C 
ENDBRANCH  24  29
ENDBRANCH   9  23
TORSDOF 4
ENDMDL
MODEL 4
REMARK VINA RESULT:      -7.9      6.360      9.367
REMARK  4 active torsions:
REMARK  status: ('A' for Active; 'I' for Inactive)
REMARK    1  A    between atoms: C_9  and  C_10 
REMARK    2  A    between atoms: C_11  and  O_12 
REMARK    3  A    between atoms: C_18  and  C_19 
REMARK       I    between atoms: C_19  and  N_20 
REMARK    4  A    between atoms: N_20  and  C_21 
ROOT
HETATM    1  C   UNL     1       9.117  30.054  58.139  1.00  0.00     0.070 C 
HETATM    2  C   UNL     1       7.660  30.264  57.805  1.00  0.00     0.037 C 
HETATM    3  N   UNL     1       7.175  29.514  56.738  1.00  0.00    -0.192 N 
HETATM    4  C   UNL     1       5.862  29.398  56.464  1.00  0.00     0.725 A 
HETATM    5  N   UNL     1       4.956  30.159  57.155  1.00  0.00    -0.084 N 
HETATM    6  N   UNL     1       3.689  29.848  56.804  1.00  0.00    -0.149 NA
HETATM    7  C   UNL     1       3.913  28.923  55.865  1.00  0.00     0.275 A 
HETATM    8  N   UNL     1       5.228  28.619  55.625  1.00  0.00    -0.054 NA
HETATM    9  C   UNL     1       5.324  31.148  58.178  1.00  0.00     0.205 C 
HETATM   10  C   UNL     1       6.816  31.065  58.500  1.00  0.00     0.063 C 
HETATM   11  H   UNL     1       7.811  28.853  56.300  1.00  0.00     0.184 HD
ENDROOT
BRANCH  10  12
HETATM   12  C   UNL     1       7.229  31.846  59.693  1.00  0.00     0.256 C 
HETATM   13  N   UNL     1       6.553  31.480  60.838  1.00  0.00    -0.323 N 
HETATM   14  H   UNL     1       5.879  30.730  60.750  1.00  0.00     0.169 HD
HETATM   15  O   UNL     1       8.096  32.701  59.575  1.00  0.00    -0.267 OA
BRANCH  13  16
HETATM   16  C   UNL     1       6.671  32.057  62.119  1.00  0.00     0.035 A 
HETATM   17  C   UNL     1       7.890  32.376  62.722  1.00  0.00     0.031 A 
HETATM   18  C   UNL     1       7.922  32.961  63.993  1.00  0.00     0.026 A 
HETATM   19  C   UNL     1       6.735  33.234  64.664  1.00  0.00     0.034 A 
HETATM   20 CL   UNL     1       6.775  33.962  66.222  1.00  0.00    -0.084 Cl
HETATM   21  C   UNL     1       5.512  32.920  64.078  1.00  0.00     0.026 A 
HETATM   22  C   UNL     1       5.482  32.328  62.811  1.00  0.00     0.031 A 
ENDBRANCH  13  16
ENDBRANCH  10  12
BRANCH   9  23
HETATM   23  C   UNL     1       4.906  32.542  57.708  1.00  0.00     0.005 A 
HETATM   24  C   UNL     1       4.172  33.395  58.553  1.00  0.00     0.076 A 
HETATM   25  C   UNL     1       3.794  34.665  58.107  1.00  0.00     0.037 A 
HETATM   26  C   UNL     1       4.116  35.087  56.815  1.00  0.00     0.003 A 
HETATM   27  C   UNL     1       4.820  34.244  55.962  1.00  0.00     0.001 A 
HETATM   28  C   UNL     1       5.214  32.982  56.403  1.00  0.00     0.012 A 
BRANCH  24  29
HETATM   29  O   UNL     1       3.896  32.924  59.809  1.00  0.00    -0.355 OA
HETATM   30  C   UNL     1       2.795  33.528  60.479  1.00  0.00     0.210 C 
ENDBRANCH  24  29
ENDBRANCH   9  23
TORSDOF 4
ENDMDL
MODEL 5
REMARK VINA RESULT:      -7.6      8.607     11.686
REMARK  4 active torsions:
REMARK  status: ('A' for Active; 'I' for Inactive)
REMARK    1  A    between atoms: C_9  and  C_10 
REMARK    2  A    between atoms: C_11  and  O_12 
REMARK    3  A    between atoms: C_18  and  C_19 
REMARK       I    between atoms: C_19  and  N_20 
REMARK    4  A    between atoms: N_20  and  C_21 
ROOT
HETATM    1  C   UNL     1       8.237  32.412  60.869  1.00  0.00     0.070 C 
HETATM    2  C   UNL     1       6.848  32.384  60.280  1.00  0.00     0.037 C 
HETATM    3  N   UNL     1       6.698  31.607  59.135  1.00  0.00    -0.192 N 
HETATM    4  C   UNL     1       5.494  31.280  58.626  1.00  0.00     0.725 A 
HETATM    5  N   UNL     1       4.362  31.847  59.150  1.00  0.00    -0.084 N 
HETATM    6  N   UNL     1       3.251  31.339  58.573  1.00  0.00    -0.149 NA
HETATM    7  C   UNL     1       3.795  30.504  57.681  1.00  0.00     0.275 A 
HETATM    8  N   UNL     1       5.165  30.440  57.679  1.00  0.00    -0.054 NA
HETATM    9  C   UNL     1       4.365  32.841  60.232  1.00  0.00     0.205 C 
HETATM   10  C   UNL     1       5.767  33.000  60.817  1.00  0.00     0.063 C 
HETATM   11  H   UNL     1       7.507  31.083  58.812  1.00  0.00     0.184 HD
ENDROOT
BRANCH  10  12
HETATM   12  C   UNL     1       5.820  33.791  62.073  1.00  0.00     0.256 C 
HETATM   13  N   UNL     1       5.687  33.014  63.205  1.00  0.00    -0.323 N 
HETATM   14  H   UNL     1       5.586  32.017  63.066  1.00  0.00     0.169 HD
HETATM   15  O   UNL     1       5.978  35.002  62.009  1.00  0.00    -0.267 OA
BRANCH  13  16
HETATM   16  C   UNL     1       5.642  33.458  64.543  1.00  0.00     0.035 A 
HETATM   17  C   UNL     1       4.459  33.716  65.240  1.00  0.00     0.031 A 
HETATM   18  C   UNL     1       4.497  34.141  66.573  1.00  0.00     0.026 A 
HETATM   19  C   UNL     1       5.720  34.305  67.216  1.00  0.00     0.034 A 
HETATM   20 CL   UNL     1       5.767  34.818  68.857  1.00  0.00    -0.084 Cl
HETATM   21  C   UNL     1       6.908  34.054  66.535  1.00  0.00     0.026 A 
HETATM   22  C   UNL     1       6.867  33.637  65.200  1.00  0.00     0.031 A 
ENDBRANCH  13  16
ENDBRANCH  10  12
BRANCH   9  23
HETATM   23  C   UNL     1       3.799  34.161  59.708  1.00  0.00     0.005 A 
HETATM   24  C   UNL     1       2.616  34.700  60.248  1.00  0.00     0.076 A 
HETATM   25  C   UNL     1       2.110  35.907  59.755  1.00  0.00     0.037 A 
HETATM   26  C   UNL     1       2.753  36.571  58.708  1.00  0.00     0.003 A 
HETATM   27  C   UNL     1       3.908  36.035  58.150  1.00  0.00     0.001 A 
HETATM   28  C   UNL     1       4.429  34.841  58.644  1.00  0.00     0.012 A 
BRANCH  24  29
HETATM   29  O   UNL     1       2.040  34.004  61.277  1.00  0.00    -0.355 OA
HETATM   30  C   UNL     1       2.164  34.580  62.573  1.00  0.00     0.210 C 
ENDBRANCH  24  29
ENDBRANCH   9  23
TORSDOF 4
ENDMDL
MODEL 6
REMARK VINA RESULT:      -7.5      2.310      5.144
REMARK  4 active torsions:
REMARK  status: ('A' for Active; 'I' for Inactive)
REMARK    1  A    between atoms: C_9  and  C_10 
REMARK    2  A    between atoms: C_11  and  O_12 
REMARK    3  A    between atoms: C_18  and  C_19 
REMARK       I    between atoms: C_19  and  N_20 
REMARK    4  A    between atoms: N_20  and  C_21 
ROOT
HETATM    1  C   UNL     1       4.350  29.015  54.563  1.00  0.00     0.070 C 
HETATM    2  C   UNL     1       4.671  29.177  53.097  1.00  0.00     0.037 C 
HETATM    3  N   UNL     1       4.653  30.484  52.620  1.00  0.00    -0.192 N 
HETATM    4  C   UNL     1       5.144  30.829  51.415  1.00  0.00     0.725 A 
HETATM    5  N   UNL     1       5.545  29.852  50.542  1.00  0.00    -0.084 N 
HETATM    6  N   UNL     1       6.084  30.387  49.425  1.00  0.00    -0.149 NA
HETATM    7  C   UNL     1       5.933  31.691  49.678  1.00  0.00     0.275 A 
HETATM    8  N   UNL     1       5.361  32.005  50.883  1.00  0.00    -0.054 NA
HETATM    9  C   UNL     1       5.443  28.412  50.818  1.00  0.00     0.205 C 
HETATM   10  C   UNL     1       5.022  28.166  52.266  1.00  0.00     0.063 C 
HETATM   11  H   UNL     1       4.479  31.228  53.291  1.00  0.00     0.184 HD
ENDROOT
BRANCH  10  12
HETATM   12  C   UNL     1       5.135  26.752  52.704  1.00  0.00     0.256 C 
HETATM   13  N   UNL     1       6.420  26.399  53.058  1.00  0.00    -0.323 N 
HETATM   14  H   UNL     1       7.126  27.122  52.999  1.00  0.00     0.169 HD
HETATM   15  O   UNL     1       4.132  26.051  52.724  1.00  0.00    -0.267 OA
BRANCH  13  16
HETATM   16  C   UNL     1       6.874  25.127  53.465  1.00  0.00     0.035 A 
HETATM   17  C   UNL     1       6.750  24.633  54.766  1.00  0.00     0.031 A 
HETATM   18  C   UNL     1       7.213  23.352  55.088  1.00  0.00     0.026 A 
HETATM   19  C   UNL     1       7.798  22.558  54.108  1.00  0.00     0.034 A 
HETATM   20 CL   UNL     1       8.359  20.980  54.501  1.00  0.00    -0.084 Cl
HETATM   21  C   UNL     1       7.932  23.035  52.807  1.00  0.00     0.026 A 
HETATM   22  C   UNL     1       7.475  24.319  52.489  1.00  0.00     0.031 A 
ENDBRANCH  13  16
ENDBRANCH  10  12
BRANCH   9  23
HETATM   23  C   UNL     1       4.482  27.773  49.815  1.00  0.00     0.005 A 
HETATM   24  C   UNL     1       3.154  28.228  49.703  1.00  0.00     0.076 A 
HETATM   25  C   UNL     1       2.286  27.630  48.783  1.00  0.00     0.037 A 
HETATM   26  C   UNL     1       2.718  26.565  47.990  1.00  0.00     0.003 A 
HETATM   27  C   UNL     1       4.019  26.091  48.109  1.00  0.00     0.001 A 
HETATM   28  C   UNL     1       4.896  26.689  49.013  1.00  0.00     0.012 A 
BRANCH  24  29
HETATM   29  O   UNL     1       2.798  29.281  50.502  1.00  0.00    -0.355 OA
HETATM   30  C   UNL     1       1.754  30.116  50.013  1.00  0.00     0.210 C 
ENDBRANCH  24  29
ENDBRANCH   9  23
TORSDOF 4
ENDMDL
MODEL 7
REMARK VINA RESULT:      -7.4      5.469      8.646
REMARK  4 active torsions:
REMARK  status: ('A' for Active; 'I' for Inactive)
REMARK    1  A    between atoms: C_9  and  C_10 
REMARK    2  A    between atoms: C_11  and  O_12 
REMARK    3  A    between atoms: C_18  and  C_19 
REMARK       I    between atoms: C_19  and  N_20 
REMARK    4  A    between atoms: N_20  and  C_21 
ROOT
HETATM    1  C   UNL     1      10.130  30.009  57.782  1.00  0.00     0.070 C 
HETATM    2  C   UNL     1       8.834  29.271  57.547  1.00  0.00     0.037 C 
HETATM    3  N   UNL     1       8.943  28.076  56.844  1.00  0.00    -0.192 N 
HETATM    4  C   UNL     1       7.937  27.184  56.758  1.00  0.00     0.725 A 
HETATM    5  N   UNL     1       6.699  27.511  57.245  1.00  0.00    -0.084 N 
HETATM    6  N   UNL     1       5.846  26.469  57.148  1.00  0.00    -0.149 NA
HETATM    7  C   UNL     1       6.629  25.563  56.552  1.00  0.00     0.275 A 
HETATM    8  N   UNL     1       7.915  25.961  56.294  1.00  0.00    -0.054 NA
HETATM    9  C   UNL     1       6.368  28.814  57.839  1.00  0.00     0.205 C 
HETATM   10  C   UNL     1       7.625  29.664  58.017  1.00  0.00     0.063 C 
HETATM   11  H   UNL     1       9.876  27.763  56.588  1.00  0.00     0.184 HD
ENDROOT
BRANCH  10  12
HETATM   12  C   UNL     1       7.425  30.887  58.836  1.00  0.00     0.256 C 
HETATM   13  N   UNL     1       7.516  30.650  60.191  1.00  0.00    -0.323 N 
HETATM   14  H   UNL     1       7.718  29.700  60.476  1.00  0.00     0.169 HD
HETATM   15  O   UNL     1       7.217  31.953  58.273  1.00  0.00    -0.267 OA
BRANCH  13  16
HETATM   16  C   UNL     1       7.326  31.580  61.234  1.00  0.00     0.035 A 
HETATM   17  C   UNL     1       6.287  32.513  61.266  1.00  0.00     0.031 A 
HETATM   18  C   UNL     1       6.158  33.395  62.346  1.00  0.00     0.026 A 
HETATM   19  C   UNL     1       7.064  33.343  63.400  1.00  0.00     0.034 A 
HETATM   20 CL   UNL     1       6.899  34.420  64.731  1.00  0.00    -0.084 Cl
HETATM   21  C   UNL     1       8.106  32.420  63.381  1.00  0.00     0.026 A 
HETATM   22  C   UNL     1       8.239  31.545  62.297  1.00  0.00     0.031 A 
ENDBRANCH  13  16
ENDBRANCH  10  12
BRANCH   9  23
HETATM   23  C   UNL     1       5.312  29.508  56.978  1.00  0.00     0.005 A 
HETATM   24  C   UNL     1       5.474  29.604  55.583  1.00  0.00     0.076 A 
HETATM   25  C   UNL     1       4.501  30.245  54.809  1.00  0.00     0.037 A 
HETATM   26  C   UNL     1       3.379  30.818  55.412  1.00  0.00     0.003 A 
HETATM   27  C   UNL     1       3.221  30.751  56.792  1.00  0.00     0.001 A 
HETATM   28  C   UNL     1       4.178  30.102  57.570  1.00  0.00     0.012 A 
BRANCH  24  29
HETATM   29  O   UNL     1       6.591  29.015  55.053  1.00  0.00    -0.355 OA
HETATM   30  C   UNL     1       6.421  28.353  53.804  1.00  0.00     0.210 C 
ENDBRANCH  24  29
ENDBRANCH   9  23
TORSDOF 4
ENDMDL
MODEL 8
REMARK VINA RESULT:      -7.3      2.651      5.353
REMARK  4 active torsions:
REMARK  status: ('A' for Active; 'I' for Inactive)
REMARK    1  A    between atoms: C_9  and  C_10 
REMARK    2  A    between atoms: C_11  and  O_12 
REMARK    3  A    between atoms: C_18  and  C_19 
REMARK       I    between atoms: C_19  and  N_20 
REMARK    4  A    between atoms: N_20  and  C_21 
ROOT
HETATM    1  C   UNL     1       4.475  29.884  55.126  1.00  0.00     0.070 C 
HETATM    2  C   UNL     1       4.457  30.184  53.648  1.00  0.00     0.037 C 
HETATM    3  N   UNL     1       4.274  31.521  53.309  1.00  0.00    -0.192 N 
HETATM    4  C   UNL     1       4.471  31.994  52.063  1.00  0.00     0.725 A 
HETATM    5  N   UNL     1       4.716  31.118  51.038  1.00  0.00    -0.084 N 
HETATM    6  N   UNL     1       4.971  31.775  49.886  1.00  0.00    -0.149 NA
HETATM    7  C   UNL     1       4.818  33.042  50.285  1.00  0.00     0.275 A 
HETATM    8  N   UNL     1       4.510  33.220  51.609  1.00  0.00    -0.054 NA
HETATM    9  C   UNL     1       4.745  29.657  51.195  1.00  0.00     0.205 C 
HETATM   10  C   UNL     1       4.664  29.268  52.670  1.00  0.00     0.063 C 
HETATM   11  H   UNL     1       4.217  32.195  54.067  1.00  0.00     0.184 HD
ENDROOT
BRANCH  10  12
HETATM   12  C   UNL     1       4.937  27.834  52.941  1.00  0.00     0.256 C 
HETATM   13  N   UNL     1       6.282  27.528  52.919  1.00  0.00    -0.323 N 
HETATM   14  H   UNL     1       6.922  28.292  52.743  1.00  0.00     0.169 HD
HETATM   15  O   UNL     1       3.999  27.079  53.159  1.00  0.00    -0.267 OA
BRANCH  13  16
HETATM   16  C   UNL     1       6.869  26.257  53.084  1.00  0.00     0.035 A 
HETATM   17  C   UNL     1       7.224  25.418  52.025  1.00  0.00     0.031 A 
HETATM   18  C   UNL     1       7.818  24.174  52.271  1.00  0.00     0.026 A 
HETATM   19  C   UNL     1       8.062  23.767  53.579  1.00  0.00     0.034 A 
HETATM   20 CL   UNL     1       8.800  22.242  53.880  1.00  0.00    -0.084 Cl
HETATM   21  C   UNL     1       7.712  24.590  54.645  1.00  0.00     0.026 A 
HETATM   22  C   UNL     1       7.112  25.829  54.397  1.00  0.00     0.031 A 
ENDBRANCH  13  16
ENDBRANCH  10  12
BRANCH   9  23
HETATM   23  C   UNL     1       3.617  29.038  50.367  1.00  0.00     0.005 A 
HETATM   24  C   UNL     1       3.906  28.194  49.278  1.00  0.00     0.076 A 
HETATM   25  C   UNL     1       2.864  27.639  48.528  1.00  0.00     0.037 A 
HETATM   26  C   UNL     1       1.535  27.937  48.834  1.00  0.00     0.003 A 
HETATM   27  C   UNL     1       1.237  28.789  49.891  1.00  0.00     0.001 A 
HETATM   28  C   UNL     1       2.269  29.336  50.653  1.00  0.00     0.012 A 
BRANCH  24  29
HETATM   29  O   UNL     1       5.229  27.935  49.037  1.00  0.00    -0.355 OA
HETATM   30  C   UNL     1       5.662  28.074  47.688  1.00  0.00     0.210 C 
ENDBRANCH  24  29
ENDBRANCH   9  23
TORSDOF 4
ENDMDL
MODEL 9
REMARK VINA RESULT:      -7.2      3.466      6.150
REMARK  4 active torsions:
REMARK  status: ('A' for Active; 'I' for Inactive)
REMARK    1  A    between atoms: C_9  and  C_10 
REMARK    2  A    between atoms: C_11  and  O_12 
REMARK    3  A    between atoms: C_18  and  C_19 
REMARK       I    between atoms: C_19  and  N_20 
REMARK    4  A    between atoms: N_20  and  C_21 
ROOT
HETATM    1  C   UNL     1       6.229  25.514  51.609  1.00  0.00     0.070 C 
HETATM    2  C   UNL     1       5.450  26.569  50.863  1.00  0.00     0.037 C 
HETATM    3  N   UNL     1       5.281  26.340  49.502  1.00  0.00    -0.192 N 
HETATM    4  C   UNL     1       4.419  27.044  48.743  1.00  0.00     0.725 A 
HETATM    5  N   UNL     1       3.784  28.135  49.276  1.00  0.00    -0.084 N 
HETATM    6  N   UNL     1       2.901  28.661  48.400  1.00  0.00    -0.149 NA
HETATM    7  C   UNL     1       3.092  27.861  47.345  1.00  0.00     0.275 A 
HETATM    8  N   UNL     1       4.014  26.860  47.512  1.00  0.00    -0.054 NA
HETATM    9  C   UNL     1       4.007  28.629  50.642  1.00  0.00     0.205 C 
HETATM   10  C   UNL     1       4.877  27.656  51.435  1.00  0.00     0.063 C 
HETATM   11  H   UNL     1       5.642  25.468  49.122  1.00  0.00     0.184 HD
ENDROOT
BRANCH  10  12
HETATM   12  C   UNL     1       4.946  27.944  52.890  1.00  0.00     0.256 C 
HETATM   13  N   UNL     1       6.161  28.468  53.279  1.00  0.00    -0.323 N 
HETATM   14  H   UNL     1       6.851  28.611  52.553  1.00  0.00     0.169 HD
HETATM   15  O   UNL     1       3.969  27.715  53.591  1.00  0.00    -0.267 OA
BRANCH  13  16
HETATM   16  C   UNL     1       6.567  28.798  54.589  1.00  0.00     0.035 A 
HETATM   17  C   UNL     1       5.798  29.553  55.477  1.00  0.00     0.031 A 
HETATM   18  C   UNL     1       6.266  29.828  56.767  1.00  0.00     0.026 A 
HETATM   19  C   UNL     1       7.504  29.342  57.176  1.00  0.00     0.034 A 
HETATM   20 CL   UNL     1       8.075  29.671  58.765  1.00  0.00    -0.084 Cl
HETATM   21  C   UNL     1       8.284  28.591  56.302  1.00  0.00     0.026 A 
HETATM   22  C   UNL     1       7.818  28.324  55.010  1.00  0.00     0.031 A 
ENDBRANCH  13  16
ENDBRANCH  10  12
BRANCH   9  23
HETATM   23  C   UNL     1       4.610  30.033  50.579  1.00  0.00     0.005 A 
HETATM   24  C   UNL     1       4.083  31.077  51.363  1.00  0.00     0.076 A 
HETATM   25  C   UNL     1       4.644  32.356  51.291  1.00  0.00     0.037 A 
HETATM   26  C   UNL     1       5.710  32.615  50.426  1.00  0.00     0.003 A 
HETATM   27  C   UNL     1       6.223  31.598  49.629  1.00  0.00     0.001 A 
HETATM   28  C   UNL     1       5.680  30.316  49.704  1.00  0.00     0.012 A 
BRANCH  24  29
HETATM   29  O   UNL     1       3.045  30.754  52.195  1.00  0.00    -0.355 OA
HETATM   30  C   UNL     1       3.128  31.253  53.526  1.00  0.00     0.210 C 
ENDBRANCH  24  29
ENDBRANCH   9  23
TORSDOF 4
ENDMDL
MODEL 10
REMARK VINA RESULT:      -6.9      3.402      6.301
REMARK  4 active torsions:
REMARK  status: ('A' for Active; 'I' for Inactive)
REMARK    1  A    between atoms: C_9  and  C_10 
REMARK    2  A    between atoms: C_11  and  O_12 
REMARK    3  A    between atoms: C_18  and  C_19 
REMARK       I    between atoms: C_19  and  N_20 
REMARK    4  A    between atoms: N_20  and  C_21 
ROOT
HETATM    1  C   UNL     1       3.355  30.327  53.610  1.00  0.00     0.070 C 
HETATM    2  C   UNL     1       3.111  30.412  52.124  1.00  0.00     0.037 C 
HETATM    3  N   UNL     1       2.141  31.326  51.725  1.00  0.00    -0.192 N 
HETATM    4  C   UNL     1       1.970  31.700  50.443  1.00  0.00     0.725 A 
HETATM    5  N   UNL     1       2.665  31.056  49.453  1.00  0.00    -0.084 N 
HETATM    6  N   UNL     1       2.430  31.619  48.247  1.00  0.00    -0.149 NA
HETATM    7  C   UNL     1       1.550  32.568  48.585  1.00  0.00     0.275 A 
HETATM    8  N   UNL     1       1.240  32.650  49.918  1.00  0.00    -0.054 NA
HETATM    9  C   UNL     1       3.582  29.932  49.689  1.00  0.00     0.205 C 
HETATM   10  C   UNL     1       3.801  29.717  51.186  1.00  0.00     0.063 C 
HETATM   11  H   UNL     1       1.710  31.898  52.447  1.00  0.00     0.184 HD
ENDROOT
BRANCH  10  12
HETATM   12  C   UNL     1       4.900  28.773  51.514  1.00  0.00     0.256 C 
HETATM   13  N   UNL     1       4.449  27.505  51.814  1.00  0.00    -0.323 N 
HETATM   14  H   UNL     1       3.450  27.352  51.765  1.00  0.00     0.169 HD
HETATM   15  O   UNL     1       6.056  29.172  51.485  1.00  0.00    -0.267 OA
BRANCH  13  16
HETATM   16  C   UNL     1       5.225  26.398  52.216  1.00  0.00     0.035 A 
HETATM   17  C   UNL     1       6.265  25.857  51.457  1.00  0.00     0.031 A 
HETATM   18  C   UNL     1       6.998  24.764  51.932  1.00  0.00     0.026 A 
HETATM   19  C   UNL     1       6.696  24.210  53.172  1.00  0.00     0.034 A 
HETATM   20 CL   UNL     1       7.604  22.873  53.760  1.00  0.00    -0.084 Cl
HETATM   21  C   UNL     1       5.661  24.736  53.939  1.00  0.00     0.026 A 
HETATM   22  C   UNL     1       4.924  25.824  53.459  1.00  0.00     0.031 A 
ENDBRANCH  13  16
ENDBRANCH  10  12
BRANCH   9  23
HETATM   23  C   UNL     1       3.038  28.682  48.995  1.00  0.00     0.005 A 
HETATM   24  C   UNL     1       3.899  27.822  48.288  1.00  0.00     0.076 A 
HETATM   25  C   UNL     1       3.386  26.685  47.656  1.00  0.00     0.037 A 
HETATM   26  C   UNL     1       2.018  26.408  47.696  1.00  0.00     0.003 A 
HETATM   27  C   UNL     1       1.154  27.264  48.370  1.00  0.00     0.001 A 
HETATM   28  C   UNL     1       1.658  28.392  49.015  1.00  0.00     0.012 A 
BRANCH  24  29
HETATM   29  O   UNL     1       5.230  28.145  48.296  1.00  0.00    -0.355 OA
HETATM   30  C   UNL     1       5.875  28.182  47.027  1.00  0.00     0.210 C 
ENDBRANCH  24  29
ENDBRANCH   9  23
TORSDOF 4
ENDMDL
