MODEL 1
REMARK VINA RESULT:     -10.1      0.000      0.000
REMARK  6 active torsions:
REMARK  status: ('A' for Active; 'I' for Inactive)
REMARK    1  A    between atoms: C_3  and  C_4 
REMARK    2  A    between atoms: C_4  and  N_5 
REMARK    3  A    between atoms: C_4  and  C_9 
REMARK       I    between atoms: N_5  and  C_6 
REMARK       I    between atoms: C_6  and  N_7 
REMARK    4  A    between atoms: C_9  and  C_10 
REMARK       I    between atoms: C_10  and  N_11 
REMARK    5  A    between atoms: N_11  and  N_12 
REMARK       I    between atoms: N_12  and  C_13 
REMARK    6  A    between atoms: C_13  and  C_14 
ROOT
HETATM    1  C   UNL     1       7.376  28.205  57.485  1.00  0.00     0.238 C 
HETATM    2  N   UNL     1       7.097  27.944  56.163  1.00  0.00    -0.267 N 
HETATM    3  O   UNL     1       7.927  27.375  58.207  1.00  0.00    -0.272 OA
HETATM    4  H   UNL     1       6.600  28.568  55.530  1.00  0.00     0.190 HD
ENDROOT
BRANCH   1   5
HETATM    5  C   UNL     1       6.937  29.562  57.980  1.00  0.00     0.134 C 
BRANCH   5   6
HETATM    6  C   UNL     1       8.118  30.469  58.355  1.00  0.00     0.129 C 
BRANCH   6   7
HETATM    7  C   UNL     1       8.043  30.952  59.799  1.00  0.00    -0.013 A 
HETATM    8  C   UNL     1       8.888  30.404  60.786  1.00  0.00     0.011 A 
HETATM    9  C   UNL     1       8.809  30.815  62.120  1.00  0.00     0.001 A 
HETATM   10  C   UNL     1       7.884  31.782  62.500  1.00  0.00     0.002 A 
HETATM   11  C   UNL     1       7.030  32.330  61.547  1.00  0.00     0.024 A 
HETATM   12  C   UNL     1       7.100  31.916  60.211  1.00  0.00     0.042 A 
HETATM   13 CL   UNL     1       5.963  32.627  59.119  1.00  0.00    -0.084 Cl
ENDBRANCH   6   7
BRANCH   6  14
HETATM   14  N   UNL     1       9.418  29.880  58.027  1.00  0.00    -0.339 N 
HETATM   15  C   UNL     1      10.550  30.533  57.679  1.00  0.00     0.292 C 
HETATM   16  N   UNL     1      10.623  31.845  57.978  1.00  0.00    -0.254 NA
HETATM   17  O   UNL     1      11.472  29.963  57.111  1.00  0.00    -0.254 OA
HETATM   18  H   UNL     1      10.301  32.112  58.895  1.00  0.00     0.128 HD
HETATM   19  H   UNL     1      11.530  32.233  57.747  1.00  0.00     0.128 HD
HETATM   20  H   UNL     1       9.423  28.951  57.627  1.00  0.00     0.164 HD
ENDBRANCH   6  14
ENDBRANCH   5   6
ENDBRANCH   1   5
BRANCH   2  21
HETATM   21  N   UNL     1       7.523  26.721  55.641  1.00  0.00    -0.263 N 
HETATM   22  C   UNL     1       6.587  25.733  55.422  1.00  0.00     0.270 C 
HETATM   23  O   UNL     1       5.408  25.864  55.744  1.00  0.00    -0.266 OA
HETATM   24  H   UNL     1       8.520  26.644  55.449  1.00  0.00     0.190 HD
BRANCH  22  25
HETATM   25  C   UNL     1       7.068  24.476  54.776  1.00  0.00     0.036 A 
HETATM   26  C   UNL     1       7.230  23.279  55.490  1.00  0.00     0.057 A 
HETATM   27  C   UNL     1       7.702  22.180  54.801  1.00  0.00     0.106 A 
HETATM   28  C   UNL     1       8.017  22.233  53.464  1.00  0.00     0.105 A 
HETATM   29  O   UNL     1       7.923  20.949  55.336  1.00  0.00    -0.323 OA
HETATM   30  O   UNL     1       8.471  21.043  52.989  1.00  0.00    -0.323 OA
HETATM   31  C   UNL     1       7.878  23.393  52.734  1.00  0.00     0.041 A 
HETATM   32  C   UNL     1       8.415  20.234  54.184  1.00  0.00     0.352 A 
HETATM   33  C   UNL     1       7.400  24.525  53.402  1.00  0.00     0.020 A 
ENDBRANCH  22  25
ENDBRANCH   2  21
TORSDOF 6
ENDMDL
MODEL 2
REMARK VINA RESULT:      -9.8      3.094      9.619
REMARK  6 active torsions:
REMARK  status: ('A' for Active; 'I' for Inactive)
REMARK    1  A    between atoms: C_3  and  C_4 
REMARK    2  A    between atoms: C_4  and  N_5 
REMARK    3  A    between atoms: C_4  and  C_9 
REMARK       I    between atoms: N_5  and  C_6 
REMARK       I    between atoms: C_6  and  N_7 
REMARK    4  A    between atoms: C_9  and  C_10 
REMARK       I    between atoms: C_10  and  N_11 
REMARK    5  A    between atoms: N_11  and  N_12 
REMARK       I    between atoms: N_12  and  C_13 
REMARK    6  A    between atoms: C_13  and  C_14 
ROOT
HETATM    1  C   UNL     1       8.289  25.929  57.286  1.00  0.00     0.238 C 
HETATM    2  N   UNL     1       8.183  27.248  56.909  1.00  0.00    -0.267 N 
HETATM    3  O   UNL     1       8.154  25.576  58.456  1.00  0.00    -0.272 OA
HETATM    4  H   UNL     1       8.333  27.609  55.969  1.00  0.00     0.190 HD
ENDROOT
BRANCH   1   5
HETATM    5  C   UNL     1       8.605  24.965  56.168  1.00  0.00     0.134 C 
BRANCH   5   6
HETATM    6  C   UNL     1       7.345  24.400  55.495  1.00  0.00     0.129 C 
BRANCH   6   7
HETATM    7  C   UNL     1       7.591  23.039  54.854  1.00  0.00    -0.013 A 
HETATM    8  C   UNL     1       7.656  21.872  55.642  1.00  0.00     0.011 A 
HETATM    9  C   UNL     1       7.911  20.622  55.071  1.00  0.00     0.001 A 
HETATM   10  C   UNL     1       8.109  20.508  53.699  1.00  0.00     0.002 A 
HETATM   11  C   UNL     1       8.062  21.646  52.900  1.00  0.00     0.024 A 
HETATM   12  C   UNL     1       7.814  22.901  53.468  1.00  0.00     0.042 A 
HETATM   13 CL   UNL     1       7.823  24.255  52.391  1.00  0.00    -0.084 Cl
ENDBRANCH   6   7
BRANCH   6  14
HETATM   14  N   UNL     1       6.177  24.401  56.378  1.00  0.00    -0.339 N 
HETATM   15  C   UNL     1       5.246  25.373  56.507  1.00  0.00     0.292 C 
HETATM   16  N   UNL     1       5.160  26.280  55.514  1.00  0.00    -0.254 NA
HETATM   17  O   UNL     1       4.512  25.436  57.484  1.00  0.00    -0.254 OA
HETATM   18  H   UNL     1       5.200  25.918  54.574  1.00  0.00     0.128 HD
HETATM   19  H   UNL     1       4.392  26.925  55.659  1.00  0.00     0.128 HD
HETATM   20  H   UNL     1       6.241  23.874  57.240  1.00  0.00     0.164 HD
ENDBRANCH   6  14
ENDBRANCH   5   6
ENDBRANCH   1   5
BRANCH   2  21
HETATM   21  N   UNL     1       7.846  28.177  57.896  1.00  0.00    -0.263 N 
HETATM   22  C   UNL     1       8.563  29.352  57.972  1.00  0.00     0.270 C 
HETATM   23  O   UNL     1       9.536  29.573  57.254  1.00  0.00    -0.266 OA
HETATM   24  H   UNL     1       7.071  27.918  58.504  1.00  0.00     0.190 HD
BRANCH  22  25
HETATM   25  C   UNL     1       8.111  30.358  58.978  1.00  0.00     0.036 A 
HETATM   26  C   UNL     1       8.668  30.437  60.264  1.00  0.00     0.057 A 
HETATM   27  C   UNL     1       8.162  31.390  61.125  1.00  0.00     0.106 A 
HETATM   28  C   UNL     1       7.142  32.238  60.761  1.00  0.00     0.105 A 
HETATM   29  O   UNL     1       8.579  31.599  62.402  1.00  0.00    -0.323 OA
HETATM   30  O   UNL     1       6.793  33.088  61.762  1.00  0.00    -0.323 OA
HETATM   31  C   UNL     1       6.567  32.183  59.511  1.00  0.00     0.041 A 
HETATM   32  C   UNL     1       7.704  32.674  62.803  1.00  0.00     0.352 A 
HETATM   33  C   UNL     1       7.058  31.230  58.613  1.00  0.00     0.020 A 
ENDBRANCH  22  25
ENDBRANCH   2  21
TORSDOF 6
ENDMDL
MODEL 3
REMARK VINA RESULT:      -9.7      3.122      9.228
REMARK  6 active torsions:
REMARK  status: ('A' for Active; 'I' for Inactive)
REMARK    1  A    between atoms: C_3  and  C_4 
REMARK    2  A    between atoms: C_4  and  N_5 
REMARK    3  A    between atoms: C_4  and  C_9 
REMARK       I    between atoms: N_5  and  C_6 
REMARK       I    between atoms: C_6  and  N_7 
REMARK    4  A    between atoms: C_9  and  C_10 
REMARK       I    between atoms: C_10  and  N_11 
REMARK    5  A    between atoms: N_11  and  N_12 
REMARK       I    between atoms: N_12  and  C_13 
REMARK    6  A    between atoms: C_13  and  C_14 
ROOT
HETATM    1  C   UNL     1       6.703  25.361  56.462  1.00  0.00     0.238 C 
HETATM    2  N   UNL     1       7.947  25.913  56.258  1.00  0.00    -0.267 N 
HETATM    3  O   UNL     1       5.966  25.742  57.370  1.00  0.00    -0.272 OA
HETATM    4  H   UNL     1       8.622  25.609  55.558  1.00  0.00     0.190 HD
ENDROOT
BRANCH   1   5
HETATM    5  C   UNL     1       6.330  24.249  55.512  1.00  0.00     0.134 C 
BRANCH   5   6
HETATM    6  C   UNL     1       7.362  24.053  54.391  1.00  0.00     0.129 C 
BRANCH   6   7
HETATM    7  C   UNL     1       7.870  22.618  54.316  1.00  0.00    -0.013 A 
HETATM    8  C   UNL     1       7.806  21.893  53.109  1.00  0.00     0.011 A 
HETATM    9  C   UNL     1       8.241  20.567  53.033  1.00  0.00     0.001 A 
HETATM   10  C   UNL     1       8.749  19.932  54.161  1.00  0.00     0.002 A 
HETATM   11  C   UNL     1       8.813  20.622  55.369  1.00  0.00     0.024 A 
HETATM   12  C   UNL     1       8.372  21.948  55.451  1.00  0.00     0.042 A 
HETATM   13 CL   UNL     1       8.453  22.696  57.009  1.00  0.00    -0.084 Cl
ENDBRANCH   6   7
BRANCH   6  14
HETATM   14  N   UNL     1       6.900  24.553  53.095  1.00  0.00    -0.339 N 
HETATM   15  C   UNL     1       6.988  25.817  52.624  1.00  0.00     0.292 C 
HETATM   16  N   UNL     1       7.871  26.639  53.224  1.00  0.00    -0.254 NA
HETATM   17  O   UNL     1       6.293  26.208  51.695  1.00  0.00    -0.254 OA
HETATM   18  H   UNL     1       8.779  26.248  53.426  1.00  0.00     0.128 HD
HETATM   19  H   UNL     1       7.921  27.540  52.762  1.00  0.00     0.128 HD
HETATM   20  H   UNL     1       6.112  24.083  52.666  1.00  0.00     0.164 HD
ENDBRANCH   6  14
ENDBRANCH   5   6
ENDBRANCH   1   5
BRANCH   2  21
HETATM   21  N   UNL     1       8.324  26.978  57.080  1.00  0.00    -0.263 N 
HETATM   22  C   UNL     1       8.390  28.242  56.535  1.00  0.00     0.270 C 
HETATM   23  O   UNL     1       8.206  28.450  55.337  1.00  0.00    -0.266 OA
HETATM   24  H   UNL     1       8.525  26.741  58.049  1.00  0.00     0.190 HD
BRANCH  22  25
HETATM   25  C   UNL     1       8.704  29.366  57.466  1.00  0.00     0.036 A 
HETATM   26  C   UNL     1       7.815  29.781  58.470  1.00  0.00     0.057 A 
HETATM   27  C   UNL     1       8.195  30.846  59.262  1.00  0.00     0.106 A 
HETATM   28  C   UNL     1       9.393  31.498  59.089  1.00  0.00     0.105 A 
HETATM   29  O   UNL     1       7.457  31.379  60.273  1.00  0.00    -0.323 OA
HETATM   30  O   UNL     1       9.560  32.520  59.970  1.00  0.00    -0.323 OA
HETATM   31  C   UNL     1      10.285  31.123  58.109  1.00  0.00     0.041 A 
HETATM   32  C   UNL     1       8.326  32.444  60.714  1.00  0.00     0.352 A 
HETATM   33  C   UNL     1       9.932  30.045  57.289  1.00  0.00     0.020 A 
ENDBRANCH  22  25
ENDBRANCH   2  21
TORSDOF 6
ENDMDL
MODEL 4
REMARK VINA RESULT:      -9.5      3.751      9.668
REMARK  6 active torsions:
REMARK  status: ('A' for Active; 'I' for Inactive)
REMARK    1  A    between atoms: C_3  and  C_4 
REMARK    2  A    between atoms: C_4  and  N_5 
REMARK    3  A    between atoms: C_4  and  C_9 
REMARK       I    between atoms: N_5  and  C_6 
REMARK       I    between atoms: C_6  and  N_7 
REMARK    4  A    between atoms: C_9  and  C_10 
REMARK       I    between atoms: C_10  and  N_11 
REMARK    5  A    between atoms: N_11  and  N_12 
REMARK       I    between atoms: N_12  and  C_13 
REMARK    6  A    between atoms: C_13  and  C_14 
ROOT
HETATM    1  C   UNL     1       5.815  30.298  57.568  1.00  0.00     0.238 C 
HETATM    2  N   UNL     1       6.852  30.731  58.361  1.00  0.00    -0.267 N 
HETATM    3  O   UNL     1       4.651  30.297  57.965  1.00  0.00    -0.272 OA
HETATM    4  H   UNL     1       7.839  30.710  58.109  1.00  0.00     0.190 HD
ENDROOT
BRANCH   1   5
HETATM    5  C   UNL     1       6.216  29.805  56.198  1.00  0.00     0.134 C 
BRANCH   5   6
HETATM    6  C   UNL     1       7.249  28.671  56.253  1.00  0.00     0.129 C 
BRANCH   6   7
HETATM    7  C   UNL     1       6.731  27.384  55.620  1.00  0.00    -0.013 A 
HETATM    8  C   UNL     1       5.770  27.425  54.589  1.00  0.00     0.011 A 
HETATM    9  C   UNL     1       5.264  26.253  54.020  1.00  0.00     0.001 A 
HETATM   10  C   UNL     1       5.704  25.012  54.467  1.00  0.00     0.002 A 
HETATM   11  C   UNL     1       6.644  24.944  55.492  1.00  0.00     0.024 A 
HETATM   12  C   UNL     1       7.148  26.115  56.070  1.00  0.00     0.042 A 
HETATM   13 CL   UNL     1       8.276  25.915  57.366  1.00  0.00    -0.084 Cl
ENDBRANCH   6   7
BRANCH   6  14
HETATM   14  N   UNL     1       8.559  29.065  55.731  1.00  0.00    -0.339 N 
HETATM   15  C   UNL     1       9.585  29.615  56.419  1.00  0.00     0.292 C 
HETATM   16  N   UNL     1       9.565  29.493  57.760  1.00  0.00    -0.254 NA
HETATM   17  O   UNL     1      10.495  30.207  55.853  1.00  0.00    -0.254 OA
HETATM   18  H   UNL     1       9.312  28.585  58.122  1.00  0.00     0.128 HD
HETATM   19  H   UNL     1      10.404  29.870  58.185  1.00  0.00     0.128 HD
HETATM   20  H   UNL     1       8.611  29.344  54.759  1.00  0.00     0.164 HD
ENDBRANCH   6  14
ENDBRANCH   5   6
ENDBRANCH   1   5
BRANCH   2  21
HETATM   21  N   UNL     1       6.533  31.241  59.621  1.00  0.00    -0.263 N 
HETATM   22  C   UNL     1       7.501  31.234  60.603  1.00  0.00     0.270 C 
HETATM   23  O   UNL     1       8.606  30.723  60.430  1.00  0.00    -0.266 OA
HETATM   24  H   UNL     1       5.585  31.596  59.730  1.00  0.00     0.190 HD
BRANCH  22  25
HETATM   25  C   UNL     1       7.150  31.873  61.906  1.00  0.00     0.036 A 
HETATM   26  C   UNL     1       5.821  32.089  62.303  1.00  0.00     0.057 A 
HETATM   27  C   UNL     1       5.607  32.709  63.518  1.00  0.00     0.106 A 
HETATM   28  C   UNL     1       6.644  33.116  64.324  1.00  0.00     0.105 A 
HETATM   29  O   UNL     1       4.391  32.999  64.051  1.00  0.00    -0.323 OA
HETATM   30  O   UNL     1       6.209  33.709  65.467  1.00  0.00    -0.323 OA
HETATM   31  C   UNL     1       7.959  32.927  63.963  1.00  0.00     0.041 A 
HETATM   32  C   UNL     1       4.778  33.638  65.285  1.00  0.00     0.352 A 
HETATM   33  C   UNL     1       8.211  32.300  62.738  1.00  0.00     0.020 A 
ENDBRANCH  22  25
ENDBRANCH   2  21
TORSDOF 6
ENDMDL
MODEL 5
REMARK VINA RESULT:      -9.3      6.752      9.841
REMARK  6 active torsions:
REMARK  status: ('A' for Active; 'I' for Inactive)
REMARK    1  A    between atoms: C_3  and  C_4 
REMARK    2  A    between atoms: C_4  and  N_5 
REMARK    3  A    between atoms: C_4  and  C_9 
REMARK       I    between atoms: N_5  and  C_6 
REMARK       I    between atoms: C_6  and  N_7 
REMARK    4  A    between atoms: C_9  and  C_10 
REMARK       I    between atoms: C_10  and  N_11 
REMARK    5  A    between atoms: N_11  and  N_12 
REMARK       I    between atoms: N_12  and  C_13 
REMARK    6  A    between atoms: C_13  and  C_14 
ROOT
HETATM    1  C   UNL     1       5.549  26.114  51.334  1.00  0.00     0.238 C 
HETATM    2  N   UNL     1       5.287  26.109  49.983  1.00  0.00    -0.267 N 
HETATM    3  O   UNL     1       4.868  26.765  52.124  1.00  0.00    -0.272 OA
HETATM    4  H   UNL     1       5.842  25.632  49.274  1.00  0.00     0.190 HD
ENDROOT
BRANCH   1   5
HETATM    5  C   UNL     1       6.739  25.289  51.761  1.00  0.00     0.134 C 
BRANCH   5   6
HETATM    6  C   UNL     1       6.914  25.241  53.286  1.00  0.00     0.129 C 
BRANCH   6   7
HETATM    7  C   UNL     1       7.332  23.860  53.778  1.00  0.00    -0.013 A 
HETATM    8  C   UNL     1       7.828  22.894  52.879  1.00  0.00     0.011 A 
HETATM    9  C   UNL     1       8.186  21.615  53.312  1.00  0.00     0.001 A 
HETATM   10  C   UNL     1       8.056  21.268  54.652  1.00  0.00     0.002 A 
HETATM   11  C   UNL     1       7.557  22.199  55.559  1.00  0.00     0.024 A 
HETATM   12  C   UNL     1       7.191  23.479  55.128  1.00  0.00     0.042 A 
HETATM   13 CL   UNL     1       6.540  24.543  56.328  1.00  0.00    -0.084 Cl
ENDBRANCH   6   7
BRANCH   6  14
HETATM   14  N   UNL     1       7.782  26.305  53.795  1.00  0.00    -0.339 N 
HETATM   15  C   UNL     1       7.406  27.509  54.281  1.00  0.00     0.292 C 
HETATM   16  N   UNL     1       6.120  27.646  54.663  1.00  0.00    -0.254 NA
HETATM   17  O   UNL     1       8.193  28.442  54.370  1.00  0.00    -0.254 OA
HETATM   18  H   UNL     1       5.730  26.885  55.197  1.00  0.00     0.128 HD
HETATM   19  H   UNL     1       5.947  28.553  55.080  1.00  0.00     0.128 HD
HETATM   20  H   UNL     1       8.718  26.368  53.414  1.00  0.00     0.164 HD
ENDBRANCH   6  14
ENDBRANCH   5   6
ENDBRANCH   1   5
BRANCH   2  21
HETATM   21  N   UNL     1       4.169  26.818  49.539  1.00  0.00    -0.263 N 
HETATM   22  C   UNL     1       3.979  26.973  48.183  1.00  0.00     0.270 C 
HETATM   23  O   UNL     1       4.801  26.579  47.357  1.00  0.00    -0.266 OA
HETATM   24  H   UNL     1       3.552  27.176  50.266  1.00  0.00     0.190 HD
BRANCH  22  25
HETATM   25  C   UNL     1       2.725  27.655  47.747  1.00  0.00     0.036 A 
HETATM   26  C   UNL     1       1.762  27.018  46.948  1.00  0.00     0.057 A 
HETATM   27  C   UNL     1       0.648  27.747  46.582  1.00  0.00     0.106 A 
HETATM   28  C   UNL     1       0.470  29.055  46.968  1.00  0.00     0.105 A 
HETATM   29  O   UNL     1      -0.374  27.290  45.811  1.00  0.00    -0.323 OA
HETATM   30  O   UNL     1      -0.689  29.582  46.491  1.00  0.00    -0.323 OA
HETATM   31  C   UNL     1       1.397  29.713  47.744  1.00  0.00     0.041 A 
HETATM   32  C   UNL     1      -1.216  28.460  45.752  1.00  0.00     0.352 A 
HETATM   33  C   UNL     1       2.537  29.002  48.134  1.00  0.00     0.020 A 
ENDBRANCH  22  25
ENDBRANCH   2  21
TORSDOF 6
ENDMDL
MODEL 6
REMARK VINA RESULT:      -9.1      3.547      9.478
REMARK  6 active torsions:
REMARK  status: ('A' for Active; 'I' for Inactive)
REMARK    1  A    between atoms: C_3  and  C_4 
REMARK    2  A    between atoms: C_4  and  N_5 
REMARK    3  A    between atoms: C_4  and  C_9 
REMARK       I    between atoms: N_5  and  C_6 
REMARK       I    between atoms: C_6  and  N_7 
REMARK    4  A    between atoms: C_9  and  C_10 
REMARK       I    between atoms: C_10  and  N_11 
REMARK    5  A    between atoms: N_11  and  N_12 
REMARK       I    between atoms: N_12  and  C_13 
REMARK    6  A    between atoms: C_13  and  C_14 
ROOT
HETATM    1  C   UNL     1       7.512  28.755  55.670  1.00  0.00     0.238 C 
HETATM    2  N   UNL     1       8.175  28.421  56.829  1.00  0.00    -0.267 N 
HETATM    3  O   UNL     1       6.631  29.613  55.651  1.00  0.00    -0.272 OA
HETATM    4  H   UNL     1       8.876  27.687  56.919  1.00  0.00     0.190 HD
ENDROOT
BRANCH   1   5
HETATM    5  C   UNL     1       7.928  27.977  54.445  1.00  0.00     0.134 C 
BRANCH   5   6
HETATM    6  C   UNL     1       6.843  27.005  53.960  1.00  0.00     0.129 C 
BRANCH   6   7
HETATM    7  C   UNL     1       7.098  25.574  54.421  1.00  0.00    -0.013 A 
HETATM    8  C   UNL     1       6.950  25.217  55.777  1.00  0.00     0.011 A 
HETATM    9  C   UNL     1       7.209  23.917  56.219  1.00  0.00     0.001 A 
HETATM   10  C   UNL     1       7.624  22.942  55.318  1.00  0.00     0.002 A 
HETATM   11  C   UNL     1       7.790  23.272  53.975  1.00  0.00     0.024 A 
HETATM   12  C   UNL     1       7.538  24.574  53.530  1.00  0.00     0.042 A 
HETATM   13 CL   UNL     1       7.819  24.887  51.851  1.00  0.00    -0.084 Cl
ENDBRANCH   6   7
BRANCH   6  14
HETATM   14  N   UNL     1       5.487  27.461  54.271  1.00  0.00    -0.339 N 
HETATM   15  C   UNL     1       4.437  27.553  53.424  1.00  0.00     0.292 C 
HETATM   16  N   UNL     1       4.510  26.855  52.273  1.00  0.00    -0.254 NA
HETATM   17  O   UNL     1       3.460  28.242  53.682  1.00  0.00    -0.254 OA
HETATM   18  H   UNL     1       4.855  25.910  52.345  1.00  0.00     0.128 HD
HETATM   19  H   UNL     1       3.653  26.925  51.736  1.00  0.00     0.128 HD
HETATM   20  H   UNL     1       5.379  28.132  55.021  1.00  0.00     0.164 HD
ENDBRANCH   6  14
ENDBRANCH   5   6
ENDBRANCH   1   5
BRANCH   2  21
HETATM   21  N   UNL     1       7.862  29.142  57.983  1.00  0.00    -0.263 N 
HETATM   22  C   UNL     1       8.811  29.991  58.510  1.00  0.00     0.270 C 
HETATM   23  O   UNL     1       9.947  30.073  58.046  1.00  0.00    -0.266 OA
HETATM   24  H   UNL     1       6.930  28.991  58.362  1.00  0.00     0.190 HD
BRANCH  22  25
HETATM   25  C   UNL     1       8.406  30.813  59.688  1.00  0.00     0.036 A 
HETATM   26  C   UNL     1       7.267  31.634  59.676  1.00  0.00     0.057 A 
HETATM   27  C   UNL     1       6.995  32.371  60.811  1.00  0.00     0.106 A 
HETATM   28  C   UNL     1       7.800  32.325  61.924  1.00  0.00     0.105 A 
HETATM   29  O   UNL     1       5.942  33.217  60.967  1.00  0.00    -0.323 OA
HETATM   30  O   UNL     1       7.353  33.134  62.921  1.00  0.00    -0.323 OA
HETATM   31  C   UNL     1       8.929  31.538  61.969  1.00  0.00     0.041 A 
HETATM   32  C   UNL     1       6.177  33.702  62.305  1.00  0.00     0.352 A 
HETATM   33  C   UNL     1       9.233  30.777  60.835  1.00  0.00     0.020 A 
ENDBRANCH  22  25
ENDBRANCH   2  21
TORSDOF 6
ENDMDL
MODEL 7
REMARK VINA RESULT:      -9.0      5.246      8.645
REMARK  6 active torsions:
REMARK  status: ('A' for Active; 'I' for Inactive)
REMARK    1  A    between atoms: C_3  and  C_4 
REMARK    2  A    between atoms: C_4  and  N_5 
REMARK    3  A    between atoms: C_4  and  C_9 
REMARK       I    between atoms: N_5  and  C_6 
REMARK       I    between atoms: C_6  and  N_7 
REMARK    4  A    between atoms: C_9  and  C_10 
REMARK       I    between atoms: C_10  and  N_11 
REMARK    5  A    between atoms: N_11  and  N_12 
REMARK       I    between atoms: N_12  and  C_13 
REMARK    6  A    between atoms: C_13  and  C_14 
ROOT
HETATM    1  C   UNL     1       5.431  26.189  54.475  1.00  0.00     0.238 C 
HETATM    2  N   UNL     1       4.476  26.075  53.491  1.00  0.00    -0.267 N 
HETATM    3  O   UNL     1       6.248  27.108  54.482  1.00  0.00    -0.272 OA
HETATM    4  H   UNL     1       3.806  25.313  53.402  1.00  0.00     0.190 HD
ENDROOT
BRANCH   1   5
HETATM    5  C   UNL     1       5.412  25.097  55.518  1.00  0.00     0.134 C 
BRANCH   5   6
HETATM    6  C   UNL     1       6.821  24.651  55.937  1.00  0.00     0.129 C 
BRANCH   6   7
HETATM    7  C   UNL     1       7.395  23.593  55.000  1.00  0.00    -0.013 A 
HETATM    8  C   UNL     1       7.247  23.711  53.603  1.00  0.00     0.011 A 
HETATM    9  C   UNL     1       7.743  22.735  52.735  1.00  0.00     0.001 A 
HETATM   10  C   UNL     1       8.397  21.616  53.240  1.00  0.00     0.002 A 
HETATM   11  C   UNL     1       8.546  21.470  54.617  1.00  0.00     0.024 A 
HETATM   12  C   UNL     1       8.045  22.442  55.490  1.00  0.00     0.042 A 
HETATM   13 CL   UNL     1       8.243  22.139  57.182  1.00  0.00    -0.084 Cl
ENDBRANCH   6   7
BRANCH   6  14
HETATM   14  N   UNL     1       7.737  25.773  56.146  1.00  0.00    -0.339 N 
HETATM   15  C   UNL     1       8.136  26.297  57.327  1.00  0.00     0.292 C 
HETATM   16  N   UNL     1       7.968  25.539  58.428  1.00  0.00    -0.254 NA
HETATM   17  O   UNL     1       8.626  27.416  57.401  1.00  0.00    -0.254 OA
HETATM   18  H   UNL     1       8.221  24.566  58.342  1.00  0.00     0.128 HD
HETATM   19  H   UNL     1       8.358  25.980  59.252  1.00  0.00     0.128 HD
HETATM   20  H   UNL     1       7.782  26.482  55.425  1.00  0.00     0.164 HD
ENDBRANCH   6  14
ENDBRANCH   5   6
ENDBRANCH   1   5
BRANCH   2  21
HETATM   21  N   UNL     1       4.418  27.083  52.526  1.00  0.00    -0.263 N 
HETATM   22  C   UNL     1       4.946  26.835  51.277  1.00  0.00     0.270 C 
HETATM   23  O   UNL     1       5.536  25.790  51.011  1.00  0.00    -0.266 OA
HETATM   24  H   UNL     1       3.974  27.951  52.818  1.00  0.00     0.190 HD
BRANCH  22  25
HETATM   25  C   UNL     1       4.781  27.903  50.247  1.00  0.00     0.036 A 
HETATM   26  C   UNL     1       3.902  27.770  49.161  1.00  0.00     0.057 A 
HETATM   27  C   UNL     1       3.842  28.808  48.253  1.00  0.00     0.106 A 
HETATM   28  C   UNL     1       4.612  29.940  48.383  1.00  0.00     0.105 A 
HETATM   29  O   UNL     1       3.054  28.842  47.146  1.00  0.00    -0.323 OA
HETATM   30  O   UNL     1       4.402  30.828  47.376  1.00  0.00    -0.323 OA
HETATM   31  C   UNL     1       5.490  30.101  49.431  1.00  0.00     0.041 A 
HETATM   32  C   UNL     1       3.417  30.123  46.590  1.00  0.00     0.352 A 
HETATM   33  C   UNL     1       5.574  29.067  50.371  1.00  0.00     0.020 A 
ENDBRANCH  22  25
ENDBRANCH   2  21
TORSDOF 6
ENDMDL
MODEL 8
REMARK VINA RESULT:      -9.0      4.438      9.239
REMARK  6 active torsions:
REMARK  status: ('A' for Active; 'I' for Inactive)
REMARK    1  A    between atoms: C_3  and  C_4 
REMARK    2  A    between atoms: C_4  and  N_5 
REMARK    3  A    between atoms: C_4  and  C_9 
REMARK       I    between atoms: N_5  and  C_6 
REMARK       I    between atoms: C_6  and  N_7 
REMARK    4  A    between atoms: C_9  and  C_10 
REMARK       I    between atoms: C_10  and  N_11 
REMARK    5  A    between atoms: N_11  and  N_12 
REMARK       I    between atoms: N_12  and  C_13 
REMARK    6  A    between atoms: C_13  and  C_14 
ROOT
HETATM    1  C   UNL     1       6.279  26.070  54.043  1.00  0.00     0.238 C 
HETATM    2  N   UNL     1       4.965  26.240  54.415  1.00  0.00    -0.267 N 
HETATM    3  O   UNL     1       7.054  27.020  53.948  1.00  0.00    -0.272 OA
HETATM    4  H   UNL     1       4.264  25.502  54.464  1.00  0.00     0.190 HD
ENDROOT
BRANCH   1   5
HETATM    5  C   UNL     1       6.682  24.647  53.740  1.00  0.00     0.134 C 
BRANCH   5   6
HETATM    6  C   UNL     1       7.214  23.904  54.975  1.00  0.00     0.129 C 
BRANCH   6   7
HETATM    7  C   UNL     1       7.778  22.531  54.627  1.00  0.00    -0.013 A 
HETATM    8  C   UNL     1       7.822  22.089  53.289  1.00  0.00     0.011 A 
HETATM    9  C   UNL     1       8.309  20.821  52.959  1.00  0.00     0.001 A 
HETATM   10  C   UNL     1       8.761  19.964  53.956  1.00  0.00     0.002 A 
HETATM   11  C   UNL     1       8.717  20.371  55.286  1.00  0.00     0.024 A 
HETATM   12  C   UNL     1       8.223  21.637  55.623  1.00  0.00     0.042 A 
HETATM   13 CL   UNL     1       8.170  22.025  57.308  1.00  0.00    -0.084 Cl
ENDBRANCH   6   7
BRANCH   6  14
HETATM   14  N   UNL     1       8.144  24.708  55.770  1.00  0.00    -0.339 N 
HETATM   15  C   UNL     1       7.874  25.399  56.900  1.00  0.00     0.292 C 
HETATM   16  N   UNL     1       6.752  25.070  57.571  1.00  0.00    -0.254 NA
HETATM   17  O   UNL     1       8.609  26.291  57.300  1.00  0.00    -0.254 OA
HETATM   18  H   UNL     1       6.569  24.084  57.679  1.00  0.00     0.128 HD
HETATM   19  H   UNL     1       6.668  25.587  58.438  1.00  0.00     0.128 HD
HETATM   20  H   UNL     1       8.923  25.136  55.286  1.00  0.00     0.164 HD
ENDBRANCH   6  14
ENDBRANCH   5   6
ENDBRANCH   1   5
BRANCH   2  21
HETATM   21  N   UNL     1       4.550  27.530  54.752  1.00  0.00    -0.263 N 
HETATM   22  C   UNL     1       4.567  27.905  56.078  1.00  0.00     0.270 C 
HETATM   23  O   UNL     1       4.857  27.119  56.978  1.00  0.00    -0.266 OA
HETATM   24  H   UNL     1       4.262  28.121  53.975  1.00  0.00     0.190 HD
BRANCH  22  25
HETATM   25  C   UNL     1       4.207  29.320  56.387  1.00  0.00     0.036 A 
HETATM   26  C   UNL     1       4.506  29.920  57.620  1.00  0.00     0.057 A 
HETATM   27  C   UNL     1       4.108  31.228  57.811  1.00  0.00     0.106 A 
HETATM   28  C   UNL     1       3.434  31.937  56.844  1.00  0.00     0.105 A 
HETATM   29  O   UNL     1       4.310  31.957  58.941  1.00  0.00    -0.323 OA
HETATM   30  O   UNL     1       3.131  33.200  57.244  1.00  0.00    -0.323 OA
HETATM   31  C   UNL     1       3.117  31.378  55.626  1.00  0.00     0.041 A 
HETATM   32  C   UNL     1       3.684  33.205  58.578  1.00  0.00     0.352 A 
HETATM   33  C   UNL     1       3.508  30.054  55.400  1.00  0.00     0.020 A 
ENDBRANCH  22  25
ENDBRANCH   2  21
TORSDOF 6
ENDMDL
MODEL 9
REMARK VINA RESULT:      -9.0      3.716      9.443
REMARK  6 active torsions:
REMARK  status: ('A' for Active; 'I' for Inactive)
REMARK    1  A    between atoms: C_3  and  C_4 
REMARK    2  A    between atoms: C_4  and  N_5 
REMARK    3  A    between atoms: C_4  and  C_9 
REMARK       I    between atoms: N_5  and  C_6 
REMARK       I    between atoms: C_6  and  N_7 
REMARK    4  A    between atoms: C_9  and  C_10 
REMARK       I    between atoms: C_10  and  N_11 
REMARK    5  A    between atoms: N_11  and  N_12 
REMARK       I    between atoms: N_12  and  C_13 
REMARK    6  A    between atoms: C_13  and  C_14 
ROOT
HETATM    1  C   UNL     1       5.805  26.419  56.596  1.00  0.00     0.238 C 
HETATM    2  N   UNL     1       4.975  27.483  56.326  1.00  0.00    -0.267 N 
HETATM    3  O   UNL     1       6.490  26.374  57.616  1.00  0.00    -0.272 OA
HETATM    4  H   UNL     1       4.423  27.602  55.478  1.00  0.00     0.190 HD
ENDROOT
BRANCH   1   5
HETATM    5  C   UNL     1       5.829  25.338  55.542  1.00  0.00     0.134 C 
BRANCH   5   6
HETATM    6  C   UNL     1       7.022  25.468  54.583  1.00  0.00     0.129 C 
BRANCH   6   7
HETATM    7  C   UNL     1       7.690  24.125  54.305  1.00  0.00    -0.013 A 
HETATM    8  C   UNL     1       7.379  23.394  53.140  1.00  0.00     0.011 A 
HETATM    9  C   UNL     1       7.960  22.149  52.887  1.00  0.00     0.001 A 
HETATM   10  C   UNL     1       8.865  21.603  53.790  1.00  0.00     0.002 A 
HETATM   11  C   UNL     1       9.181  22.300  54.954  1.00  0.00     0.024 A 
HETATM   12  C   UNL     1       8.595  23.544  55.215  1.00  0.00     0.042 A 
HETATM   13 CL   UNL     1       9.021  24.302  56.711  1.00  0.00    -0.084 Cl
ENDBRANCH   6   7
BRANCH   6  14
HETATM   14  N   UNL     1       6.694  26.196  53.357  1.00  0.00    -0.339 N 
HETATM   15  C   UNL     1       6.688  27.536  53.174  1.00  0.00     0.292 C 
HETATM   16  N   UNL     1       7.363  28.284  54.070  1.00  0.00    -0.254 NA
HETATM   17  O   UNL     1       6.092  28.056  52.241  1.00  0.00    -0.254 OA
HETATM   18  H   UNL     1       8.274  27.944  54.339  1.00  0.00     0.128 HD
HETATM   19  H   UNL     1       7.364  29.265  53.815  1.00  0.00     0.128 HD
HETATM   20  H   UNL     1       6.044  25.762  52.714  1.00  0.00     0.164 HD
ENDBRANCH   6  14
ENDBRANCH   5   6
ENDBRANCH   1   5
BRANCH   2  21
HETATM   21  N   UNL     1       4.880  28.489  57.289  1.00  0.00    -0.263 N 
HETATM   22  C   UNL     1       5.318  29.756  56.969  1.00  0.00     0.270 C 
HETATM   23  O   UNL     1       5.861  30.009  55.895  1.00  0.00    -0.266 OA
HETATM   24  H   UNL     1       4.478  28.211  58.183  1.00  0.00     0.190 HD
BRANCH  22  25
HETATM   25  C   UNL     1       5.112  30.823  57.992  1.00  0.00     0.036 A 
HETATM   26  C   UNL     1       3.835  31.211  58.426  1.00  0.00     0.057 A 
HETATM   27  C   UNL     1       3.756  32.226  59.359  1.00  0.00     0.106 A 
HETATM   28  C   UNL     1       4.874  32.853  59.855  1.00  0.00     0.105 A 
HETATM   29  O   UNL     1       2.605  32.727  59.882  1.00  0.00    -0.323 OA
HETATM   30  O   UNL     1       4.567  33.826  60.754  1.00  0.00    -0.323 OA
HETATM   31  C   UNL     1       6.141  32.504  59.446  1.00  0.00     0.041 A 
HETATM   32  C   UNL     1       3.126  33.746  60.762  1.00  0.00     0.352 A 
HETATM   33  C   UNL     1       6.257  31.478  58.501  1.00  0.00     0.020 A 
ENDBRANCH  22  25
ENDBRANCH   2  21
TORSDOF 6
ENDMDL
MODEL 10
REMARK VINA RESULT:      -8.9      6.116      8.828
REMARK  6 active torsions:
REMARK  status: ('A' for Active; 'I' for Inactive)
REMARK    1  A    between atoms: C_3  and  C_4 
REMARK    2  A    between atoms: C_4  and  N_5 
REMARK    3  A    between atoms: C_4  and  C_9 
REMARK       I    between atoms: N_5  and  C_6 
REMARK       I    between atoms: C_6  and  N_7 
REMARK    4  A    between atoms: C_9  and  C_10 
REMARK       I    between atoms: C_10  and  N_11 
REMARK    5  A    between atoms: N_11  and  N_12 
REMARK       I    between atoms: N_12  and  C_13 
REMARK    6  A    between atoms: C_13  and  C_14 
ROOT
HETATM    1  C   UNL     1       4.197  28.302  52.382  1.00  0.00     0.238 C 
HETATM    2  N   UNL     1       3.726  27.139  52.946  1.00  0.00    -0.267 N 
HETATM    3  O   UNL     1       5.342  28.704  52.584  1.00  0.00    -0.272 OA
HETATM    4  H   UNL     1       2.777  26.780  52.858  1.00  0.00     0.190 HD
ENDROOT
BRANCH   1   5
HETATM    5  C   UNL     1       3.203  29.049  51.526  1.00  0.00     0.134 C 
BRANCH   5   6
HETATM    6  C   UNL     1       3.708  29.282  50.094  1.00  0.00     0.129 C 
BRANCH   6   7
HETATM    7  C   UNL     1       2.847  28.571  49.054  1.00  0.00    -0.013 A 
HETATM    8  C   UNL     1       1.712  29.203  48.506  1.00  0.00     0.011 A 
HETATM    9  C   UNL     1       0.898  28.553  47.574  1.00  0.00     0.001 A 
HETATM   10  C   UNL     1       1.196  27.256  47.169  1.00  0.00     0.002 A 
HETATM   11  C   UNL     1       2.305  26.606  47.704  1.00  0.00     0.024 A 
HETATM   12  C   UNL     1       3.119  27.251  48.643  1.00  0.00     0.042 A 
HETATM   13 CL   UNL     1       4.443  26.335  49.278  1.00  0.00    -0.084 Cl
ENDBRANCH   6   7
BRANCH   6  14
HETATM   14  N   UNL     1       3.910  30.697  49.782  1.00  0.00    -0.339 N 
HETATM   15  C   UNL     1       4.953  31.478  50.147  1.00  0.00     0.292 C 
HETATM   16  N   UNL     1       6.082  30.855  50.540  1.00  0.00    -0.254 NA
HETATM   17  O   UNL     1       4.880  32.699  50.130  1.00  0.00    -0.254 OA
HETATM   18  H   UNL     1       6.376  30.070  49.980  1.00  0.00     0.128 HD
HETATM   19  H   UNL     1       6.829  31.513  50.726  1.00  0.00     0.128 HD
HETATM   20  H   UNL     1       3.087  31.270  49.648  1.00  0.00     0.164 HD
ENDBRANCH   6  14
ENDBRANCH   5   6
ENDBRANCH   1   5
BRANCH   2  21
HETATM   21  N   UNL     1       4.619  26.384  53.710  1.00  0.00    -0.263 N 
HETATM   22  C   UNL     1       5.096  25.199  53.190  1.00  0.00     0.270 C 
HETATM   23  O   UNL     1       4.702  24.749  52.116  1.00  0.00    -0.266 OA
HETATM   24  H   UNL     1       4.866  26.772  54.617  1.00  0.00     0.190 HD
BRANCH  22  25
HETATM   25  C   UNL     1       6.119  24.469  53.996  1.00  0.00     0.036 A 
HETATM   26  C   UNL     1       6.983  23.518  53.429  1.00  0.00     0.057 A 
HETATM   27  C   UNL     1       7.877  22.884  54.268  1.00  0.00     0.106 A 
HETATM   28  C   UNL     1       7.934  23.152  55.616  1.00  0.00     0.105 A 
HETATM   29  O   UNL     1       8.776  21.937  53.890  1.00  0.00    -0.323 OA
HETATM   30  O   UNL     1       8.878  22.410  56.252  1.00  0.00    -0.323 OA
HETATM   31  C   UNL     1       7.098  24.073  56.206  1.00  0.00     0.041 A 
HETATM   32  C   UNL     1       9.405  21.636  55.154  1.00  0.00     0.352 A 
HETATM   33  C   UNL     1       6.180  24.735  55.383  1.00  0.00     0.020 A 
ENDBRANCH  22  25
ENDBRANCH   2  21
TORSDOF 6
ENDMDL
