MODEL 1
REMARK VINA RESULT:     -11.1      0.000      0.000
REMARK  6 active torsions:
REMARK  status: ('A' for Active; 'I' for Inactive)
REMARK    1  A    between atoms: C_9  and  C_10 
REMARK       I    between atoms: C_10  and  N_11 
REMARK    2  A    between atoms: N_11  and  N_12 
REMARK       I    between atoms: N_12  and  C_13 
REMARK       I    between atoms: C_13  and  N_14 
REMARK    3  A    between atoms: N_14  and  C_15 
REMARK    4  A    between atoms: C_15  and  C_16 
REMARK    5  A    between atoms: C_16  and  C_17 
REMARK    6  A    between atoms: C_16  and  C_27 
ROOT
HETATM    1  N   UNL     1       6.272  30.300  57.134  1.00  0.00    -0.249 N 
HETATM    2  C   UNL     1       6.930  29.128  56.841  1.00  0.00     0.334 C 
HETATM    3  N   UNL     1       6.989  28.910  55.487  1.00  0.00    -0.341 N 
HETATM    4  O   UNL     1       7.385  28.370  57.689  1.00  0.00    -0.246 OA
HETATM    5  H   UNL     1       6.237  31.042  56.444  1.00  0.00     0.192 HD
HETATM    6  H   UNL     1       6.218  29.301  54.964  1.00  0.00     0.164 HD
ENDROOT
BRANCH   1   7
HETATM    7  N   UNL     1       6.173  30.698  58.474  1.00  0.00    -0.261 N 
HETATM    8  C   UNL     1       5.897  32.027  58.725  1.00  0.00     0.291 C 
HETATM    9  O   UNL     1       5.976  32.914  57.888  1.00  0.00    -0.264 OA
HETATM   10  H   UNL     1       5.854  29.990  59.142  1.00  0.00     0.190 HD
BRANCH   8  11
HETATM   11  C   UNL     1       5.430  32.294  60.162  1.00  0.00     0.157 A 
HETATM   12  C   UNL     1       6.386  32.366  61.291  1.00  0.00     0.016 A 
HETATM   13  C   UNL     1       7.757  32.099  61.187  1.00  0.00     0.015 A 
HETATM   14  C   UNL     1       5.865  32.728  62.535  1.00  0.00     0.046 A 
HETATM   15  C   UNL     1       8.591  32.230  62.303  1.00  0.00     0.001 A 
HETATM   16  C   UNL     1       8.066  32.620  63.533  1.00  0.00     0.001 A 
HETATM   17  C   UNL     1       6.700  32.862  63.654  1.00  0.00     0.018 A 
HETATM   18  C   UNL     1       4.417  32.948  62.677  1.00  0.00     0.272 A 
HETATM   19  O   UNL     1       3.917  33.264  63.751  1.00  0.00    -0.266 OA
HETATM   20  N   UNL     1       3.665  32.764  61.543  1.00  0.00    -0.242 N 
HETATM   21  N   UNL     1       4.144  32.473  60.304  1.00  0.00    -0.166 NA
HETATM   22  H   UNL     1       2.663  32.916  61.624  1.00  0.00     0.192 HD
ENDBRANCH   8  11
ENDBRANCH   1   7
BRANCH   3  23
HETATM   23  C   UNL     1       7.541  27.669  54.963  1.00  0.00     0.139 C 
BRANCH  23  24
HETATM   24  C   UNL     1       6.602  26.442  55.033  1.00  0.00     0.079 C 
BRANCH  24  25
HETATM   25  C   UNL     1       7.200  25.260  55.768  1.00  0.00    -0.020 A 
HETATM   26  C   UNL     1       7.815  24.109  55.160  1.00  0.00    -0.001 A 
HETATM   27  C   UNL     1       8.228  23.259  56.186  1.00  0.00     0.042 A 
HETATM   28  C   UNL     1       8.059  23.711  53.828  1.00  0.00     0.014 A 
HETATM   29  C   UNL     1       8.867  22.036  55.952  1.00  0.00     0.030 A 
HETATM   30  N   UNL     1       7.884  23.860  57.373  1.00  0.00    -0.365 N 
HETATM   31  C   UNL     1       9.096  21.668  54.623  1.00  0.00     0.002 A 
HETATM   32  C   UNL     1       8.699  22.493  53.575  1.00  0.00     0.001 A 
HETATM   33  H   UNL     1       8.063  23.466  58.286  1.00  0.00     0.165 HD
HETATM   34  C   UNL     1       7.268  25.057  57.136  1.00  0.00     0.097 A 
ENDBRANCH  24  25
BRANCH  24  35
HETATM   35  C   UNL     1       5.967  26.047  53.702  1.00  0.00    -0.007 A 
HETATM   36  S   UNL     1       6.418  26.757  52.205  1.00  0.00    -0.106 SA
HETATM   37  C   UNL     1       5.310  25.798  51.329  1.00  0.00     0.050 A 
HETATM   38  C   UNL     1       4.606  24.946  52.147  1.00  0.00     0.008 A 
HETATM   39  C   UNL     1       4.986  25.087  53.512  1.00  0.00     0.016 A 
ENDBRANCH  24  35
ENDBRANCH  23  24
ENDBRANCH   3  23
TORSDOF 6
ENDMDL
MODEL 2
REMARK VINA RESULT:     -11.0      5.810     10.368
REMARK  6 active torsions:
REMARK  status: ('A' for Active; 'I' for Inactive)
REMARK    1  A    between atoms: C_9  and  C_10 
REMARK       I    between atoms: C_10  and  N_11 
REMARK    2  A    between atoms: N_11  and  N_12 
REMARK       I    between atoms: N_12  and  C_13 
REMARK       I    between atoms: C_13  and  N_14 
REMARK    3  A    between atoms: N_14  and  C_15 
REMARK    4  A    between atoms: C_15  and  C_16 
REMARK    5  A    between atoms: C_16  and  C_17 
REMARK    6  A    between atoms: C_16  and  C_27 
ROOT
HETATM    1  N   UNL     1       5.526  26.284  50.172  1.00  0.00    -0.249 N 
HETATM    2  C   UNL     1       5.386  26.309  51.541  1.00  0.00     0.334 C 
HETATM    3  N   UNL     1       5.814  25.136  52.110  1.00  0.00    -0.341 N 
HETATM    4  O   UNL     1       4.919  27.256  52.162  1.00  0.00    -0.246 OA
HETATM    5  H   UNL     1       6.216  25.673  49.748  1.00  0.00     0.192 HD
HETATM    6  H   UNL     1       5.714  24.321  51.521  1.00  0.00     0.164 HD
ENDROOT
BRANCH   1   7
HETATM    7  N   UNL     1       5.185  27.430  49.441  1.00  0.00    -0.261 N 
HETATM    8  C   UNL     1       4.825  27.259  48.119  1.00  0.00     0.291 C 
HETATM    9  O   UNL     1       5.016  26.233  47.484  1.00  0.00    -0.264 OA
HETATM   10  H   UNL     1       4.781  28.210  49.968  1.00  0.00     0.190 HD
BRANCH   8  11
HETATM   11  C   UNL     1       4.109  28.476  47.518  1.00  0.00     0.157 A 
HETATM   12  C   UNL     1       2.679  28.427  47.133  1.00  0.00     0.016 A 
HETATM   13  C   UNL     1       1.887  27.273  47.174  1.00  0.00     0.015 A 
HETATM   14  C   UNL     1       2.101  29.624  46.704  1.00  0.00     0.046 A 
HETATM   15  C   UNL     1       0.532  27.332  46.827  1.00  0.00     0.001 A 
HETATM   16  C   UNL     1      -0.041  28.536  46.428  1.00  0.00     0.001 A 
HETATM   17  C   UNL     1       0.744  29.685  46.358  1.00  0.00     0.018 A 
HETATM   18  C   UNL     1       2.935  30.831  46.592  1.00  0.00     0.272 A 
HETATM   19  O   UNL     1       2.470  31.902  46.218  1.00  0.00    -0.266 OA
HETATM   20  N   UNL     1       4.262  30.681  46.917  1.00  0.00    -0.242 N 
HETATM   21  N   UNL     1       4.844  29.549  47.397  1.00  0.00    -0.166 NA
HETATM   22  H   UNL     1       4.851  31.506  46.849  1.00  0.00     0.192 HD
ENDBRANCH   8  11
ENDBRANCH   1   7
BRANCH   3  23
HETATM   23  C   UNL     1       5.646  24.905  53.537  1.00  0.00     0.139 C 
BRANCH  23  24
HETATM   24  C   UNL     1       6.879  25.229  54.414  1.00  0.00     0.079 C 
BRANCH  24  25
HETATM   25  C   UNL     1       7.442  24.026  55.141  1.00  0.00    -0.020 A 
HETATM   26  C   UNL     1       7.791  22.764  54.543  1.00  0.00    -0.001 A 
HETATM   27  C   UNL     1       8.265  21.932  55.557  1.00  0.00     0.042 A 
HETATM   28  C   UNL     1       7.749  22.252  53.228  1.00  0.00     0.014 A 
HETATM   29  C   UNL     1       8.695  20.619  55.328  1.00  0.00     0.030 A 
HETATM   30  N   UNL     1       8.211  22.649  56.728  1.00  0.00    -0.365 N 
HETATM   31  C   UNL     1       8.642  20.139  54.017  1.00  0.00     0.002 A 
HETATM   32  C   UNL     1       8.176  20.942  52.980  1.00  0.00     0.001 A 
HETATM   33  H   UNL     1       8.495  22.294  57.630  1.00  0.00     0.165 HD
HETATM   34  C   UNL     1       7.719  23.903  56.492  1.00  0.00     0.097 A 
ENDBRANCH  24  25
BRANCH  24  35
HETATM   35  C   UNL     1       6.714  26.443  55.324  1.00  0.00    -0.007 A 
HETATM   36  S   UNL     1       5.349  26.668  56.342  1.00  0.00    -0.106 SA
HETATM   37  C   UNL     1       5.952  28.144  56.953  1.00  0.00     0.050 A 
HETATM   38  C   UNL     1       7.170  28.470  56.405  1.00  0.00     0.008 A 
HETATM   39  C   UNL     1       7.610  27.490  55.470  1.00  0.00     0.016 A 
ENDBRANCH  24  35
ENDBRANCH  23  24
ENDBRANCH   3  23
TORSDOF 6
ENDMDL
MODEL 3
REMARK VINA RESULT:     -10.9      1.601      2.035
REMARK  6 active torsions:
REMARK  status: ('A' for Active; 'I' for Inactive)
REMARK    1  A    between atoms: C_9  and  C_10 
REMARK       I    between atoms: C_10  and  N_11 
REMARK    2  A    between atoms: N_11  and  N_12 
REMARK       I    between atoms: N_12  and  C_13 
REMARK       I    between atoms: C_13  and  N_14 
REMARK    3  A    between atoms: N_14  and  C_15 
REMARK    4  A    between atoms: C_15  and  C_16 
REMARK    5  A    between atoms: C_16  and  C_17 
REMARK    6  A    between atoms: C_16  and  C_27 
ROOT
HETATM    1  N   UNL     1       6.247  30.553  57.149  1.00  0.00    -0.249 N 
HETATM    2  C   UNL     1       6.836  29.356  56.812  1.00  0.00     0.334 C 
HETATM    3  N   UNL     1       6.911  29.199  55.450  1.00  0.00    -0.341 N 
HETATM    4  O   UNL     1       7.222  28.531  57.631  1.00  0.00    -0.246 OA
HETATM    5  H   UNL     1       6.274  31.328  56.495  1.00  0.00     0.192 HD
HETATM    6  H   UNL     1       6.178  29.663  54.932  1.00  0.00     0.164 HD
ENDROOT
BRANCH   1   7
HETATM    7  N   UNL     1       6.143  30.893  58.504  1.00  0.00    -0.261 N 
HETATM    8  C   UNL     1       5.868  32.211  58.811  1.00  0.00     0.291 C 
HETATM    9  O   UNL     1       5.953  33.133  58.013  1.00  0.00    -0.264 OA
HETATM   10  H   UNL     1       5.821  30.158  59.140  1.00  0.00     0.190 HD
BRANCH   8  11
HETATM   11  C   UNL     1       5.396  32.416  60.257  1.00  0.00     0.157 A 
HETATM   12  C   UNL     1       6.350  32.462  61.389  1.00  0.00     0.016 A 
HETATM   13  C   UNL     1       7.725  32.221  61.277  1.00  0.00     0.015 A 
HETATM   14  C   UNL     1       5.823  32.768  62.645  1.00  0.00     0.046 A 
HETATM   15  C   UNL     1       8.556  32.324  62.398  1.00  0.00     0.001 A 
HETATM   16  C   UNL     1       8.024  32.658  63.641  1.00  0.00     0.001 A 
HETATM   17  C   UNL     1       6.654  32.874  63.769  1.00  0.00     0.018 A 
HETATM   18  C   UNL     1       4.371  32.959  62.794  1.00  0.00     0.272 A 
HETATM   19  O   UNL     1       3.865  33.227  63.878  1.00  0.00    -0.266 OA
HETATM   20  N   UNL     1       3.622  32.805  61.652  1.00  0.00    -0.242 N 
HETATM   21  N   UNL     1       4.107  32.568  60.404  1.00  0.00    -0.166 NA
HETATM   22  H   UNL     1       2.618  32.937  61.737  1.00  0.00     0.192 HD
ENDBRANCH   8  11
ENDBRANCH   1   7
BRANCH   3  23
HETATM   23  C   UNL     1       7.394  27.951  54.878  1.00  0.00     0.139 C 
BRANCH  23  24
HETATM   24  C   UNL     1       6.316  27.061  54.216  1.00  0.00     0.079 C 
BRANCH  24  25
HETATM   25  C   UNL     1       6.883  25.866  53.478  1.00  0.00    -0.020 A 
HETATM   26  C   UNL     1       7.173  24.578  54.052  1.00  0.00    -0.001 A 
HETATM   27  C   UNL     1       7.684  23.768  53.038  1.00  0.00     0.042 A 
HETATM   28  C   UNL     1       7.048  24.025  55.345  1.00  0.00     0.014 A 
HETATM   29  C   UNL     1       8.076  22.440  53.246  1.00  0.00     0.030 A 
HETATM   30  N   UNL     1       7.706  24.523  51.890  1.00  0.00    -0.365 N 
HETATM   31  C   UNL     1       7.940  21.919  54.536  1.00  0.00     0.002 A 
HETATM   32  C   UNL     1       7.433  22.698  55.572  1.00  0.00     0.001 A 
HETATM   33  H   UNL     1       8.030  24.190  50.993  1.00  0.00     0.165 HD
HETATM   34  C   UNL     1       7.230  25.780  52.141  1.00  0.00     0.097 A 
ENDBRANCH  24  25
BRANCH  24  35
HETATM   35  C   UNL     1       5.277  27.820  53.396  1.00  0.00    -0.007 A 
HETATM   36  S   UNL     1       5.682  28.771  52.024  1.00  0.00    -0.106 SA
HETATM   37  C   UNL     1       4.053  29.203  51.747  1.00  0.00     0.050 A 
HETATM   38  C   UNL     1       3.206  28.639  52.671  1.00  0.00     0.008 A 
HETATM   39  C   UNL     1       3.908  27.841  53.617  1.00  0.00     0.016 A 
ENDBRANCH  24  35
ENDBRANCH  23  24
ENDBRANCH   3  23
TORSDOF 6
ENDMDL
MODEL 4
REMARK VINA RESULT:     -10.7      2.896     10.550
REMARK  6 active torsions:
REMARK  status: ('A' for Active; 'I' for Inactive)
REMARK    1  A    between atoms: C_9  and  C_10 
REMARK       I    between atoms: C_10  and  N_11 
REMARK    2  A    between atoms: N_11  and  N_12 
REMARK       I    between atoms: N_12  and  C_13 
REMARK       I    between atoms: C_13  and  N_14 
REMARK    3  A    between atoms: N_14  and  C_15 
REMARK    4  A    between atoms: C_15  and  C_16 
REMARK    5  A    between atoms: C_16  and  C_17 
REMARK    6  A    between atoms: C_16  and  C_27 
ROOT
HETATM    1  N   UNL     1       7.079  27.946  57.722  1.00  0.00    -0.249 N 
HETATM    2  C   UNL     1       7.932  28.980  58.034  1.00  0.00     0.334 C 
HETATM    3  N   UNL     1       7.249  30.062  58.531  1.00  0.00    -0.341 N 
HETATM    4  O   UNL     1       9.145  28.938  57.868  1.00  0.00    -0.246 OA
HETATM    5  H   UNL     1       6.181  27.877  58.188  1.00  0.00     0.192 HD
HETATM    6  H   UNL     1       6.304  30.159  58.182  1.00  0.00     0.164 HD
ENDROOT
BRANCH   1   7
HETATM    7  N   UNL     1       7.625  26.743  57.253  1.00  0.00    -0.261 N 
HETATM    8  C   UNL     1       6.761  25.683  57.063  1.00  0.00     0.291 C 
HETATM    9  O   UNL     1       5.620  25.642  57.499  1.00  0.00    -0.264 OA
HETATM   10  H   UNL     1       8.460  26.815  56.664  1.00  0.00     0.190 HD
BRANCH   8  11
HETATM   11  C   UNL     1       7.352  24.560  56.202  1.00  0.00     0.157 A 
HETATM   12  C   UNL     1       7.361  24.634  54.722  1.00  0.00     0.016 A 
HETATM   13  C   UNL     1       6.752  25.652  53.977  1.00  0.00     0.015 A 
HETATM   14  C   UNL     1       8.026  23.611  54.044  1.00  0.00     0.046 A 
HETATM   15  C   UNL     1       6.845  25.659  52.580  1.00  0.00     0.001 A 
HETATM   16  C   UNL     1       7.536  24.649  51.915  1.00  0.00     0.001 A 
HETATM   17  C   UNL     1       8.122  23.618  52.645  1.00  0.00     0.018 A 
HETATM   18  C   UNL     1       8.615  22.500  54.808  1.00  0.00     0.272 A 
HETATM   19  O   UNL     1       9.206  21.580  54.253  1.00  0.00    -0.266 OA
HETATM   20  N   UNL     1       8.449  22.549  56.170  1.00  0.00    -0.242 N 
HETATM   21  N   UNL     1       7.862  23.558  56.868  1.00  0.00    -0.166 NA
HETATM   22  H   UNL     1       8.852  21.790  56.713  1.00  0.00     0.192 HD
ENDBRANCH   8  11
ENDBRANCH   1   7
BRANCH   3  23
HETATM   23  C   UNL     1       7.946  31.307  58.816  1.00  0.00     0.139 C 
BRANCH  23  24
HETATM   24  C   UNL     1       7.176  32.314  59.702  1.00  0.00     0.079 C 
BRANCH  24  25
HETATM   25  C   UNL     1       7.463  32.166  61.182  1.00  0.00    -0.020 A 
HETATM   26  C   UNL     1       7.062  33.082  62.216  1.00  0.00    -0.001 A 
HETATM   27  C   UNL     1       7.529  32.580  63.431  1.00  0.00     0.042 A 
HETATM   28  C   UNL     1       6.341  34.296  62.232  1.00  0.00     0.014 A 
HETATM   29  C   UNL     1       7.317  33.225  64.655  1.00  0.00     0.030 A 
HETATM   30  N   UNL     1       8.188  31.406  63.157  1.00  0.00    -0.365 N 
HETATM   31  C   UNL     1       6.600  34.425  64.640  1.00  0.00     0.002 A 
HETATM   32  C   UNL     1       6.118  34.955  63.447  1.00  0.00     0.001 A 
HETATM   33  H   UNL     1       8.631  30.823  63.853  1.00  0.00     0.165 HD
HETATM   34  C   UNL     1       8.156  31.149  61.814  1.00  0.00     0.097 A 
ENDBRANCH  24  25
BRANCH  24  35
HETATM   35  C   UNL     1       5.683  32.419  59.400  1.00  0.00    -0.007 A 
HETATM   36  S   UNL     1       5.069  33.124  57.959  1.00  0.00    -0.106 SA
HETATM   37  C   UNL     1       3.450  32.831  58.415  1.00  0.00     0.050 A 
HETATM   38  C   UNL     1       3.363  32.206  59.636  1.00  0.00     0.008 A 
HETATM   39  C   UNL     1       4.647  31.965  60.201  1.00  0.00     0.016 A 
ENDBRANCH  24  35
ENDBRANCH  23  24
ENDBRANCH   3  23
TORSDOF 6
ENDMDL
MODEL 5
REMARK VINA RESULT:     -10.7      6.351     10.510
REMARK  6 active torsions:
REMARK  status: ('A' for Active; 'I' for Inactive)
REMARK    1  A    between atoms: C_9  and  C_10 
REMARK       I    between atoms: C_10  and  N_11 
REMARK    2  A    between atoms: N_11  and  N_12 
REMARK       I    between atoms: N_12  and  C_13 
REMARK       I    between atoms: C_13  and  N_14 
REMARK    3  A    between atoms: N_14  and  C_15 
REMARK    4  A    between atoms: C_15  and  C_16 
REMARK    5  A    between atoms: C_16  and  C_17 
REMARK    6  A    between atoms: C_16  and  C_27 
ROOT
HETATM    1  N   UNL     1       5.544  26.859  49.988  1.00  0.00    -0.249 N 
HETATM    2  C   UNL     1       5.588  25.906  50.980  1.00  0.00     0.334 C 
HETATM    3  N   UNL     1       6.856  25.768  51.487  1.00  0.00    -0.341 N 
HETATM    4  O   UNL     1       4.616  25.255  51.343  1.00  0.00    -0.246 OA
HETATM    5  H   UNL     1       6.240  27.596  49.968  1.00  0.00     0.192 HD
HETATM    6  H   UNL     1       7.596  25.971  50.830  1.00  0.00     0.164 HD
ENDROOT
BRANCH   1   7
HETATM    7  N   UNL     1       4.308  27.163  49.402  1.00  0.00    -0.261 N 
HETATM    8  C   UNL     1       4.308  27.545  48.076  1.00  0.00     0.291 C 
HETATM    9  O   UNL     1       5.310  27.872  47.456  1.00  0.00    -0.264 OA
HETATM   10  H   UNL     1       3.488  26.677  49.778  1.00  0.00     0.190 HD
BRANCH   8  11
HETATM   11  C   UNL     1       2.922  27.481  47.421  1.00  0.00     0.157 A 
HETATM   12  C   UNL     1       2.001  28.643  47.431  1.00  0.00     0.016 A 
HETATM   13  C   UNL     1       2.246  29.842  48.110  1.00  0.00     0.015 A 
HETATM   14  C   UNL     1       0.815  28.511  46.706  1.00  0.00     0.046 A 
HETATM   15  C   UNL     1       1.334  30.900  48.031  1.00  0.00     0.001 A 
HETATM   16  C   UNL     1       0.167  30.769  47.282  1.00  0.00     0.001 A 
HETATM   17  C   UNL     1      -0.100  29.571  46.624  1.00  0.00     0.018 A 
HETATM   18  C   UNL     1       0.510  27.235  46.041  1.00  0.00     0.272 A 
HETATM   19  O   UNL     1      -0.521  27.075  45.396  1.00  0.00    -0.266 OA
HETATM   20  N   UNL     1       1.440  26.236  46.197  1.00  0.00    -0.242 N 
HETATM   21  N   UNL     1       2.632  26.347  46.842  1.00  0.00    -0.166 NA
HETATM   22  H   UNL     1       1.246  25.348  45.740  1.00  0.00     0.192 HD
ENDBRANCH   8  11
ENDBRANCH   1   7
BRANCH   3  23
HETATM   23  C   UNL     1       7.149  24.731  52.465  1.00  0.00     0.139 C 
BRANCH  23  24
HETATM   24  C   UNL     1       7.771  25.225  53.793  1.00  0.00     0.079 C 
BRANCH  24  25
HETATM   25  C   UNL     1       7.989  24.123  54.809  1.00  0.00    -0.020 A 
HETATM   26  C   UNL     1       8.188  22.729  54.515  1.00  0.00    -0.001 A 
HETATM   27  C   UNL     1       8.344  22.058  55.728  1.00  0.00     0.042 A 
HETATM   28  C   UNL     1       8.251  21.972  53.324  1.00  0.00     0.014 A 
HETATM   29  C   UNL     1       8.557  20.677  55.814  1.00  0.00     0.030 A 
HETATM   30  N   UNL     1       8.247  22.998  56.725  1.00  0.00    -0.365 N 
HETATM   31  C   UNL     1       8.614  19.954  54.619  1.00  0.00     0.002 A 
HETATM   32  C   UNL     1       8.464  20.590  53.391  1.00  0.00     0.001 A 
HETATM   33  H   UNL     1       8.322  22.794  57.712  1.00  0.00     0.165 HD
HETATM   34  C   UNL     1       8.033  24.237  56.188  1.00  0.00     0.097 A 
ENDBRANCH  24  25
BRANCH  24  35
HETATM   35  C   UNL     1       7.099  26.456  54.394  1.00  0.00    -0.007 A 
HETATM   36  S   UNL     1       5.443  26.487  54.851  1.00  0.00    -0.106 SA
HETATM   37  C   UNL     1       5.542  28.105  55.388  1.00  0.00     0.050 A 
HETATM   38  C   UNL     1       6.806  28.623  55.233  1.00  0.00     0.008 A 
HETATM   39  C   UNL     1       7.702  27.674  54.664  1.00  0.00     0.016 A 
ENDBRANCH  24  35
ENDBRANCH  23  24
ENDBRANCH   3  23
TORSDOF 6
ENDMDL
MODEL 6
REMARK VINA RESULT:     -10.7      4.771     10.000
REMARK  6 active torsions:
REMARK  status: ('A' for Active; 'I' for Inactive)
REMARK    1  A    between atoms: C_9  and  C_10 
REMARK       I    between atoms: C_10  and  N_11 
REMARK    2  A    between atoms: N_11  and  N_12 
REMARK       I    between atoms: N_12  and  C_13 
REMARK       I    between atoms: C_13  and  N_14 
REMARK    3  A    between atoms: N_14  and  C_15 
REMARK    4  A    between atoms: C_15  and  C_16 
REMARK    5  A    between atoms: C_16  and  C_17 
REMARK    6  A    between atoms: C_16  and  C_27 
ROOT
HETATM    1  N   UNL     1       4.912  29.442  52.545  1.00  0.00    -0.249 N 
HETATM    2  C   UNL     1       5.047  28.738  53.719  1.00  0.00     0.334 C 
HETATM    3  N   UNL     1       5.742  29.457  54.659  1.00  0.00    -0.341 N 
HETATM    4  O   UNL     1       4.615  27.604  53.888  1.00  0.00    -0.246 OA
HETATM    5  H   UNL     1       4.952  30.455  52.559  1.00  0.00     0.192 HD
HETATM    6  H   UNL     1       6.417  30.105  54.278  1.00  0.00     0.164 HD
ENDROOT
BRANCH   1   7
HETATM    7  N   UNL     1       4.177  28.869  51.498  1.00  0.00    -0.261 N 
HETATM    8  C   UNL     1       4.713  28.943  50.227  1.00  0.00     0.291 C 
HETATM    9  O   UNL     1       5.643  29.674  49.917  1.00  0.00    -0.264 OA
HETATM   10  H   UNL     1       3.578  28.074  51.737  1.00  0.00     0.190 HD
BRANCH   8  11
HETATM   11  C   UNL     1       4.059  27.978  49.230  1.00  0.00     0.157 A 
HETATM   12  C   UNL     1       2.824  28.339  48.493  1.00  0.00     0.016 A 
HETATM   13  C   UNL     1       2.090  29.512  48.704  1.00  0.00     0.015 A 
HETATM   14  C   UNL     1       2.381  27.433  47.527  1.00  0.00     0.046 A 
HETATM   15  C   UNL     1       0.955  29.785  47.932  1.00  0.00     0.001 A 
HETATM   16  C   UNL     1       0.538  28.889  46.951  1.00  0.00     0.001 A 
HETATM   17  C   UNL     1       1.246  27.706  46.751  1.00  0.00     0.018 A 
HETATM   18  C   UNL     1       3.103  26.165  47.339  1.00  0.00     0.272 A 
HETATM   19  O   UNL     1       2.747  25.341  46.504  1.00  0.00    -0.266 OA
HETATM   20  N   UNL     1       4.184  25.958  48.161  1.00  0.00    -0.242 N 
HETATM   21  N   UNL     1       4.680  26.841  49.067  1.00  0.00    -0.166 NA
HETATM   22  H   UNL     1       4.696  25.087  48.040  1.00  0.00     0.192 HD
ENDBRANCH   8  11
ENDBRANCH   1   7
BRANCH   3  23
HETATM   23  C   UNL     1       6.098  28.853  55.934  1.00  0.00     0.139 C 
BRANCH  23  24
HETATM   24  C   UNL     1       7.523  28.255  56.012  1.00  0.00     0.079 C 
BRANCH  24  25
HETATM   25  C   UNL     1       7.547  26.787  56.386  1.00  0.00    -0.020 A 
HETATM   26  C   UNL     1       7.514  25.680  55.467  1.00  0.00    -0.001 A 
HETATM   27  C   UNL     1       7.547  24.505  56.218  1.00  0.00     0.042 A 
HETATM   28  C   UNL     1       7.459  25.569  54.061  1.00  0.00     0.014 A 
HETATM   29  C   UNL     1       7.527  23.230  55.640  1.00  0.00     0.030 A 
HETATM   30  N   UNL     1       7.600  24.872  57.541  1.00  0.00    -0.365 N 
HETATM   31  C   UNL     1       7.473  23.151  54.246  1.00  0.00     0.002 A 
HETATM   32  C   UNL     1       7.440  24.302  53.465  1.00  0.00     0.001 A 
HETATM   33  H   UNL     1       7.633  24.222  58.314  1.00  0.00     0.165 HD
HETATM   34  C   UNL     1       7.599  26.235  57.654  1.00  0.00     0.097 A 
ENDBRANCH  24  25
BRANCH  24  35
HETATM   35  C   UNL     1       8.519  29.084  56.818  1.00  0.00    -0.007 A 
HETATM   36  S   UNL     1       8.093  29.917  58.258  1.00  0.00    -0.106 SA
HETATM   37  C   UNL     1       9.679  30.513  58.474  1.00  0.00     0.050 A 
HETATM   38  C   UNL     1      10.528  30.090  57.479  1.00  0.00     0.008 A 
HETATM   39  C   UNL     1       9.863  29.266  56.528  1.00  0.00     0.016 A 
ENDBRANCH  24  35
ENDBRANCH  23  24
ENDBRANCH   3  23
TORSDOF 6
ENDMDL
MODEL 7
REMARK VINA RESULT:     -10.6      1.734      2.864
REMARK  6 active torsions:
REMARK  status: ('A' for Active; 'I' for Inactive)
REMARK    1  A    between atoms: C_9  and  C_10 
REMARK       I    between atoms: C_10  and  N_11 
REMARK    2  A    between atoms: N_11  and  N_12 
REMARK       I    between atoms: N_12  and  C_13 
REMARK       I    between atoms: C_13  and  N_14 
REMARK    3  A    between atoms: N_14  and  C_15 
REMARK    4  A    between atoms: C_15  and  C_16 
REMARK    5  A    between atoms: C_16  and  C_17 
REMARK    6  A    between atoms: C_16  and  C_27 
ROOT
HETATM    1  N   UNL     1       5.529  31.074  57.511  1.00  0.00    -0.249 N 
HETATM    2  C   UNL     1       5.576  29.801  56.992  1.00  0.00     0.334 C 
HETATM    3  N   UNL     1       6.011  29.804  55.691  1.00  0.00    -0.341 N 
HETATM    4  O   UNL     1       5.249  28.798  57.615  1.00  0.00    -0.246 OA
HETATM    5  H   UNL     1       6.122  31.798  57.119  1.00  0.00     0.192 HD
HETATM    6  H   UNL     1       5.787  30.645  55.175  1.00  0.00     0.164 HD
ENDROOT
BRANCH   1   7
HETATM    7  N   UNL     1       5.157  31.240  58.852  1.00  0.00    -0.261 N 
HETATM    8  C   UNL     1       5.900  32.120  59.615  1.00  0.00     0.291 C 
HETATM    9  O   UNL     1       6.987  32.568  59.282  1.00  0.00    -0.264 OA
HETATM   10  H   UNL     1       4.167  31.103  59.076  1.00  0.00     0.190 HD
BRANCH   8  11
HETATM   11  C   UNL     1       5.208  32.529  60.922  1.00  0.00     0.157 A 
HETATM   12  C   UNL     1       5.971  32.734  62.176  1.00  0.00     0.016 A 
HETATM   13  C   UNL     1       7.340  32.478  62.321  1.00  0.00     0.015 A 
HETATM   14  C   UNL     1       5.258  33.217  63.275  1.00  0.00     0.046 A 
HETATM   15  C   UNL     1       7.985  32.738  63.536  1.00  0.00     0.001 A 
HETATM   16  C   UNL     1       7.270  33.247  64.617  1.00  0.00     0.001 A 
HETATM   17  C   UNL     1       5.903  33.481  64.492  1.00  0.00     0.018 A 
HETATM   18  C   UNL     1       3.807  33.429  63.160  1.00  0.00     0.272 A 
HETATM   19  O   UNL     1       3.142  33.850  64.100  1.00  0.00    -0.266 OA
HETATM   20  N   UNL     1       3.246  33.116  61.945  1.00  0.00    -0.242 N 
HETATM   21  N   UNL     1       3.917  32.703  60.837  1.00  0.00    -0.166 NA
HETATM   22  H   UNL     1       2.244  33.260  61.848  1.00  0.00     0.192 HD
ENDBRANCH   8  11
ENDBRANCH   1   7
BRANCH   3  23
HETATM   23  C   UNL     1       6.023  28.574  54.914  1.00  0.00     0.139 C 
BRANCH  23  24
HETATM   24  C   UNL     1       7.351  27.781  54.944  1.00  0.00     0.079 C 
BRANCH  24  25
HETATM   25  C   UNL     1       7.183  26.326  55.330  1.00  0.00    -0.020 A 
HETATM   26  C   UNL     1       7.435  25.192  54.482  1.00  0.00    -0.001 A 
HETATM   27  C   UNL     1       7.153  24.041  55.219  1.00  0.00     0.042 A 
HETATM   28  C   UNL     1       7.878  25.036  53.151  1.00  0.00     0.014 A 
HETATM   29  C   UNL     1       7.288  22.749  54.697  1.00  0.00     0.030 A 
HETATM   30  N   UNL     1       6.747  24.450  56.467  1.00  0.00    -0.365 N 
HETATM   31  C   UNL     1       7.729  22.626  53.377  1.00  0.00     0.002 A 
HETATM   32  C   UNL     1       8.020  23.751  52.612  1.00  0.00     0.001 A 
HETATM   33  H   UNL     1       6.478  23.824  57.213  1.00  0.00     0.165 HD
HETATM   34  C   UNL     1       6.760  25.815  56.545  1.00  0.00     0.097 A 
ENDBRANCH  24  25
BRANCH  24  35
HETATM   35  C   UNL     1       8.486  28.464  55.702  1.00  0.00    -0.007 A 
HETATM   36  S   UNL     1       9.722  29.367  54.920  1.00  0.00    -0.106 SA
HETATM   37  C   UNL     1      10.486  29.746  56.400  1.00  0.00     0.050 A 
HETATM   38  C   UNL     1       9.823  29.206  57.476  1.00  0.00     0.008 A 
HETATM   39  C   UNL     1       8.671  28.472  57.076  1.00  0.00     0.016 A 
ENDBRANCH  24  35
ENDBRANCH  23  24
ENDBRANCH   3  23
TORSDOF 6
ENDMDL
MODEL 8
REMARK VINA RESULT:     -10.6      3.260     10.097
REMARK  6 active torsions:
REMARK  status: ('A' for Active; 'I' for Inactive)
REMARK    1  A    between atoms: C_9  and  C_10 
REMARK       I    between atoms: C_10  and  N_11 
REMARK    2  A    between atoms: N_11  and  N_12 
REMARK       I    between atoms: N_12  and  C_13 
REMARK       I    between atoms: C_13  and  N_14 
REMARK    3  A    between atoms: N_14  and  C_15 
REMARK    4  A    between atoms: C_15  and  C_16 
REMARK    5  A    between atoms: C_16  and  C_17 
REMARK    6  A    between atoms: C_16  and  C_27 
ROOT
HETATM    1  N   UNL     1       4.570  29.258  57.803  1.00  0.00    -0.249 N 
HETATM    2  C   UNL     1       4.145  30.567  57.797  1.00  0.00     0.334 C 
HETATM    3  N   UNL     1       4.440  31.197  58.980  1.00  0.00    -0.341 N 
HETATM    4  O   UNL     1       3.559  31.088  56.856  1.00  0.00    -0.246 OA
HETATM    5  H   UNL     1       5.333  28.981  58.412  1.00  0.00     0.192 HD
HETATM    6  H   UNL     1       4.464  30.587  59.786  1.00  0.00     0.164 HD
ENDROOT
BRANCH   1   7
HETATM    7  N   UNL     1       4.395  28.488  56.646  1.00  0.00    -0.261 N 
HETATM    8  C   UNL     1       5.447  28.429  55.754  1.00  0.00     0.291 C 
HETATM    9  O   UNL     1       6.410  29.182  55.778  1.00  0.00    -0.264 OA
HETATM   10  H   UNL     1       3.759  27.688  56.716  1.00  0.00     0.190 HD
BRANCH   8  11
HETATM   11  C   UNL     1       5.324  27.285  54.738  1.00  0.00     0.157 A 
HETATM   12  C   UNL     1       6.173  26.074  54.823  1.00  0.00     0.016 A 
HETATM   13  C   UNL     1       7.216  25.900  55.741  1.00  0.00     0.015 A 
HETATM   14  C   UNL     1       5.898  25.048  53.917  1.00  0.00     0.046 A 
HETATM   15  C   UNL     1       7.940  24.703  55.771  1.00  0.00     0.001 A 
HETATM   16  C   UNL     1       7.639  23.674  54.882  1.00  0.00     0.001 A 
HETATM   17  C   UNL     1       6.621  23.847  53.947  1.00  0.00     0.018 A 
HETATM   18  C   UNL     1       4.849  25.240  52.902  1.00  0.00     0.272 A 
HETATM   19  O   UNL     1       4.576  24.367  52.086  1.00  0.00    -0.266 OA
HETATM   20  N   UNL     1       4.210  26.456  52.917  1.00  0.00    -0.242 N 
HETATM   21  N   UNL     1       4.409  27.453  53.821  1.00  0.00    -0.166 NA
HETATM   22  H   UNL     1       3.481  26.604  52.225  1.00  0.00     0.192 HD
ENDBRANCH   8  11
ENDBRANCH   1   7
BRANCH   3  23
HETATM   23  C   UNL     1       3.974  32.552  59.229  1.00  0.00     0.139 C 
BRANCH  23  24
HETATM   24  C   UNL     1       4.841  33.386  60.202  1.00  0.00     0.079 C 
BRANCH  24  25
HETATM   25  C   UNL     1       5.596  32.550  61.214  1.00  0.00    -0.020 A 
HETATM   26  C   UNL     1       6.997  32.225  61.165  1.00  0.00    -0.001 A 
HETATM   27  C   UNL     1       7.288  31.436  62.278  1.00  0.00     0.042 A 
HETATM   28  C   UNL     1       8.049  32.530  60.274  1.00  0.00     0.014 A 
HETATM   29  C   UNL     1       8.568  30.936  62.545  1.00  0.00     0.030 A 
HETATM   30  N   UNL     1       6.118  31.283  62.982  1.00  0.00    -0.365 N 
HETATM   31  C   UNL     1       9.589  31.255  61.646  1.00  0.00     0.002 A 
HETATM   32  C   UNL     1       9.336  32.041  60.526  1.00  0.00     0.001 A 
HETATM   33  H   UNL     1       6.031  30.755  63.839  1.00  0.00     0.165 HD
HETATM   34  C   UNL     1       5.098  31.944  62.354  1.00  0.00     0.097 A 
ENDBRANCH  24  25
BRANCH  24  35
HETATM   35  C   UNL     1       4.124  34.574  60.837  1.00  0.00    -0.007 A 
HETATM   36  S   UNL     1       2.415  34.743  60.836  1.00  0.00    -0.106 SA
HETATM   37  C   UNL     1       2.483  36.219  61.694  1.00  0.00     0.050 A 
HETATM   38  C   UNL     1       3.776  36.586  61.985  1.00  0.00     0.008 A 
HETATM   39  C   UNL     1       4.720  35.639  61.496  1.00  0.00     0.016 A 
ENDBRANCH  24  35
ENDBRANCH  23  24
ENDBRANCH   3  23
TORSDOF 6
ENDMDL
MODEL 9
REMARK VINA RESULT:     -10.5      4.712      9.766
REMARK  6 active torsions:
REMARK  status: ('A' for Active; 'I' for Inactive)
REMARK    1  A    between atoms: C_9  and  C_10 
REMARK       I    between atoms: C_10  and  N_11 
REMARK    2  A    between atoms: N_11  and  N_12 
REMARK       I    between atoms: N_12  and  C_13 
REMARK       I    between atoms: C_13  and  N_14 
REMARK    3  A    between atoms: N_14  and  C_15 
REMARK    4  A    between atoms: C_15  and  C_16 
REMARK    5  A    between atoms: C_16  and  C_17 
REMARK    6  A    between atoms: C_16  and  C_27 
ROOT
HETATM    1  N   UNL     1       5.169  29.869  52.284  1.00  0.00    -0.249 N 
HETATM    2  C   UNL     1       5.018  28.839  53.183  1.00  0.00     0.334 C 
HETATM    3  N   UNL     1       5.900  28.952  54.229  1.00  0.00    -0.341 N 
HETATM    4  O   UNL     1       4.209  27.930  53.049  1.00  0.00    -0.246 OA
HETATM    5  H   UNL     1       5.565  30.751  52.592  1.00  0.00     0.192 HD
HETATM    6  H   UNL     1       6.770  29.411  53.997  1.00  0.00     0.164 HD
ENDROOT
BRANCH   1   7
HETATM    7  N   UNL     1       4.304  29.933  51.183  1.00  0.00    -0.261 N 
HETATM    8  C   UNL     1       4.858  29.783  49.928  1.00  0.00     0.291 C 
HETATM    9  O   UNL     1       6.056  29.844  49.695  1.00  0.00    -0.264 OA
HETATM   10  H   UNL     1       3.338  29.631  51.339  1.00  0.00     0.190 HD
BRANCH   8  11
HETATM   11  C   UNL     1       3.824  29.481  48.835  1.00  0.00     0.157 A 
HETATM   12  C   UNL     1       3.522  28.093  48.410  1.00  0.00     0.016 A 
HETATM   13  C   UNL     1       4.205  26.959  48.866  1.00  0.00     0.015 A 
HETATM   14  C   UNL     1       2.484  27.928  47.492  1.00  0.00     0.046 A 
HETATM   15  C   UNL     1       3.824  25.683  48.436  1.00  0.00     0.001 A 
HETATM   16  C   UNL     1       2.768  25.527  47.542  1.00  0.00     0.001 A 
HETATM   17  C   UNL     1       2.099  26.651  47.061  1.00  0.00     0.018 A 
HETATM   18  C   UNL     1       1.800  29.114  46.951  1.00  0.00     0.272 A 
HETATM   19  O   UNL     1       0.884  29.015  46.142  1.00  0.00    -0.266 OA
HETATM   20  N   UNL     1       2.257  30.330  47.397  1.00  0.00    -0.242 N 
HETATM   21  N   UNL     1       3.223  30.527  48.335  1.00  0.00    -0.166 NA
HETATM   22  H   UNL     1       1.793  31.159  47.036  1.00  0.00     0.192 HD
ENDBRANCH   8  11
ENDBRANCH   1   7
BRANCH   3  23
HETATM   23  C   UNL     1       5.989  27.903  55.234  1.00  0.00     0.139 C 
BRANCH  23  24
HETATM   24  C   UNL     1       7.423  27.516  55.667  1.00  0.00     0.079 C 
BRANCH  24  25
HETATM   25  C   UNL     1       7.558  26.071  56.100  1.00  0.00    -0.020 A 
HETATM   26  C   UNL     1       7.628  24.930  55.227  1.00  0.00    -0.001 A 
HETATM   27  C   UNL     1       7.743  23.792  56.025  1.00  0.00     0.042 A 
HETATM   28  C   UNL     1       7.605  24.759  53.826  1.00  0.00     0.014 A 
HETATM   29  C   UNL     1       7.834  22.497  55.500  1.00  0.00     0.030 A 
HETATM   30  N   UNL     1       7.745  24.214  57.333  1.00  0.00    -0.365 N 
HETATM   31  C   UNL     1       7.809  22.358  54.110  1.00  0.00     0.002 A 
HETATM   32  C   UNL     1       7.696  23.472  53.282  1.00  0.00     0.001 A 
HETATM   33  H   UNL     1       7.817  23.599  58.132  1.00  0.00     0.165 HD
HETATM   34  C   UNL     1       7.633  25.576  57.390  1.00  0.00     0.097 A 
ENDBRANCH  24  25
BRANCH  24  35
HETATM   35  C   UNL     1       8.079  28.488  56.644  1.00  0.00    -0.007 A 
HETATM   36  S   UNL     1       7.193  29.365  57.826  1.00  0.00    -0.106 SA
HETATM   37  C   UNL     1       8.599  30.124  58.427  1.00  0.00     0.050 A 
HETATM   38  C   UNL     1       9.729  29.725  57.753  1.00  0.00     0.008 A 
HETATM   39  C   UNL     1       9.431  28.781  56.730  1.00  0.00     0.016 A 
ENDBRANCH  24  35
ENDBRANCH  23  24
ENDBRANCH   3  23
TORSDOF 6
ENDMDL
MODEL 10
REMARK VINA RESULT:     -10.4      6.283      9.443
REMARK  6 active torsions:
REMARK  status: ('A' for Active; 'I' for Inactive)
REMARK    1  A    between atoms: C_9  and  C_10 
REMARK       I    between atoms: C_10  and  N_11 
REMARK    2  A    between atoms: N_11  and  N_12 
REMARK       I    between atoms: N_12  and  C_13 
REMARK       I    between atoms: C_13  and  N_14 
REMARK    3  A    between atoms: N_14  and  C_15 
REMARK    4  A    between atoms: C_15  and  C_16 
REMARK    5  A    between atoms: C_16  and  C_17 
REMARK    6  A    between atoms: C_16  and  C_27 
ROOT
HETATM    1  N   UNL     1       3.697  27.270  53.137  1.00  0.00    -0.249 N 
HETATM    2  C   UNL     1       4.122  28.538  52.810  1.00  0.00     0.334 C 
HETATM    3  N   UNL     1       3.246  29.155  51.953  1.00  0.00    -0.341 N 
HETATM    4  O   UNL     1       5.162  29.036  53.222  1.00  0.00    -0.246 OA
HETATM    5  H   UNL     1       2.711  27.041  53.081  1.00  0.00     0.192 HD
HETATM    6  H   UNL     1       2.739  28.526  51.345  1.00  0.00     0.164 HD
ENDROOT
BRANCH   1   7
HETATM    7  N   UNL     1       4.453  26.523  54.051  1.00  0.00    -0.261 N 
HETATM    8  C   UNL     1       5.392  25.650  53.538  1.00  0.00     0.291 C 
HETATM    9  O   UNL     1       5.440  25.306  52.367  1.00  0.00    -0.264 OA
HETATM   10  H   UNL     1       4.620  26.949  54.968  1.00  0.00     0.190 HD
BRANCH   8  11
HETATM   11  C   UNL     1       6.417  25.176  54.577  1.00  0.00     0.157 A 
HETATM   12  C   UNL     1       7.280  23.995  54.336  1.00  0.00     0.016 A 
HETATM   13  C   UNL     1       7.177  23.153  53.222  1.00  0.00     0.015 A 
HETATM   14  C   UNL     1       8.255  23.722  55.297  1.00  0.00     0.046 A 
HETATM   15  C   UNL     1       8.063  22.081  53.061  1.00  0.00     0.001 A 
HETATM   16  C   UNL     1       9.051  21.835  54.011  1.00  0.00     0.001 A 
HETATM   17  C   UNL     1       9.145  22.651  55.136  1.00  0.00     0.018 A 
HETATM   18  C   UNL     1       8.334  24.558  56.506  1.00  0.00     0.272 A 
HETATM   19  O   UNL     1       9.173  24.352  57.376  1.00  0.00    -0.266 OA
HETATM   20  N   UNL     1       7.406  25.566  56.605  1.00  0.00    -0.242 N 
HETATM   21  N   UNL     1       6.484  25.899  55.662  1.00  0.00    -0.166 NA
HETATM   22  H   UNL     1       7.450  26.155  57.432  1.00  0.00     0.192 HD
ENDBRANCH   8  11
ENDBRANCH   1   7
BRANCH   3  23
HETATM   23  C   UNL     1       3.562  30.458  51.388  1.00  0.00     0.139 C 
BRANCH  23  24
HETATM   24  C   UNL     1       3.807  30.481  49.861  1.00  0.00     0.079 C 
BRANCH  24  25
HETATM   25  C   UNL     1       4.274  29.154  49.300  1.00  0.00    -0.020 A 
HETATM   26  C   UNL     1       3.440  28.161  48.675  1.00  0.00    -0.001 A 
HETATM   27  C   UNL     1       4.259  27.093  48.306  1.00  0.00     0.042 A 
HETATM   28  C   UNL     1       2.061  28.071  48.387  1.00  0.00     0.014 A 
HETATM   29  C   UNL     1       3.773  25.944  47.669  1.00  0.00     0.030 A 
HETATM   30  N   UNL     1       5.539  27.415  48.686  1.00  0.00    -0.365 N 
HETATM   31  C   UNL     1       2.404  25.884  47.397  1.00  0.00     0.002 A 
HETATM   32  C   UNL     1       1.558  26.931  47.750  1.00  0.00     0.001 A 
HETATM   33  H   UNL     1       6.344  26.821  48.542  1.00  0.00     0.165 HD
HETATM   34  C   UNL     1       5.561  28.645  49.283  1.00  0.00     0.097 A 
ENDBRANCH  24  25
BRANCH  24  35
HETATM   35  C   UNL     1       4.646  31.656  49.366  1.00  0.00    -0.007 A 
HETATM   36  S   UNL     1       5.573  32.650  50.417  1.00  0.00    -0.106 SA
HETATM   37  C   UNL     1       6.143  33.613  49.128  1.00  0.00     0.050 A 
HETATM   38  C   UNL     1       5.648  33.196  47.914  1.00  0.00     0.008 A 
HETATM   39  C   UNL     1       4.790  32.069  48.051  1.00  0.00     0.016 A 
ENDBRANCH  24  35
ENDBRANCH  23  24
ENDBRANCH   3  23
TORSDOF 6
ENDMDL
