MODEL 1
REMARK VINA RESULT:      -9.5      0.000      0.000
REMARK  5 active torsions:
REMARK  status: ('A' for Active; 'I' for Inactive)
REMARK    1  A    between atoms: C_2  and  C_3 
REMARK    2  A    between atoms: C_3  and  N_4 
REMARK       I    between atoms: N_4  and  C_5 
REMARK    3  A    between atoms: C_5  and  C_6 
REMARK    4  A    between atoms: C_19  and  O_20 
REMARK    5  A    between atoms: O_20  and  C_21 
ROOT
HETATM    1  N   UNL     1       8.000  26.970  56.701  1.00  0.00    -0.353 N 
HETATM    2  C   UNL     1       7.087  26.522  55.775  1.00  0.00     0.254 C 
HETATM    3  O   UNL     1       5.967  27.010  55.657  1.00  0.00    -0.268 OA
HETATM    4  H   UNL     1       8.888  26.477  56.798  1.00  0.00     0.163 HD
ENDROOT
BRANCH   1   5
HETATM    5  C   UNL     1       7.630  27.986  57.650  1.00  0.00     0.161 C 
BRANCH   5   6
HETATM    6  C   UNL     1       8.640  29.094  57.734  1.00  0.00    -0.035 A 
HETATM    7  C   UNL     1       9.770  29.100  56.911  1.00  0.00     0.028 A 
HETATM    8  C   UNL     1      10.637  30.181  56.980  1.00  0.00     0.120 A 
HETATM    9  N   UNL     1      10.457  31.242  57.795  1.00  0.00    -0.237 NA
HETATM   10  C   UNL     1       9.371  31.203  58.592  1.00  0.00     0.164 A 
HETATM   11  C   UNL     1       8.457  30.163  58.616  1.00  0.00     0.066 A 
BRANCH  10  12
HETATM   12  O   UNL     1       9.127  32.264  59.443  1.00  0.00    -0.329 OA
BRANCH  12  13
HETATM   13  C   UNL     1       8.414  31.935  60.654  1.00  0.00     0.130 C 
HETATM   14  C   UNL     1       9.311  31.817  61.916  1.00  0.00     0.032 C 
HETATM   15  C   UNL     1       8.153  32.437  62.717  1.00  0.00     0.005 C 
HETATM   16  C   UNL     1       7.684  33.083  61.400  1.00  0.00     0.032 C 
ENDBRANCH  12  13
ENDBRANCH  10  12
ENDBRANCH   5   6
ENDBRANCH   1   5
BRANCH   2  17
HETATM   17  C   UNL     1       7.493  25.394  54.904  1.00  0.00     0.066 A 
HETATM   18  C   UNL     1       7.896  24.147  55.422  1.00  0.00     0.100 A 
HETATM   19  C   UNL     1       8.260  23.132  54.536  1.00  0.00     0.066 A 
HETATM   20  N   UNL     1       8.008  23.703  56.725  1.00  0.00    -0.241 NA
HETATM   21  N   UNL     1       8.592  22.072  55.342  1.00  0.00    -0.349 N 
HETATM   22  C   UNL     1       8.243  23.282  53.148  1.00  0.00     0.074 A 
HETATM   23  H   UNL     1       8.905  21.162  55.033  1.00  0.00     0.167 HD
HETATM   24  C   UNL     1       8.427  22.462  56.642  1.00  0.00     0.208 A 
HETATM   25  C   UNL     1       7.838  24.525  52.663  1.00  0.00     0.119 A 
HETATM   26  F   UNL     1       7.803  24.720  51.337  1.00  0.00    -0.206 F 
HETATM   27  C   UNL     1       7.470  25.566  53.508  1.00  0.00     0.061 A 
ENDBRANCH   2  17
TORSDOF 5
ENDMDL
MODEL 2
REMARK VINA RESULT:      -9.3      1.696      2.385
REMARK  5 active torsions:
REMARK  status: ('A' for Active; 'I' for Inactive)
REMARK    1  A    between atoms: C_2  and  C_3 
REMARK    2  A    between atoms: C_3  and  N_4 
REMARK       I    between atoms: N_4  and  C_5 
REMARK    3  A    between atoms: C_5  and  C_6 
REMARK    4  A    between atoms: C_19  and  O_20 
REMARK    5  A    between atoms: O_20  and  C_21 
ROOT
HETATM    1  N   UNL     1       7.737  27.178  56.354  1.00  0.00    -0.353 N 
HETATM    2  C   UNL     1       7.306  25.874  56.290  1.00  0.00     0.254 C 
HETATM    3  O   UNL     1       6.780  25.300  57.240  1.00  0.00    -0.268 OA
HETATM    4  H   UNL     1       8.231  27.575  55.554  1.00  0.00     0.163 HD
ENDROOT
BRANCH   1   5
HETATM    5  C   UNL     1       7.672  27.903  57.596  1.00  0.00     0.161 C 
BRANCH   5   6
HETATM    6  C   UNL     1       8.665  29.027  57.661  1.00  0.00    -0.035 A 
HETATM    7  C   UNL     1       9.780  29.052  56.818  1.00  0.00     0.028 A 
HETATM    8  C   UNL     1      10.630  30.147  56.872  1.00  0.00     0.120 A 
HETATM    9  N   UNL     1      10.448  31.204  57.690  1.00  0.00    -0.237 NA
HETATM   10  C   UNL     1       9.378  31.148  58.507  1.00  0.00     0.164 A 
HETATM   11  C   UNL     1       8.481  30.093  58.547  1.00  0.00     0.066 A 
BRANCH  10  12
HETATM   12  O   UNL     1       9.132  32.204  59.362  1.00  0.00    -0.329 OA
BRANCH  12  13
HETATM   13  C   UNL     1       8.459  31.861  60.593  1.00  0.00     0.130 C 
HETATM   14  C   UNL     1       9.387  31.795  61.835  1.00  0.00     0.032 C 
HETATM   15  C   UNL     1       8.223  32.378  62.654  1.00  0.00     0.005 C 
HETATM   16  C   UNL     1       7.700  32.988  61.341  1.00  0.00     0.032 C 
ENDBRANCH  12  13
ENDBRANCH  10  12
ENDBRANCH   5   6
ENDBRANCH   1   5
BRANCH   2  17
HETATM   17  C   UNL     1       7.509  25.148  55.014  1.00  0.00     0.066 A 
HETATM   18  C   UNL     1       7.043  25.645  53.781  1.00  0.00     0.100 A 
HETATM   19  C   UNL     1       7.277  24.905  52.621  1.00  0.00     0.066 A 
HETATM   20  N   UNL     1       6.354  26.803  53.475  1.00  0.00    -0.241 NA
HETATM   21  N   UNL     1       6.710  25.648  51.616  1.00  0.00    -0.349 N 
HETATM   22  C   UNL     1       7.958  23.686  52.612  1.00  0.00     0.074 A 
HETATM   23  H   UNL     1       6.692  25.409  50.634  1.00  0.00     0.167 HD
HETATM   24  C   UNL     1       6.170  26.772  52.175  1.00  0.00     0.208 A 
HETATM   25  C   UNL     1       8.409  23.219  53.846  1.00  0.00     0.119 A 
HETATM   26  F   UNL     1       9.070  22.053  53.892  1.00  0.00    -0.206 F 
HETATM   27  C   UNL     1       8.196  23.921  55.027  1.00  0.00     0.061 A 
ENDBRANCH   2  17
TORSDOF 5
ENDMDL
MODEL 3
REMARK VINA RESULT:      -8.7      1.900      2.377
REMARK  5 active torsions:
REMARK  status: ('A' for Active; 'I' for Inactive)
REMARK    1  A    between atoms: C_2  and  C_3 
REMARK    2  A    between atoms: C_3  and  N_4 
REMARK       I    between atoms: N_4  and  C_5 
REMARK    3  A    between atoms: C_5  and  C_6 
REMARK    4  A    between atoms: C_19  and  O_20 
REMARK    5  A    between atoms: O_20  and  C_21 
ROOT
HETATM    1  N   UNL     1       7.320  25.490  56.842  1.00  0.00    -0.353 N 
HETATM    2  C   UNL     1       8.323  24.595  56.549  1.00  0.00     0.254 C 
HETATM    3  O   UNL     1       9.330  24.475  57.240  1.00  0.00    -0.268 OA
HETATM    4  H   UNL     1       6.543  25.593  56.189  1.00  0.00     0.163 HD
ENDROOT
BRANCH   1   5
HETATM    5  C   UNL     1       7.466  26.406  57.943  1.00  0.00     0.161 C 
BRANCH   5   6
HETATM    6  C   UNL     1       7.105  27.815  57.573  1.00  0.00    -0.035 A 
HETATM    7  C   UNL     1       6.060  28.080  56.683  1.00  0.00     0.028 A 
HETATM    8  C   UNL     1       5.723  29.401  56.427  1.00  0.00     0.120 A 
HETATM    9  N   UNL     1       6.341  30.460  56.990  1.00  0.00    -0.237 NA
HETATM   10  C   UNL     1       7.358  30.180  57.829  1.00  0.00     0.164 A 
HETATM   11  C   UNL     1       7.787  28.899  58.135  1.00  0.00     0.066 A 
BRANCH  10  12
HETATM   12  O   UNL     1       8.026  31.221  58.445  1.00  0.00    -0.329 OA
BRANCH  12  13
HETATM   13  C   UNL     1       8.433  30.976  59.808  1.00  0.00     0.130 C 
HETATM   14  C   UNL     1       9.552  31.921  60.324  1.00  0.00     0.032 C 
HETATM   15  C   UNL     1       8.853  31.891  61.694  1.00  0.00     0.005 C 
HETATM   16  C   UNL     1       7.551  31.560  60.943  1.00  0.00     0.032 C 
ENDBRANCH  12  13
ENDBRANCH  10  12
ENDBRANCH   5   6
ENDBRANCH   1   5
BRANCH   2  17
HETATM   17  C   UNL     1       8.162  23.762  55.334  1.00  0.00     0.066 A 
HETATM   18  C   UNL     1       8.136  22.354  55.382  1.00  0.00     0.100 A 
HETATM   19  C   UNL     1       7.975  21.638  54.195  1.00  0.00     0.066 A 
HETATM   20  N   UNL     1       8.244  21.484  56.450  1.00  0.00    -0.241 NA
HETATM   21  N   UNL     1       7.992  20.321  54.579  1.00  0.00    -0.349 N 
HETATM   22  C   UNL     1       7.834  22.246  52.946  1.00  0.00     0.074 A 
HETATM   23  H   UNL     1       7.900  19.520  53.970  1.00  0.00     0.167 HD
HETATM   24  C   UNL     1       8.155  20.279  55.936  1.00  0.00     0.208 A 
HETATM   25  C   UNL     1       7.861  23.640  52.928  1.00  0.00     0.119 A 
HETATM   26  F   UNL     1       7.728  24.273  51.753  1.00  0.00    -0.206 F 
HETATM   27  C   UNL     1       8.021  24.394  54.085  1.00  0.00     0.061 A 
ENDBRANCH   2  17
TORSDOF 5
ENDMDL
MODEL 4
REMARK VINA RESULT:      -8.6      2.429      3.635
REMARK  5 active torsions:
REMARK  status: ('A' for Active; 'I' for Inactive)
REMARK    1  A    between atoms: C_2  and  C_3 
REMARK    2  A    between atoms: C_3  and  N_4 
REMARK       I    between atoms: N_4  and  C_5 
REMARK    3  A    between atoms: C_5  and  C_6 
REMARK    4  A    between atoms: C_19  and  O_20 
REMARK    5  A    between atoms: O_20  and  C_21 
ROOT
HETATM    1  N   UNL     1       7.738  25.806  53.963  1.00  0.00    -0.353 N 
HETATM    2  C   UNL     1       7.094  24.714  53.428  1.00  0.00     0.254 C 
HETATM    3  O   UNL     1       6.136  24.814  52.668  1.00  0.00    -0.268 OA
HETATM    4  H   UNL     1       8.482  25.656  54.645  1.00  0.00     0.163 HD
ENDROOT
BRANCH   1   5
HETATM    5  C   UNL     1       7.238  27.133  53.719  1.00  0.00     0.161 C 
BRANCH   5   6
HETATM    6  C   UNL     1       6.603  27.743  54.935  1.00  0.00    -0.035 A 
HETATM    7  C   UNL     1       5.213  27.810  55.065  1.00  0.00     0.028 A 
HETATM    8  C   UNL     1       4.678  28.322  56.238  1.00  0.00     0.120 A 
HETATM    9  N   UNL     1       5.419  28.761  57.276  1.00  0.00    -0.237 NA
HETATM   10  C   UNL     1       6.757  28.705  57.120  1.00  0.00     0.164 A 
HETATM   11  C   UNL     1       7.390  28.233  55.982  1.00  0.00     0.066 A 
BRANCH  10  12
HETATM   12  O   UNL     1       7.571  29.132  58.152  1.00  0.00    -0.329 OA
BRANCH  12  13
HETATM   13  C   UNL     1       8.393  30.281  57.857  1.00  0.00     0.130 C 
HETATM   14  C   UNL     1       8.464  31.330  58.999  1.00  0.00     0.032 C 
HETATM   15  C   UNL     1       9.933  31.562  58.605  1.00  0.00     0.005 C 
HETATM   16  C   UNL     1       9.928  30.135  58.026  1.00  0.00     0.032 C 
ENDBRANCH  12  13
ENDBRANCH  10  12
ENDBRANCH   5   6
ENDBRANCH   1   5
BRANCH   2  17
HETATM   17  C   UNL     1       7.590  23.372  53.813  1.00  0.00     0.066 A 
HETATM   18  C   UNL     1       7.913  23.038  55.143  1.00  0.00     0.100 A 
HETATM   19  C   UNL     1       8.370  21.750  55.427  1.00  0.00     0.066 A 
HETATM   20  N   UNL     1       7.860  23.789  56.301  1.00  0.00    -0.241 NA
HETATM   21  N   UNL     1       8.590  21.751  56.782  1.00  0.00    -0.349 N 
HETATM   22  C   UNL     1       8.524  20.759  54.455  1.00  0.00     0.074 A 
HETATM   23  H   UNL     1       8.927  20.974  57.332  1.00  0.00     0.167 HD
HETATM   24  C   UNL     1       8.272  22.992  57.260  1.00  0.00     0.208 A 
HETATM   25  C   UNL     1       8.195  21.116  53.148  1.00  0.00     0.119 A 
HETATM   26  F   UNL     1       8.324  20.200  52.178  1.00  0.00    -0.206 F 
HETATM   27  C   UNL     1       7.739  22.387  52.819  1.00  0.00     0.061 A 
ENDBRANCH   2  17
TORSDOF 5
ENDMDL
MODEL 5
REMARK VINA RESULT:      -8.5      3.482      5.110
REMARK  5 active torsions:
REMARK  status: ('A' for Active; 'I' for Inactive)
REMARK    1  A    between atoms: C_2  and  C_3 
REMARK    2  A    between atoms: C_3  and  N_4 
REMARK       I    between atoms: N_4  and  C_5 
REMARK    3  A    between atoms: C_5  and  C_6 
REMARK    4  A    between atoms: C_19  and  O_20 
REMARK    5  A    between atoms: O_20  and  C_21 
ROOT
HETATM    1  N   UNL     1       5.693  24.881  53.160  1.00  0.00    -0.353 N 
HETATM    2  C   UNL     1       6.929  24.436  52.752  1.00  0.00     0.254 C 
HETATM    3  O   UNL     1       7.506  24.889  51.768  1.00  0.00    -0.268 OA
HETATM    4  H   UNL     1       5.234  24.415  53.944  1.00  0.00     0.163 HD
ENDROOT
BRANCH   1   5
HETATM    5  C   UNL     1       4.974  25.848  52.373  1.00  0.00     0.161 C 
BRANCH   5   6
HETATM    6  C   UNL     1       4.765  27.144  53.101  1.00  0.00    -0.035 A 
HETATM    7  C   UNL     1       3.891  28.115  52.603  1.00  0.00     0.028 A 
HETATM    8  C   UNL     1       3.682  29.266  53.348  1.00  0.00     0.120 A 
HETATM    9  N   UNL     1       4.270  29.512  54.538  1.00  0.00    -0.237 NA
HETATM   10  C   UNL     1       5.123  28.571  54.987  1.00  0.00     0.164 A 
HETATM   11  C   UNL     1       5.417  27.398  54.310  1.00  0.00     0.066 A 
BRANCH  10  12
HETATM   12  O   UNL     1       5.751  28.760  56.203  1.00  0.00    -0.329 OA
BRANCH  12  13
HETATM   13  C   UNL     1       7.073  28.192  56.313  1.00  0.00     0.130 C 
HETATM   14  C   UNL     1       8.226  29.187  56.012  1.00  0.00     0.032 C 
HETATM   15  C   UNL     1       9.035  28.481  57.114  1.00  0.00     0.005 C 
HETATM   16  C   UNL     1       7.688  28.059  57.731  1.00  0.00     0.032 C 
ENDBRANCH  12  13
ENDBRANCH  10  12
ENDBRANCH   5   6
ENDBRANCH   1   5
BRANCH   2  17
HETATM   17  C   UNL     1       7.563  23.356  53.544  1.00  0.00     0.066 A 
HETATM   18  C   UNL     1       7.798  23.473  54.928  1.00  0.00     0.100 A 
HETATM   19  C   UNL     1       8.396  22.408  55.605  1.00  0.00     0.066 A 
HETATM   20  N   UNL     1       7.532  24.506  55.806  1.00  0.00    -0.241 NA
HETATM   21  N   UNL     1       8.482  22.832  56.908  1.00  0.00    -0.349 N 
HETATM   22  C   UNL     1       8.776  21.219  54.982  1.00  0.00     0.074 A 
HETATM   23  H   UNL     1       8.867  22.308  57.682  1.00  0.00     0.167 HD
HETATM   24  C   UNL     1       7.954  24.091  56.979  1.00  0.00     0.208 A 
HETATM   25  C   UNL     1       8.530  21.129  53.612  1.00  0.00     0.119 A 
HETATM   26  F   UNL     1       8.875  20.007  52.967  1.00  0.00    -0.206 F 
HETATM   27  C   UNL     1       7.939  22.165  52.897  1.00  0.00     0.061 A 
ENDBRANCH   2  17
TORSDOF 5
ENDMDL
MODEL 6
REMARK VINA RESULT:      -8.5      3.075      3.921
REMARK  5 active torsions:
REMARK  status: ('A' for Active; 'I' for Inactive)
REMARK    1  A    between atoms: C_2  and  C_3 
REMARK    2  A    between atoms: C_3  and  N_4 
REMARK       I    between atoms: N_4  and  C_5 
REMARK    3  A    between atoms: C_5  and  C_6 
REMARK    4  A    between atoms: C_19  and  O_20 
REMARK    5  A    between atoms: O_20  and  C_21 
ROOT
HETATM    1  N   UNL     1       7.119  28.403  56.562  1.00  0.00    -0.353 N 
HETATM    2  C   UNL     1       5.786  28.738  56.617  1.00  0.00     0.254 C 
HETATM    3  O   UNL     1       5.222  29.051  57.662  1.00  0.00    -0.268 OA
HETATM    4  H   UNL     1       7.512  28.083  55.677  1.00  0.00     0.163 HD
ENDROOT
BRANCH   1   5
HETATM    5  C   UNL     1       7.894  28.314  57.772  1.00  0.00     0.161 C 
BRANCH   5   6
HETATM    6  C   UNL     1       8.796  29.498  57.969  1.00  0.00    -0.035 A 
HETATM    7  C   UNL     1       9.974  29.636  57.229  1.00  0.00     0.028 A 
HETATM    8  C   UNL     1      10.737  30.782  57.400  1.00  0.00     0.120 A 
HETATM    9  N   UNL     1      10.411  31.786  58.241  1.00  0.00    -0.237 NA
HETATM   10  C   UNL     1       9.282  31.621  58.957  1.00  0.00     0.164 A 
HETATM   11  C   UNL     1       8.463  30.507  58.876  1.00  0.00     0.066 A 
BRANCH  10  12
HETATM   12  O   UNL     1       8.890  32.618  59.829  1.00  0.00    -0.329 OA
BRANCH  12  13
HETATM   13  C   UNL     1       8.088  32.183  60.948  1.00  0.00     0.130 C 
HETATM   14  C   UNL     1       8.864  32.067  62.288  1.00  0.00     0.032 C 
HETATM   15  C   UNL     1       7.590  32.567  62.992  1.00  0.00     0.005 C 
HETATM   16  C   UNL     1       7.206  33.241  61.662  1.00  0.00     0.032 C 
ENDBRANCH  12  13
ENDBRANCH  10  12
ENDBRANCH   5   6
ENDBRANCH   1   5
BRANCH   2  17
HETATM   17  C   UNL     1       5.018  28.699  55.351  1.00  0.00     0.066 A 
HETATM   18  C   UNL     1       4.921  27.535  54.562  1.00  0.00     0.100 A 
HETATM   19  C   UNL     1       4.174  27.576  53.384  1.00  0.00     0.066 A 
HETATM   20  N   UNL     1       5.457  26.274  54.742  1.00  0.00    -0.241 NA
HETATM   21  N   UNL     1       4.279  26.310  52.864  1.00  0.00    -0.349 N 
HETATM   22  C   UNL     1       3.507  28.718  52.938  1.00  0.00     0.074 A 
HETATM   23  H   UNL     1       3.857  25.980  52.007  1.00  0.00     0.167 HD
HETATM   24  C   UNL     1       5.055  25.568  53.710  1.00  0.00     0.208 A 
HETATM   25  C   UNL     1       3.618  29.854  53.738  1.00  0.00     0.119 A 
HETATM   26  F   UNL     1       2.994  30.977  53.355  1.00  0.00    -0.206 F 
HETATM   27  C   UNL     1       4.353  29.860  54.918  1.00  0.00     0.061 A 
ENDBRANCH   2  17
TORSDOF 5
ENDMDL
MODEL 7
REMARK VINA RESULT:      -8.5      1.294      1.436
REMARK  5 active torsions:
REMARK  status: ('A' for Active; 'I' for Inactive)
REMARK    1  A    between atoms: C_2  and  C_3 
REMARK    2  A    between atoms: C_3  and  N_4 
REMARK       I    between atoms: N_4  and  C_5 
REMARK    3  A    between atoms: C_5  and  C_6 
REMARK    4  A    between atoms: C_19  and  O_20 
REMARK    5  A    between atoms: O_20  and  C_21 
ROOT
HETATM    1  N   UNL     1       6.842  27.938  56.158  1.00  0.00    -0.353 N 
HETATM    2  C   UNL     1       5.952  26.892  56.084  1.00  0.00     0.254 C 
HETATM    3  O   UNL     1       4.935  26.835  56.770  1.00  0.00    -0.268 OA
HETATM    4  H   UNL     1       7.704  27.892  55.614  1.00  0.00     0.163 HD
ENDROOT
BRANCH   1   5
HETATM    5  C   UNL     1       6.658  28.979  57.134  1.00  0.00     0.161 C 
BRANCH   5   6
HETATM    6  C   UNL     1       7.947  29.642  57.522  1.00  0.00    -0.035 A 
HETATM    7  C   UNL     1       9.168  29.195  57.009  1.00  0.00     0.028 A 
HETATM    8  C   UNL     1      10.324  29.885  57.346  1.00  0.00     0.120 A 
HETATM    9  N   UNL     1      10.348  30.974  58.142  1.00  0.00    -0.237 NA
HETATM   10  C   UNL     1       9.161  31.374  58.640  1.00  0.00     0.164 A 
HETATM   11  C   UNL     1       7.955  30.743  58.383  1.00  0.00     0.066 A 
BRANCH  10  12
HETATM   12  O   UNL     1       9.117  32.489  59.455  1.00  0.00    -0.329 OA
BRANCH  12  13
HETATM   13  C   UNL     1       9.294  32.233  60.864  1.00  0.00     0.130 C 
HETATM   14  C   UNL     1       8.007  32.404  61.715  1.00  0.00     0.032 C 
HETATM   15  C   UNL     1       8.492  31.219  62.567  1.00  0.00     0.005 C 
HETATM   16  C   UNL     1       9.294  30.755  61.337  1.00  0.00     0.032 C 
ENDBRANCH  12  13
ENDBRANCH  10  12
ENDBRANCH   5   6
ENDBRANCH   1   5
BRANCH   2  17
HETATM   17  C   UNL     1       6.262  25.795  55.139  1.00  0.00     0.066 A 
HETATM   18  C   UNL     1       7.302  24.871  55.368  1.00  0.00     0.100 A 
HETATM   19  C   UNL     1       7.529  23.862  54.432  1.00  0.00     0.066 A 
HETATM   20  N   UNL     1       8.200  24.763  56.412  1.00  0.00    -0.241 NA
HETATM   21  N   UNL     1       8.586  23.149  54.942  1.00  0.00    -0.349 N 
HETATM   22  C   UNL     1       6.774  23.710  53.268  1.00  0.00     0.074 A 
HETATM   23  H   UNL     1       9.019  22.340  54.518  1.00  0.00     0.167 HD
HETATM   24  C   UNL     1       8.953  23.726  56.125  1.00  0.00     0.208 A 
HETATM   25  C   UNL     1       5.751  24.636  53.067  1.00  0.00     0.119 A 
HETATM   26  F   UNL     1       4.995  24.533  51.965  1.00  0.00    -0.206 F 
HETATM   27  C   UNL     1       5.490  25.659  53.971  1.00  0.00     0.061 A 
ENDBRANCH   2  17
TORSDOF 5
ENDMDL
MODEL 8
REMARK VINA RESULT:      -8.3      4.413      7.016
REMARK  5 active torsions:
REMARK  status: ('A' for Active; 'I' for Inactive)
REMARK    1  A    between atoms: C_2  and  C_3 
REMARK    2  A    between atoms: C_3  and  N_4 
REMARK       I    between atoms: N_4  and  C_5 
REMARK    3  A    between atoms: C_5  and  C_6 
REMARK    4  A    between atoms: C_19  and  O_20 
REMARK    5  A    between atoms: O_20  and  C_21 
ROOT
HETATM    1  N   UNL     1       8.387  31.082  60.944  1.00  0.00    -0.353 N 
HETATM    2  C   UNL     1       8.857  31.631  59.774  1.00  0.00     0.254 C 
HETATM    3  O   UNL     1       9.245  32.793  59.693  1.00  0.00    -0.268 OA
HETATM    4  H   UNL     1       8.012  30.134  60.929  1.00  0.00     0.163 HD
ENDROOT
BRANCH   1   5
HETATM    5  C   UNL     1       8.242  31.899  62.120  1.00  0.00     0.161 C 
BRANCH   5   6
HETATM    6  C   UNL     1       6.815  32.290  62.379  1.00  0.00    -0.035 A 
HETATM    7  C   UNL     1       5.883  32.336  61.339  1.00  0.00     0.028 A 
HETATM    8  C   UNL     1       4.563  32.637  61.642  1.00  0.00     0.120 A 
HETATM    9  N   UNL     1       4.113  32.887  62.889  1.00  0.00    -0.237 NA
HETATM   10  C   UNL     1       5.035  32.856  63.872  1.00  0.00     0.164 A 
HETATM   11  C   UNL     1       6.379  32.588  63.673  1.00  0.00     0.066 A 
BRANCH  10  12
HETATM   12  O   UNL     1       4.636  33.095  65.173  1.00  0.00    -0.329 OA
BRANCH  12  13
HETATM   13  C   UNL     1       4.965  34.401  65.692  1.00  0.00     0.130 C 
HETATM   14  C   UNL     1       3.873  35.479  65.457  1.00  0.00     0.032 C 
HETATM   15  C   UNL     1       4.241  36.058  66.835  1.00  0.00     0.005 C 
HETATM   16  C   UNL     1       4.750  34.653  67.208  1.00  0.00     0.032 C 
ENDBRANCH  12  13
ENDBRANCH  10  12
ENDBRANCH   5   6
ENDBRANCH   1   5
BRANCH   2  17
HETATM   17  C   UNL     1       8.872  30.767  58.570  1.00  0.00     0.066 A 
HETATM   18  C   UNL     1       7.691  30.353  57.922  1.00  0.00     0.100 A 
HETATM   19  C   UNL     1       7.788  29.543  56.790  1.00  0.00     0.066 A 
HETATM   20  N   UNL     1       6.365  30.614  58.207  1.00  0.00    -0.241 NA
HETATM   21  N   UNL     1       6.488  29.325  56.408  1.00  0.00    -0.349 N 
HETATM   22  C   UNL     1       9.005  29.115  56.255  1.00  0.00     0.074 A 
HETATM   23  H   UNL     1       6.183  28.774  55.618  1.00  0.00     0.167 HD
HETATM   24  C   UNL     1       5.674  29.984  57.286  1.00  0.00     0.208 A 
HETATM   25  C   UNL     1      10.157  29.540  56.915  1.00  0.00     0.119 A 
HETATM   26  F   UNL     1      11.351  29.157  56.440  1.00  0.00    -0.206 F 
HETATM   27  C   UNL     1      10.108  30.345  58.047  1.00  0.00     0.061 A 
ENDBRANCH   2  17
TORSDOF 5
ENDMDL
MODEL 9
REMARK VINA RESULT:      -8.3      5.094      8.641
REMARK  5 active torsions:
REMARK  status: ('A' for Active; 'I' for Inactive)
REMARK    1  A    between atoms: C_2  and  C_3 
REMARK    2  A    between atoms: C_3  and  N_4 
REMARK       I    between atoms: N_4  and  C_5 
REMARK    3  A    between atoms: C_5  and  C_6 
REMARK    4  A    between atoms: C_19  and  O_20 
REMARK    5  A    between atoms: O_20  and  C_21 
ROOT
HETATM    1  N   UNL     1       6.081  26.565  53.346  1.00  0.00    -0.353 N 
HETATM    2  C   UNL     1       5.767  25.231  53.466  1.00  0.00     0.254 C 
HETATM    3  O   UNL     1       4.647  24.789  53.230  1.00  0.00    -0.268 OA
HETATM    4  H   UNL     1       7.010  26.881  53.626  1.00  0.00     0.163 HD
ENDROOT
BRANCH   1   5
HETATM    5  C   UNL     1       5.058  27.524  53.024  1.00  0.00     0.161 C 
BRANCH   5   6
HETATM    6  C   UNL     1       5.133  27.993  51.600  1.00  0.00    -0.035 A 
HETATM    7  C   UNL     1       5.570  29.283  51.289  1.00  0.00     0.028 A 
HETATM    8  C   UNL     1       5.685  29.643  49.954  1.00  0.00     0.120 A 
HETATM    9  N   UNL     1       5.404  28.819  48.924  1.00  0.00    -0.237 NA
HETATM   10  C   UNL     1       4.965  27.587  49.248  1.00  0.00     0.164 A 
HETATM   11  C   UNL     1       4.795  27.137  50.547  1.00  0.00     0.066 A 
BRANCH  10  12
HETATM   12  O   UNL     1       4.668  26.693  48.237  1.00  0.00    -0.329 OA
BRANCH  12  13
HETATM   13  C   UNL     1       3.548  27.053  47.402  1.00  0.00     0.130 C 
HETATM   14  C   UNL     1       2.658  25.856  46.970  1.00  0.00     0.032 C 
HETATM   15  C   UNL     1       1.447  26.796  47.096  1.00  0.00     0.005 C 
HETATM   16  C   UNL     1       2.280  27.619  48.095  1.00  0.00     0.032 C 
ENDBRANCH  12  13
ENDBRANCH  10  12
ENDBRANCH   5   6
ENDBRANCH   1   5
BRANCH   2  17
HETATM   17  C   UNL     1       6.841  24.313  53.913  1.00  0.00     0.066 A 
HETATM   18  C   UNL     1       7.532  24.494  55.128  1.00  0.00     0.100 A 
HETATM   19  C   UNL     1       8.528  23.583  55.483  1.00  0.00     0.066 A 
HETATM   20  N   UNL     1       7.405  25.464  56.104  1.00  0.00    -0.241 NA
HETATM   21  N   UNL     1       8.994  24.033  56.693  1.00  0.00    -0.349 N 
HETATM   22  C   UNL     1       8.881  22.487  54.694  1.00  0.00     0.074 A 
HETATM   23  H   UNL     1       9.726  23.609  57.246  1.00  0.00     0.167 HD
HETATM   24  C   UNL     1       8.293  25.160  57.023  1.00  0.00     0.208 A 
HETATM   25  C   UNL     1       8.180  22.331  53.499  1.00  0.00     0.119 A 
HETATM   26  F   UNL     1       8.481  21.293  52.706  1.00  0.00    -0.206 F 
HETATM   27  C   UNL     1       7.183  23.215  53.104  1.00  0.00     0.061 A 
ENDBRANCH   2  17
TORSDOF 5
ENDMDL
MODEL 10
REMARK VINA RESULT:      -8.2      3.662      9.353
REMARK  5 active torsions:
REMARK  status: ('A' for Active; 'I' for Inactive)
REMARK    1  A    between atoms: C_2  and  C_3 
REMARK    2  A    between atoms: C_3  and  N_4 
REMARK       I    between atoms: N_4  and  C_5 
REMARK    3  A    between atoms: C_5  and  C_6 
REMARK    4  A    between atoms: C_19  and  O_20 
REMARK    5  A    between atoms: O_20  and  C_21 
ROOT
HETATM    1  N   UNL     1       8.057  29.088  58.236  1.00  0.00    -0.353 N 
HETATM    2  C   UNL     1       8.751  30.204  58.642  1.00  0.00     0.254 C 
HETATM    3  O   UNL     1       9.877  30.472  58.232  1.00  0.00    -0.268 OA
HETATM    4  H   UNL     1       7.155  28.883  58.667  1.00  0.00     0.163 HD
ENDROOT
BRANCH   1   5
HETATM    5  C   UNL     1       8.680  28.122  57.370  1.00  0.00     0.161 C 
BRANCH   5   6
HETATM    6  C   UNL     1       7.803  26.933  57.105  1.00  0.00    -0.035 A 
HETATM    7  C   UNL     1       6.419  27.077  56.966  1.00  0.00     0.028 A 
HETATM    8  C   UNL     1       5.662  25.957  56.655  1.00  0.00     0.120 A 
HETATM    9  N   UNL     1       6.179  24.724  56.471  1.00  0.00    -0.237 NA
HETATM   10  C   UNL     1       7.512  24.607  56.631  1.00  0.00     0.164 A 
HETATM   11  C   UNL     1       8.353  25.656  56.962  1.00  0.00     0.066 A 
BRANCH  10  12
HETATM   12  O   UNL     1       8.103  23.371  56.447  1.00  0.00    -0.329 OA
BRANCH  12  13
HETATM   13  C   UNL     1       7.565  22.582  55.365  1.00  0.00     0.130 C 
HETATM   14  C   UNL     1       8.361  22.689  54.036  1.00  0.00     0.032 C 
HETATM   15  C   UNL     1       8.049  21.200  53.807  1.00  0.00     0.005 C 
HETATM   16  C   UNL     1       7.906  21.069  55.335  1.00  0.00     0.032 C 
ENDBRANCH  12  13
ENDBRANCH  10  12
ENDBRANCH   5   6
ENDBRANCH   1   5
BRANCH   2  17
HETATM   17  C   UNL     1       8.095  31.098  59.625  1.00  0.00     0.066 A 
HETATM   18  C   UNL     1       6.869  31.741  59.360  1.00  0.00     0.100 A 
HETATM   19  C   UNL     1       6.312  32.565  60.340  1.00  0.00     0.066 A 
HETATM   20  N   UNL     1       6.055  31.712  58.245  1.00  0.00    -0.241 NA
HETATM   21  N   UNL     1       5.146  33.027  59.781  1.00  0.00    -0.349 N 
HETATM   22  C   UNL     1       6.905  32.788  61.584  1.00  0.00     0.074 A 
HETATM   23  H   UNL     1       4.484  33.654  60.216  1.00  0.00     0.167 HD
HETATM   24  C   UNL     1       5.037  32.491  58.528  1.00  0.00     0.208 A 
HETATM   25  C   UNL     1       8.116  32.138  61.819  1.00  0.00     0.119 A 
HETATM   26  F   UNL     1       8.726  32.318  62.999  1.00  0.00    -0.206 F 
HETATM   27  C   UNL     1       8.709  31.311  60.872  1.00  0.00     0.061 A 
ENDBRANCH   2  17
TORSDOF 5
ENDMDL
