MODEL 1
REMARK VINA RESULT:      -9.1      0.000      0.000
REMARK  3 active torsions:
REMARK  status: ('A' for Active; 'I' for Inactive)
REMARK    1  A    between atoms: C_7  and  C_8 
REMARK    2  A    between atoms: C_17  and  C_18 
REMARK       I    between atoms: C_18  and  N_19 
REMARK    3  A    between atoms: N_19  and  C_20 
ROOT
HETATM    1  C   UNL     1       5.475  26.728  55.067  1.00  0.00     0.206 C 
HETATM    2  N   UNL     1       4.667  27.919  54.767  1.00  0.00    -0.084 N 
HETATM    3  C   UNL     1       4.139  28.185  53.531  1.00  0.00     0.725 A 
HETATM    4  N   UNL     1       3.403  29.264  53.589  1.00  0.00    -0.054 NA
HETATM    5  C   UNL     1       3.476  29.609  54.913  1.00  0.00     0.275 A 
HETATM    6  N   UNL     1       4.190  28.786  55.689  1.00  0.00    -0.149 NA
HETATM    7  N   UNL     1       4.416  27.361  52.505  1.00  0.00    -0.192 N 
HETATM    8  C   UNL     1       5.309  26.301  52.597  1.00  0.00     0.037 C 
HETATM    9  C   UNL     1       5.582  25.570  51.303  1.00  0.00     0.070 C 
HETATM   10  C   UNL     1       5.858  25.979  53.797  1.00  0.00     0.063 C 
HETATM   11  H   UNL     1       4.074  27.607  51.579  1.00  0.00     0.184 HD
ENDROOT
BRANCH  10  12
HETATM   12  C   UNL     1       6.934  24.953  53.847  1.00  0.00     0.256 C 
HETATM   13  N   UNL     1       6.538  23.737  54.356  1.00  0.00    -0.323 N 
HETATM   14  H   UNL     1       5.587  23.640  54.682  1.00  0.00     0.169 HD
HETATM   15  O   UNL     1       8.054  25.259  53.454  1.00  0.00    -0.267 OA
BRANCH  13  16
HETATM   16  C   UNL     1       7.342  22.581  54.490  1.00  0.00     0.035 A 
HETATM   17  C   UNL     1       7.809  22.091  55.713  1.00  0.00     0.029 A 
HETATM   18  C   UNL     1       8.613  20.947  55.763  1.00  0.00     0.002 A 
HETATM   19  C   UNL     1       8.953  20.278  54.592  1.00  0.00     0.000 A 
HETATM   20  C   UNL     1       8.493  20.754  53.367  1.00  0.00     0.002 A 
HETATM   21  C   UNL     1       7.694  21.901  53.317  1.00  0.00     0.029 A 
ENDBRANCH  13  16
ENDBRANCH  10  12
BRANCH   1  22
HETATM   22  C   UNL     1       6.624  27.082  55.976  1.00  0.00     0.015 A 
HETATM   23  C   UNL     1       7.706  27.908  55.696  1.00  0.00     0.036 A 
HETATM   24  C   UNL     1       8.092  28.629  54.454  1.00  0.00     0.070 C 
HETATM   25  N   UNL     1       8.466  27.931  56.839  1.00  0.00    -0.278 N 
HETATM   26  C   UNL     1       9.697  28.651  57.066  1.00  0.00     0.179 C 
HETATM   27  N   UNL     1       7.972  27.161  57.821  1.00  0.00    -0.185 NA
HETATM   28  C   UNL     1       6.862  26.640  57.299  1.00  0.00     0.150 A 
ENDBRANCH   1  22
TORSDOF 3
ENDMDL
MODEL 2
REMARK VINA RESULT:      -8.4      1.645      2.155
REMARK  3 active torsions:
REMARK  status: ('A' for Active; 'I' for Inactive)
REMARK    1  A    between atoms: C_7  and  C_8 
REMARK    2  A    between atoms: C_17  and  C_18 
REMARK       I    between atoms: C_18  and  N_19 
REMARK    3  A    between atoms: N_19  and  C_20 
ROOT
HETATM    1  C   UNL     1       4.453  27.870  53.852  1.00  0.00     0.206 C 
HETATM    2  N   UNL     1       4.465  29.251  53.344  1.00  0.00    -0.084 N 
HETATM    3  C   UNL     1       4.514  29.568  52.012  1.00  0.00     0.725 A 
HETATM    4  N   UNL     1       4.429  30.865  51.865  1.00  0.00    -0.054 NA
HETATM    5  C   UNL     1       4.285  31.306  53.154  1.00  0.00     0.275 A 
HETATM    6  N   UNL     1       4.243  30.355  54.093  1.00  0.00    -0.149 NA
HETATM    7  N   UNL     1       4.623  28.583  51.103  1.00  0.00    -0.192 N 
HETATM    8  C   UNL     1       4.804  27.248  51.443  1.00  0.00     0.037 C 
HETATM    9  C   UNL     1       5.031  26.309  50.281  1.00  0.00     0.070 C 
HETATM   10  C   UNL     1       4.756  26.868  52.746  1.00  0.00     0.063 C 
HETATM   11  H   UNL     1       4.727  28.836  50.124  1.00  0.00     0.184 HD
ENDROOT
BRANCH  10  12
HETATM   12  C   UNL     1       5.115  25.469  53.104  1.00  0.00     0.256 C 
HETATM   13  N   UNL     1       6.463  25.255  53.282  1.00  0.00    -0.323 N 
HETATM   14  H   UNL     1       7.097  26.027  53.128  1.00  0.00     0.169 HD
HETATM   15  O   UNL     1       4.218  24.640  53.200  1.00  0.00    -0.267 OA
BRANCH  13  16
HETATM   16  C   UNL     1       7.078  24.036  53.653  1.00  0.00     0.035 A 
HETATM   17  C   UNL     1       7.632  23.131  52.743  1.00  0.00     0.029 A 
HETATM   18  C   UNL     1       8.211  21.938  53.187  1.00  0.00     0.002 A 
HETATM   19  C   UNL     1       8.248  21.640  54.546  1.00  0.00     0.000 A 
HETATM   20  C   UNL     1       7.703  22.533  55.463  1.00  0.00     0.002 A 
HETATM   21  C   UNL     1       7.118  23.724  55.018  1.00  0.00     0.029 A 
ENDBRANCH  13  16
ENDBRANCH  10  12
BRANCH   1  22
HETATM   22  C   UNL     1       5.314  27.751  55.082  1.00  0.00     0.015 A 
HETATM   23  C   UNL     1       6.682  27.978  55.189  1.00  0.00     0.036 A 
HETATM   24  C   UNL     1       7.696  28.341  54.164  1.00  0.00     0.070 C 
HETATM   25  N   UNL     1       6.997  27.757  56.506  1.00  0.00    -0.278 N 
HETATM   26  C   UNL     1       8.294  27.868  57.134  1.00  0.00     0.179 C 
HETATM   27  N   UNL     1       5.946  27.377  57.248  1.00  0.00    -0.185 NA
HETATM   28  C   UNL     1       4.928  27.365  56.388  1.00  0.00     0.150 A 
ENDBRANCH   1  22
TORSDOF 3
ENDMDL
MODEL 3
REMARK VINA RESULT:      -8.1      2.395      6.954
REMARK  3 active torsions:
REMARK  status: ('A' for Active; 'I' for Inactive)
REMARK    1  A    between atoms: C_7  and  C_8 
REMARK    2  A    between atoms: C_17  and  C_18 
REMARK       I    between atoms: C_18  and  N_19 
REMARK    3  A    between atoms: N_19  and  C_20 
ROOT
HETATM    1  C   UNL     1       6.977  23.122  54.406  1.00  0.00     0.206 C 
HETATM    2  N   UNL     1       7.816  21.980  54.010  1.00  0.00    -0.084 N 
HETATM    3  C   UNL     1       8.649  21.317  54.872  1.00  0.00     0.725 A 
HETATM    4  N   UNL     1       9.200  20.302  54.259  1.00  0.00    -0.054 NA
HETATM    5  C   UNL     1       8.634  20.359  53.013  1.00  0.00     0.275 A 
HETATM    6  N   UNL     1       7.736  21.333  52.825  1.00  0.00    -0.149 NA
HETATM    7  N   UNL     1       8.772  21.754  56.138  1.00  0.00    -0.192 N 
HETATM    8  C   UNL     1       8.182  22.924  56.602  1.00  0.00     0.037 C 
HETATM    9  C   UNL     1       8.540  23.312  58.017  1.00  0.00     0.070 C 
HETATM   10  C   UNL     1       7.338  23.621  55.799  1.00  0.00     0.063 C 
HETATM   11  H   UNL     1       9.444  21.295  56.747  1.00  0.00     0.184 HD
ENDROOT
BRANCH  10  12
HETATM   12  C   UNL     1       6.848  24.952  56.250  1.00  0.00     0.256 C 
HETATM   13  N   UNL     1       7.764  25.971  56.117  1.00  0.00    -0.323 N 
HETATM   14  H   UNL     1       8.685  25.747  55.769  1.00  0.00     0.169 HD
HETATM   15  O   UNL     1       5.710  25.036  56.697  1.00  0.00    -0.267 OA
BRANCH  13  16
HETATM   16  C   UNL     1       7.556  27.333  56.437  1.00  0.00     0.035 A 
HETATM   17  C   UNL     1       6.837  28.224  55.635  1.00  0.00     0.029 A 
HETATM   18  C   UNL     1       6.686  29.562  56.013  1.00  0.00     0.002 A 
HETATM   19  C   UNL     1       7.246  30.022  57.201  1.00  0.00     0.000 A 
HETATM   20  C   UNL     1       7.962  29.145  58.010  1.00  0.00     0.002 A 
HETATM   21  C   UNL     1       8.118  27.809  57.629  1.00  0.00     0.029 A 
ENDBRANCH  13  16
ENDBRANCH  10  12
BRANCH   1  22
HETATM   22  C   UNL     1       6.968  24.173  53.327  1.00  0.00     0.015 A 
HETATM   23  C   UNL     1       5.871  24.854  52.813  1.00  0.00     0.036 A 
HETATM   24  C   UNL     1       4.419  24.734  53.106  1.00  0.00     0.070 C 
HETATM   25  N   UNL     1       6.373  25.715  51.869  1.00  0.00    -0.278 N 
HETATM   26  C   UNL     1       5.640  26.652  51.049  1.00  0.00     0.179 C 
HETATM   27  N   UNL     1       7.702  25.619  51.715  1.00  0.00    -0.185 NA
HETATM   28  C   UNL     1       8.064  24.682  52.591  1.00  0.00     0.150 A 
ENDBRANCH   1  22
TORSDOF 3
ENDMDL
MODEL 4
REMARK VINA RESULT:      -7.8      5.979      9.014
REMARK  3 active torsions:
REMARK  status: ('A' for Active; 'I' for Inactive)
REMARK    1  A    between atoms: C_7  and  C_8 
REMARK    2  A    between atoms: C_17  and  C_18 
REMARK       I    between atoms: C_18  and  N_19 
REMARK    3  A    between atoms: N_19  and  C_20 
ROOT
HETATM    1  C   UNL     1       5.245  33.323  60.576  1.00  0.00     0.206 C 
HETATM    2  N   UNL     1       4.363  33.422  61.748  1.00  0.00    -0.084 N 
HETATM    3  C   UNL     1       4.736  33.047  63.012  1.00  0.00     0.725 A 
HETATM    4  N   UNL     1       3.777  33.327  63.856  1.00  0.00    -0.054 NA
HETATM    5  C   UNL     1       2.836  33.921  63.057  1.00  0.00     0.275 A 
HETATM    6  N   UNL     1       3.168  34.057  61.769  1.00  0.00    -0.149 NA
HETATM    7  N   UNL     1       5.946  32.494  63.205  1.00  0.00    -0.192 N 
HETATM    8  C   UNL     1       6.813  32.172  62.167  1.00  0.00     0.037 C 
HETATM    9  C   UNL     1       8.071  31.444  62.576  1.00  0.00     0.070 C 
HETATM   10  C   UNL     1       6.505  32.528  60.893  1.00  0.00     0.063 C 
HETATM   11  H   UNL     1       6.184  32.158  64.135  1.00  0.00     0.184 HD
ENDROOT
BRANCH  10  12
HETATM   12  C   UNL     1       7.359  32.033  59.779  1.00  0.00     0.256 C 
HETATM   13  N   UNL     1       6.968  30.820  59.258  1.00  0.00    -0.323 N 
HETATM   14  H   UNL     1       6.177  30.350  59.675  1.00  0.00     0.169 HD
HETATM   15  O   UNL     1       8.316  32.713  59.428  1.00  0.00    -0.267 OA
BRANCH  13  16
HETATM   16  C   UNL     1       7.576  30.135  58.180  1.00  0.00     0.035 A 
HETATM   17  C   UNL     1       8.904  29.697  58.181  1.00  0.00     0.029 A 
HETATM   18  C   UNL     1       9.438  29.037  57.071  1.00  0.00     0.002 A 
HETATM   19  C   UNL     1       8.650  28.802  55.948  1.00  0.00     0.000 A 
HETATM   20  C   UNL     1       7.326  29.231  55.934  1.00  0.00     0.002 A 
HETATM   21  C   UNL     1       6.794  29.896  57.043  1.00  0.00     0.029 A 
ENDBRANCH  13  16
ENDBRANCH  10  12
BRANCH   1  22
HETATM   22  C   UNL     1       4.474  32.853  59.370  1.00  0.00     0.015 A 
HETATM   23  C   UNL     1       4.263  33.535  58.177  1.00  0.00     0.036 A 
HETATM   24  C   UNL     1       4.663  34.901  57.746  1.00  0.00     0.070 C 
HETATM   25  N   UNL     1       3.521  32.691  57.389  1.00  0.00    -0.278 N 
HETATM   26  C   UNL     1       3.045  32.928  56.045  1.00  0.00     0.179 C 
HETATM   27  N   UNL     1       3.214  31.533  57.992  1.00  0.00    -0.185 NA
HETATM   28  C   UNL     1       3.782  31.631  59.194  1.00  0.00     0.150 A 
ENDBRANCH   1  22
TORSDOF 3
ENDMDL
MODEL 5
REMARK VINA RESULT:      -7.8      5.454      9.265
REMARK  3 active torsions:
REMARK  status: ('A' for Active; 'I' for Inactive)
REMARK    1  A    between atoms: C_7  and  C_8 
REMARK    2  A    between atoms: C_17  and  C_18 
REMARK       I    between atoms: C_18  and  N_19 
REMARK    3  A    between atoms: N_19  and  C_20 
ROOT
HETATM    1  C   UNL     1       5.863  30.704  57.920  1.00  0.00     0.206 C 
HETATM    2  N   UNL     1       5.827  29.978  56.641  1.00  0.00    -0.084 N 
HETATM    3  C   UNL     1       6.905  29.316  56.116  1.00  0.00     0.725 A 
HETATM    4  N   UNL     1       6.551  28.700  55.018  1.00  0.00    -0.054 NA
HETATM    5  C   UNL     1       5.214  28.985  54.930  1.00  0.00     0.275 A 
HETATM    6  N   UNL     1       4.708  29.716  55.929  1.00  0.00    -0.149 NA
HETATM    7  N   UNL     1       8.088  29.371  56.753  1.00  0.00    -0.192 N 
HETATM    8  C   UNL     1       8.316  30.164  57.871  1.00  0.00     0.037 C 
HETATM    9  C   UNL     1       9.742  30.188  58.368  1.00  0.00     0.070 C 
HETATM   10  C   UNL     1       7.286  30.838  58.446  1.00  0.00     0.063 C 
HETATM   11  H   UNL     1       8.895  28.932  56.317  1.00  0.00     0.184 HD
ENDROOT
BRANCH  10  12
HETATM   12  C   UNL     1       7.576  31.808  59.536  1.00  0.00     0.256 C 
HETATM   13  N   UNL     1       6.865  31.592  60.694  1.00  0.00    -0.323 N 
HETATM   14  H   UNL     1       6.193  30.839  60.713  1.00  0.00     0.169 HD
HETATM   15  O   UNL     1       8.390  32.700  59.325  1.00  0.00    -0.267 OA
BRANCH  13  16
HETATM   16  C   UNL     1       6.965  32.340  61.891  1.00  0.00     0.035 A 
HETATM   17  C   UNL     1       7.893  32.076  62.903  1.00  0.00     0.029 A 
HETATM   18  C   UNL     1       7.921  32.853  64.066  1.00  0.00     0.002 A 
HETATM   19  C   UNL     1       7.025  33.906  64.227  1.00  0.00     0.000 A 
HETATM   20  C   UNL     1       6.097  34.181  63.227  1.00  0.00     0.002 A 
HETATM   21  C   UNL     1       6.066  33.400  62.067  1.00  0.00     0.029 A 
ENDBRANCH  13  16
ENDBRANCH  10  12
BRANCH   1  22
HETATM   22  C   UNL     1       5.089  31.993  57.820  1.00  0.00     0.015 A 
HETATM   23  C   UNL     1       4.088  32.452  58.668  1.00  0.00     0.036 A 
HETATM   24  C   UNL     1       3.450  31.828  59.857  1.00  0.00     0.070 C 
HETATM   25  N   UNL     1       3.709  33.675  58.174  1.00  0.00    -0.278 N 
HETATM   26  C   UNL     1       2.703  34.568  58.701  1.00  0.00     0.179 C 
HETATM   27  N   UNL     1       4.367  34.024  57.057  1.00  0.00    -0.185 NA
HETATM   28  C   UNL     1       5.197  33.005  56.837  1.00  0.00     0.150 A 
ENDBRANCH   1  22
TORSDOF 3
ENDMDL
MODEL 6
REMARK VINA RESULT:      -7.6      1.438      1.987
REMARK  3 active torsions:
REMARK  status: ('A' for Active; 'I' for Inactive)
REMARK    1  A    between atoms: C_7  and  C_8 
REMARK    2  A    between atoms: C_17  and  C_18 
REMARK       I    between atoms: C_18  and  N_19 
REMARK    3  A    between atoms: N_19  and  C_20 
ROOT
HETATM    1  C   UNL     1       5.306  26.273  54.024  1.00  0.00     0.206 C 
HETATM    2  N   UNL     1       4.810  27.293  53.088  1.00  0.00    -0.084 N 
HETATM    3  C   UNL     1       5.142  27.330  51.760  1.00  0.00     0.725 A 
HETATM    4  N   UNL     1       4.488  28.294  51.168  1.00  0.00    -0.054 NA
HETATM    5  C   UNL     1       3.722  28.806  52.181  1.00  0.00     0.275 A 
HETATM    6  N   UNL     1       3.837  28.192  53.365  1.00  0.00    -0.149 NA
HETATM    7  N   UNL     1       6.019  26.433  51.275  1.00  0.00    -0.192 N 
HETATM    8  C   UNL     1       6.705  25.527  52.075  1.00  0.00     0.037 C 
HETATM    9  C   UNL     1       7.740  24.687  51.363  1.00  0.00     0.070 C 
HETATM   10  C   UNL     1       6.413  25.435  53.398  1.00  0.00     0.063 C 
HETATM   11  H   UNL     1       6.309  26.513  50.304  1.00  0.00     0.184 HD
ENDROOT
BRANCH  10  12
HETATM   12  C   UNL     1       7.267  24.582  54.269  1.00  0.00     0.256 C 
HETATM   13  N   UNL     1       6.966  23.240  54.223  1.00  0.00    -0.323 N 
HETATM   14  H   UNL     1       6.191  22.940  53.649  1.00  0.00     0.169 HD
HETATM   15  O   UNL     1       8.137  25.121  54.944  1.00  0.00    -0.267 OA
BRANCH  13  16
HETATM   16  C   UNL     1       7.633  22.206  54.921  1.00  0.00     0.035 A 
HETATM   17  C   UNL     1       8.119  21.042  54.319  1.00  0.00     0.029 A 
HETATM   18  C   UNL     1       8.756  20.057  55.080  1.00  0.00     0.002 A 
HETATM   19  C   UNL     1       8.921  20.228  56.451  1.00  0.00     0.000 A 
HETATM   20  C   UNL     1       8.445  21.384  57.063  1.00  0.00     0.002 A 
HETATM   21  C   UNL     1       7.802  22.365  56.303  1.00  0.00     0.029 A 
ENDBRANCH  13  16
ENDBRANCH  10  12
BRANCH   1  22
HETATM   22  C   UNL     1       5.641  26.892  55.356  1.00  0.00     0.015 A 
HETATM   23  C   UNL     1       6.594  27.869  55.623  1.00  0.00     0.036 A 
HETATM   24  C   UNL     1       7.579  28.544  54.737  1.00  0.00     0.070 C 
HETATM   25  N   UNL     1       6.511  28.114  56.971  1.00  0.00    -0.278 N 
HETATM   26  C   UNL     1       7.288  29.054  57.747  1.00  0.00     0.179 C 
HETATM   27  N   UNL     1       5.601  27.352  57.595  1.00  0.00    -0.185 NA
HETATM   28  C   UNL     1       5.078  26.606  56.622  1.00  0.00     0.150 A 
ENDBRANCH   1  22
TORSDOF 3
ENDMDL
MODEL 7
REMARK VINA RESULT:      -7.4      8.160     11.668
REMARK  3 active torsions:
REMARK  status: ('A' for Active; 'I' for Inactive)
REMARK    1  A    between atoms: C_7  and  C_8 
REMARK    2  A    between atoms: C_17  and  C_18 
REMARK       I    between atoms: C_18  and  N_19 
REMARK    3  A    between atoms: N_19  and  C_20 
ROOT
HETATM    1  C   UNL     1       4.200  32.466  60.405  1.00  0.00     0.206 C 
HETATM    2  N   UNL     1       4.315  31.917  59.046  1.00  0.00    -0.084 N 
HETATM    3  C   UNL     1       5.488  31.453  58.512  1.00  0.00     0.725 A 
HETATM    4  N   UNL     1       5.265  30.953  57.325  1.00  0.00    -0.054 NA
HETATM    5  C   UNL     1       3.909  31.096  57.187  1.00  0.00     0.275 A 
HETATM    6  N   UNL     1       3.271  31.628  58.235  1.00  0.00    -0.149 NA
HETATM    7  N   UNL     1       6.623  31.555  59.226  1.00  0.00    -0.192 N 
HETATM    8  C   UNL     1       6.699  32.214  60.447  1.00  0.00     0.037 C 
HETATM    9  C   UNL     1       8.086  32.330  61.035  1.00  0.00     0.070 C 
HETATM   10  C   UNL     1       5.570  32.687  61.034  1.00  0.00     0.063 C 
HETATM   11  H   UNL     1       7.497  31.270  58.792  1.00  0.00     0.184 HD
ENDROOT
BRANCH  10  12
HETATM   12  C   UNL     1       5.688  33.531  62.254  1.00  0.00     0.256 C 
HETATM   13  N   UNL     1       5.449  32.863  63.433  1.00  0.00    -0.323 N 
HETATM   14  H   UNL     1       5.183  31.890  63.390  1.00  0.00     0.169 HD
HETATM   15  O   UNL     1       5.972  34.716  62.121  1.00  0.00    -0.267 OA
BRANCH  13  16
HETATM   16  C   UNL     1       5.521  33.410  64.736  1.00  0.00     0.035 A 
HETATM   17  C   UNL     1       4.407  33.810  65.480  1.00  0.00     0.029 A 
HETATM   18  C   UNL     1       4.561  34.355  66.759  1.00  0.00     0.002 A 
HETATM   19  C   UNL     1       5.830  34.501  67.310  1.00  0.00     0.000 A 
HETATM   20  C   UNL     1       6.948  34.104  66.582  1.00  0.00     0.002 A 
HETATM   21  C   UNL     1       6.794  33.565  65.301  1.00  0.00     0.029 A 
ENDBRANCH  13  16
ENDBRANCH  10  12
BRANCH   1  22
HETATM   22  C   UNL     1       3.285  33.663  60.418  1.00  0.00     0.015 A 
HETATM   23  C   UNL     1       3.328  34.775  59.584  1.00  0.00     0.036 A 
HETATM   24  C   UNL     1       4.275  35.150  58.501  1.00  0.00     0.070 C 
HETATM   25  N   UNL     1       2.285  35.576  59.974  1.00  0.00    -0.278 N 
HETATM   26  C   UNL     1       1.893  36.850  59.415  1.00  0.00     0.179 C 
HETATM   27  N   UNL     1       1.593  35.082  61.012  1.00  0.00    -0.185 NA
HETATM   28  C   UNL     1       2.201  33.928  61.287  1.00  0.00     0.150 A 
ENDBRANCH   1  22
TORSDOF 3
ENDMDL
MODEL 8
REMARK VINA RESULT:      -7.4      2.968      5.743
REMARK  3 active torsions:
REMARK  status: ('A' for Active; 'I' for Inactive)
REMARK    1  A    between atoms: C_7  and  C_8 
REMARK    2  A    between atoms: C_17  and  C_18 
REMARK       I    between atoms: C_18  and  N_19 
REMARK    3  A    between atoms: N_19  and  C_20 
ROOT
HETATM    1  C   UNL     1       5.166  29.462  51.439  1.00  0.00     0.206 C 
HETATM    2  N   UNL     1       4.627  30.831  51.405  1.00  0.00    -0.084 N 
HETATM    3  C   UNL     1       4.281  31.537  52.526  1.00  0.00     0.725 A 
HETATM    4  N   UNL     1       3.913  32.746  52.189  1.00  0.00    -0.054 NA
HETATM    5  C   UNL     1       4.093  32.749  50.832  1.00  0.00     0.275 A 
HETATM    6  N   UNL     1       4.583  31.620  50.307  1.00  0.00    -0.149 NA
HETATM    7  N   UNL     1       4.368  30.946  53.731  1.00  0.00    -0.192 N 
HETATM    8  C   UNL     1       4.686  29.604  53.901  1.00  0.00     0.037 C 
HETATM    9  C   UNL     1       4.611  29.096  55.322  1.00  0.00     0.070 C 
HETATM   10  C   UNL     1       5.049  28.852  52.830  1.00  0.00     0.063 C 
HETATM   11  H   UNL     1       4.043  31.458  54.547  1.00  0.00     0.184 HD
ENDROOT
BRANCH  10  12
HETATM   12  C   UNL     1       5.225  27.385  53.004  1.00  0.00     0.256 C 
HETATM   13  N   UNL     1       6.534  26.981  53.137  1.00  0.00    -0.323 N 
HETATM   14  H   UNL     1       7.261  27.678  53.075  1.00  0.00     0.169 HD
HETATM   15  O   UNL     1       4.228  26.672  53.005  1.00  0.00    -0.267 OA
BRANCH  13  16
HETATM   16  C   UNL     1       6.985  25.656  53.344  1.00  0.00     0.035 A 
HETATM   17  C   UNL     1       7.521  24.846  52.338  1.00  0.00     0.029 A 
HETATM   18  C   UNL     1       7.934  23.540  52.618  1.00  0.00     0.002 A 
HETATM   19  C   UNL     1       7.821  23.030  53.908  1.00  0.00     0.000 A 
HETATM   20  C   UNL     1       7.292  23.826  54.920  1.00  0.00     0.002 A 
HETATM   21  C   UNL     1       6.873  25.131  54.638  1.00  0.00     0.029 A 
ENDBRANCH  13  16
ENDBRANCH  10  12
BRANCH   1  22
HETATM   22  C   UNL     1       4.584  28.635  50.322  1.00  0.00     0.015 A 
HETATM   23  C   UNL     1       3.241  28.460  50.005  1.00  0.00     0.036 A 
HETATM   24  C   UNL     1       2.006  28.962  50.663  1.00  0.00     0.070 C 
HETATM   25  N   UNL     1       3.221  27.640  48.905  1.00  0.00    -0.278 N 
HETATM   26  C   UNL     1       2.065  27.161  48.182  1.00  0.00     0.179 C 
HETATM   27  N   UNL     1       4.442  27.250  48.509  1.00  0.00    -0.185 NA
HETATM   28  C   UNL     1       5.268  27.845  49.369  1.00  0.00     0.150 A 
ENDBRANCH   1  22
TORSDOF 3
ENDMDL
MODEL 9
REMARK VINA RESULT:      -7.3      3.459      6.169
REMARK  3 active torsions:
REMARK  status: ('A' for Active; 'I' for Inactive)
REMARK    1  A    between atoms: C_7  and  C_8 
REMARK    2  A    between atoms: C_17  and  C_18 
REMARK       I    between atoms: C_18  and  N_19 
REMARK    3  A    between atoms: N_19  and  C_20 
ROOT
HETATM    1  C   UNL     1       6.294  30.497  56.685  1.00  0.00     0.206 C 
HETATM    2  N   UNL     1       6.794  30.936  57.997  1.00  0.00    -0.084 N 
HETATM    3  C   UNL     1       7.668  30.206  58.758  1.00  0.00     0.725 A 
HETATM    4  N   UNL     1       7.995  30.884  59.826  1.00  0.00    -0.054 NA
HETATM    5  C   UNL     1       7.318  32.062  59.655  1.00  0.00     0.275 A 
HETATM    6  N   UNL     1       6.613  32.169  58.523  1.00  0.00    -0.149 NA
HETATM    7  N   UNL     1       8.054  28.990  58.334  1.00  0.00    -0.192 N 
HETATM    8  C   UNL     1       7.524  28.370  57.208  1.00  0.00     0.037 C 
HETATM    9  C   UNL     1       7.993  26.954  56.967  1.00  0.00     0.070 C 
HETATM   10  C   UNL     1       6.661  29.046  56.406  1.00  0.00     0.063 C 
HETATM   11  H   UNL     1       8.649  28.430  58.940  1.00  0.00     0.184 HD
ENDROOT
BRANCH  10  12
HETATM   12  C   UNL     1       5.979  28.317  55.303  1.00  0.00     0.256 C 
HETATM   13  N   UNL     1       6.518  28.536  54.056  1.00  0.00    -0.323 N 
HETATM   14  H   UNL     1       7.290  29.182  53.973  1.00  0.00     0.169 HD
HETATM   15  O   UNL     1       5.017  27.608  55.577  1.00  0.00    -0.267 OA
BRANCH  13  16
HETATM   16  C   UNL     1       6.089  27.951  52.842  1.00  0.00     0.035 A 
HETATM   17  C   UNL     1       5.400  28.643  51.841  1.00  0.00     0.029 A 
HETATM   18  C   UNL     1       4.996  27.991  50.671  1.00  0.00     0.002 A 
HETATM   19  C   UNL     1       5.282  26.642  50.487  1.00  0.00     0.000 A 
HETATM   20  C   UNL     1       5.969  25.942  51.474  1.00  0.00     0.002 A 
HETATM   21  C   UNL     1       6.367  26.592  52.646  1.00  0.00     0.029 A 
ENDBRANCH  13  16
ENDBRANCH  10  12
BRANCH   1  22
HETATM   22  C   UNL     1       4.832  30.832  56.537  1.00  0.00     0.015 A 
HETATM   23  C   UNL     1       4.245  31.684  55.608  1.00  0.00     0.036 A 
HETATM   24  C   UNL     1       4.843  32.540  54.550  1.00  0.00     0.070 C 
HETATM   25  N   UNL     1       2.897  31.645  55.864  1.00  0.00    -0.278 N 
HETATM   26  C   UNL     1       1.846  32.352  55.169  1.00  0.00     0.179 C 
HETATM   27  N   UNL     1       2.575  30.858  56.902  1.00  0.00    -0.185 NA
HETATM   28  C   UNL     1       3.744  30.371  57.316  1.00  0.00     0.150 A 
ENDBRANCH   1  22
TORSDOF 3
ENDMDL
MODEL 10
REMARK VINA RESULT:      -7.3      1.934      4.331
REMARK  3 active torsions:
REMARK  status: ('A' for Active; 'I' for Inactive)
REMARK    1  A    between atoms: C_7  and  C_8 
REMARK    2  A    between atoms: C_17  and  C_18 
REMARK       I    between atoms: C_18  and  N_19 
REMARK    3  A    between atoms: N_19  and  C_20 
ROOT
HETATM    1  C   UNL     1       5.758  28.610  52.756  1.00  0.00     0.206 C 
HETATM    2  N   UNL     1       4.639  29.481  53.146  1.00  0.00    -0.084 N 
HETATM    3  C   UNL     1       4.332  29.785  54.446  1.00  0.00     0.725 A 
HETATM    4  N   UNL     1       3.345  30.642  54.477  1.00  0.00    -0.054 NA
HETATM    5  C   UNL     1       3.101  30.870  53.148  1.00  0.00     0.275 A 
HETATM    6  N   UNL     1       3.903  30.229  52.291  1.00  0.00    -0.149 NA
HETATM    7  N   UNL     1       5.038  29.218  55.440  1.00  0.00    -0.192 N 
HETATM    8  C   UNL     1       6.002  28.239  55.229  1.00  0.00     0.037 C 
HETATM    9  C   UNL     1       6.595  27.634  56.479  1.00  0.00     0.070 C 
HETATM   10  C   UNL     1       6.359  27.901  53.963  1.00  0.00     0.063 C 
HETATM   11  H   UNL     1       4.756  29.399  56.400  1.00  0.00     0.184 HD
ENDROOT
BRANCH  10  12
HETATM   12  C   UNL     1       7.267  26.741  53.754  1.00  0.00     0.256 C 
HETATM   13  N   UNL     1       6.820  25.562  54.305  1.00  0.00    -0.323 N 
HETATM   14  H   UNL     1       5.954  25.572  54.826  1.00  0.00     0.169 HD
HETATM   15  O   UNL     1       8.311  26.919  53.137  1.00  0.00    -0.267 OA
BRANCH  13  16
HETATM   16  C   UNL     1       7.465  24.305  54.233  1.00  0.00     0.035 A 
HETATM   17  C   UNL     1       8.318  23.805  55.221  1.00  0.00     0.029 A 
HETATM   18  C   UNL     1       8.931  22.557  55.071  1.00  0.00     0.002 A 
HETATM   19  C   UNL     1       8.692  21.791  53.934  1.00  0.00     0.000 A 
HETATM   20  C   UNL     1       7.842  22.275  52.943  1.00  0.00     0.002 A 
HETATM   21  C   UNL     1       7.235  23.526  53.091  1.00  0.00     0.029 A 
ENDBRANCH  13  16
ENDBRANCH  10  12
BRANCH   1  22
HETATM   22  C   UNL     1       5.359  27.713  51.614  1.00  0.00     0.015 A 
HETATM   23  C   UNL     1       5.376  28.006  50.255  1.00  0.00     0.036 A 
HETATM   24  C   UNL     1       5.724  29.256  49.528  1.00  0.00     0.070 C 
HETATM   25  N   UNL     1       4.942  26.870  49.621  1.00  0.00    -0.278 N 
HETATM   26  C   UNL     1       4.786  26.656  48.200  1.00  0.00     0.179 C 
HETATM   27  N   UNL     1       4.619  25.879  50.466  1.00  0.00    -0.185 NA
HETATM   28  C   UNL     1       4.863  26.389  51.673  1.00  0.00     0.150 A 
ENDBRANCH   1  22
TORSDOF 3
ENDMDL
