MODEL 1
REMARK VINA RESULT:     -11.4      0.000      0.000
REMARK  6 active torsions:
REMARK  status: ('A' for Active; 'I' for Inactive)
REMARK    1  A    between atoms: C_2  and  N_3 
REMARK    2  A    between atoms: N_6  and  C_8 
REMARK    3  A    between atoms: C_8  and  C_9 
REMARK       I    between atoms: C_9  and  N_10 
REMARK       I    between atoms: N_10  and  C_11 
REMARK       I    between atoms: C_11  and  N_12 
REMARK    4  A    between atoms: N_12  and  C_13 
REMARK    5  A    between atoms: C_13  and  C_14 
REMARK    6  A    between atoms: C_14  and  C_15 
ROOT
HETATM    1  C   UNL     1       9.605  29.622  56.344  1.00  0.00     0.251 C 
HETATM    2  N   UNL     1       9.000  29.262  55.171  1.00  0.00    -0.278 N 
HETATM    3  C   UNL     1       7.952  28.383  55.059  1.00  0.00     0.322 C 
HETATM    4  N   UNL     1       7.707  28.016  53.764  1.00  0.00    -0.343 N 
HETATM    5  O   UNL     1       7.287  28.013  56.018  1.00  0.00    -0.247 OA
HETATM    6  O   UNL     1      10.728  30.136  56.343  1.00  0.00    -0.271 OA
HETATM    7  H   UNL     1       9.538  29.454  54.338  1.00  0.00     0.173 HD
HETATM    8  H   UNL     1       8.474  28.081  53.108  1.00  0.00     0.164 HD
ENDROOT
BRANCH   1   9
HETATM    9  C   UNL     1       8.897  29.346  57.680  1.00  0.00     0.337 C 
BRANCH   9  10
HETATM   10  N   UNL     1       8.600  30.660  58.409  1.00  0.00    -0.060 N 
HETATM   11  C   UNL     1       7.115  30.826  58.740  1.00  0.00     0.255 C 
HETATM   12  C   UNL     1       6.871  32.211  59.369  1.00  0.00     0.150 C 
HETATM   13  N   UNL     1       7.744  32.391  60.538  1.00  0.00    -0.378 N 
HETATM   14  C   UNL     1       9.186  32.226  60.306  1.00  0.00     0.150 C 
HETATM   15  C   UNL     1       9.466  30.856  59.644  1.00  0.00     0.255 C 
HETATM   16  H   UNL     1       8.824  31.406  57.731  1.00  0.00     0.280 HD
BRANCH  13  17
HETATM   17  C   UNL     1       7.239  32.637  61.801  1.00  0.00     0.030 A 
HETATM   18  C   UNL     1       8.070  32.682  62.936  1.00  0.00     0.032 A 
HETATM   19  C   UNL     1       7.560  32.942  64.212  1.00  0.00     0.044 A 
HETATM   20  C   UNL     1       6.201  33.159  64.375  1.00  0.00     0.116 A 
HETATM   21  C   UNL     1       5.348  33.116  63.286  1.00  0.00     0.044 A 
HETATM   22  F   UNL     1       5.710  33.409  65.595  1.00  0.00    -0.206 F 
HETATM   23  C   UNL     1       5.867  32.858  62.012  1.00  0.00     0.032 A 
ENDBRANCH  13  17
ENDBRANCH   9  10
ENDBRANCH   1   9
BRANCH   4  24
HETATM   24  C   UNL     1       6.748  26.954  53.481  1.00  0.00     0.129 C 
BRANCH  24  25
HETATM   25  C   UNL     1       7.397  25.627  53.078  1.00  0.00     0.060 C 
BRANCH  25  26
HETATM   26  C   UNL     1       7.428  24.573  54.151  1.00  0.00    -0.029 A 
HETATM   27  C   UNL     1       7.687  23.164  54.029  1.00  0.00     0.001 A 
HETATM   28  C   UNL     1       7.567  22.606  55.306  1.00  0.00     0.043 A 
HETATM   29  C   UNL     1       7.994  22.301  52.958  1.00  0.00     0.056 A 
HETATM   30  C   UNL     1       7.723  21.237  55.562  1.00  0.00     0.033 A 
HETATM   31  N   UNL     1       7.304  23.636  56.178  1.00  0.00    -0.365 N 
HETATM   32  C   UNL     1       8.004  20.403  54.478  1.00  0.00     0.044 A 
HETATM   33  C   UNL     1       8.138  20.935  53.204  1.00  0.00     0.117 A 
HETATM   34  F   UNL     1       8.400  20.115  52.176  1.00  0.00    -0.206 F 
HETATM   35  H   UNL     1       7.204  23.531  57.179  1.00  0.00     0.165 HD
HETATM   36  C   UNL     1       7.201  24.815  55.494  1.00  0.00     0.096 A 
ENDBRANCH  25  26
ENDBRANCH  24  25
ENDBRANCH   4  24
TORSDOF 6
ENDMDL
MODEL 2
REMARK VINA RESULT:     -10.9      1.820     12.067
REMARK  6 active torsions:
REMARK  status: ('A' for Active; 'I' for Inactive)
REMARK    1  A    between atoms: C_2  and  N_3 
REMARK    2  A    between atoms: N_6  and  C_8 
REMARK    3  A    between atoms: C_8  and  C_9 
REMARK       I    between atoms: C_9  and  N_10 
REMARK       I    between atoms: N_10  and  C_11 
REMARK       I    between atoms: C_11  and  N_12 
REMARK    4  A    between atoms: N_12  and  C_13 
REMARK    5  A    between atoms: C_13  and  C_14 
REMARK    6  A    between atoms: C_14  and  C_15 
ROOT
HETATM    1  C   UNL     1       6.707  29.783  56.846  1.00  0.00     0.251 C 
HETATM    2  N   UNL     1       6.834  30.620  57.921  1.00  0.00    -0.278 N 
HETATM    3  C   UNL     1       7.628  30.386  59.016  1.00  0.00     0.322 C 
HETATM    4  N   UNL     1       7.379  31.253  60.044  1.00  0.00    -0.343 N 
HETATM    5  O   UNL     1       8.495  29.521  59.038  1.00  0.00    -0.247 OA
HETATM    6  O   UNL     1       5.747  29.885  56.077  1.00  0.00    -0.271 OA
HETATM    7  H   UNL     1       6.097  31.303  58.018  1.00  0.00     0.173 HD
HETATM    8  H   UNL     1       6.463  31.683  60.080  1.00  0.00     0.164 HD
ENDROOT
BRANCH   1   9
HETATM    9  C   UNL     1       7.752  28.679  56.616  1.00  0.00     0.337 C 
BRANCH   9  10
HETATM   10  N   UNL     1       7.062  27.340  56.335  1.00  0.00    -0.060 N 
HETATM   11  C   UNL     1       6.968  27.030  54.840  1.00  0.00     0.255 C 
HETATM   12  C   UNL     1       6.169  25.731  54.625  1.00  0.00     0.150 C 
HETATM   13  N   UNL     1       6.771  24.638  55.402  1.00  0.00    -0.378 N 
HETATM   14  C   UNL     1       6.916  24.869  56.847  1.00  0.00     0.150 C 
HETATM   15  C   UNL     1       7.688  26.185  57.101  1.00  0.00     0.255 C 
HETATM   16  H   UNL     1       6.090  27.460  56.661  1.00  0.00     0.280 HD
BRANCH  13  17
HETATM   17  C   UNL     1       7.237  23.481  54.806  1.00  0.00     0.030 A 
HETATM   18  C   UNL     1       7.449  23.395  53.418  1.00  0.00     0.032 A 
HETATM   19  C   UNL     1       7.931  22.227  52.817  1.00  0.00     0.044 A 
HETATM   20  C   UNL     1       8.205  21.118  53.600  1.00  0.00     0.116 A 
HETATM   21  C   UNL     1       8.003  21.157  54.969  1.00  0.00     0.044 A 
HETATM   22  F   UNL     1       8.667  19.999  53.027  1.00  0.00    -0.206 F 
HETATM   23  C   UNL     1       7.524  22.331  55.562  1.00  0.00     0.032 A 
ENDBRANCH  13  17
ENDBRANCH   9  10
ENDBRANCH   1   9
BRANCH   4  24
HETATM   24  C   UNL     1       8.004  31.036  61.343  1.00  0.00     0.129 C 
BRANCH  24  25
HETATM   25  C   UNL     1       8.017  32.279  62.238  1.00  0.00     0.060 C 
BRANCH  25  26
HETATM   26  C   UNL     1       6.707  32.608  62.903  1.00  0.00    -0.029 A 
HETATM   27  C   UNL     1       6.468  33.169  64.204  1.00  0.00     0.001 A 
HETATM   28  C   UNL     1       5.082  33.252  64.374  1.00  0.00     0.043 A 
HETATM   29  C   UNL     1       7.290  33.600  65.265  1.00  0.00     0.056 A 
HETATM   30  C   UNL     1       4.482  33.725  65.549  1.00  0.00     0.033 A 
HETATM   31  N   UNL     1       4.502  32.815  63.208  1.00  0.00    -0.365 N 
HETATM   32  C   UNL     1       5.321  34.123  66.591  1.00  0.00     0.044 A 
HETATM   33  C   UNL     1       6.698  34.060  66.442  1.00  0.00     0.117 A 
HETATM   34  F   UNL     1       7.485  34.440  67.458  1.00  0.00    -0.206 F 
HETATM   35  H   UNL     1       3.505  32.800  63.032  1.00  0.00     0.165 HD
HETATM   36  C   UNL     1       5.465  32.410  62.326  1.00  0.00     0.096 A 
ENDBRANCH  25  26
ENDBRANCH  24  25
ENDBRANCH   4  24
TORSDOF 6
ENDMDL
MODEL 3
REMARK VINA RESULT:     -10.7      1.992      2.176
REMARK  6 active torsions:
REMARK  status: ('A' for Active; 'I' for Inactive)
REMARK    1  A    between atoms: C_2  and  N_3 
REMARK    2  A    between atoms: N_6  and  C_8 
REMARK    3  A    between atoms: C_8  and  C_9 
REMARK       I    between atoms: C_9  and  N_10 
REMARK       I    between atoms: N_10  and  C_11 
REMARK       I    between atoms: C_11  and  N_12 
REMARK    4  A    between atoms: N_12  and  C_13 
REMARK    5  A    between atoms: C_13  and  C_14 
REMARK    6  A    between atoms: C_14  and  C_15 
ROOT
HETATM    1  C   UNL     1       5.168  29.891  55.967  1.00  0.00     0.251 C 
HETATM    2  N   UNL     1       4.886  28.848  55.127  1.00  0.00    -0.278 N 
HETATM    3  C   UNL     1       5.159  27.528  55.385  1.00  0.00     0.322 C 
HETATM    4  N   UNL     1       5.004  26.731  54.285  1.00  0.00    -0.343 N 
HETATM    5  O   UNL     1       5.462  27.116  56.498  1.00  0.00    -0.247 OA
HETATM    6  O   UNL     1       5.208  31.050  55.542  1.00  0.00    -0.271 OA
HETATM    7  H   UNL     1       4.718  29.109  54.166  1.00  0.00     0.173 HD
HETATM    8  H   UNL     1       5.092  27.168  53.376  1.00  0.00     0.164 HD
ENDROOT
BRANCH   1   9
HETATM    9  C   UNL     1       5.477  29.612  57.446  1.00  0.00     0.337 C 
BRANCH   9  10
HETATM   10  N   UNL     1       6.019  30.873  58.127  1.00  0.00    -0.060 N 
HETATM   11  C   UNL     1       4.961  31.587  58.970  1.00  0.00     0.255 C 
HETATM   12  C   UNL     1       5.538  32.899  59.532  1.00  0.00     0.150 C 
HETATM   13  N   UNL     1       6.776  32.624  60.276  1.00  0.00    -0.378 N 
HETATM   14  C   UNL     1       7.836  31.920  59.539  1.00  0.00     0.150 C 
HETATM   15  C   UNL     1       7.282  30.609  58.932  1.00  0.00     0.255 C 
HETATM   16  H   UNL     1       6.251  31.520  57.357  1.00  0.00     0.280 HD
BRANCH  13  17
HETATM   17  C   UNL     1       6.919  32.948  61.612  1.00  0.00     0.030 A 
HETATM   18  C   UNL     1       7.906  32.353  62.418  1.00  0.00     0.032 A 
HETATM   19  C   UNL     1       8.057  32.690  63.768  1.00  0.00     0.044 A 
HETATM   20  C   UNL     1       7.213  33.629  64.337  1.00  0.00     0.116 A 
HETATM   21  C   UNL     1       6.222  34.233  63.581  1.00  0.00     0.044 A 
HETATM   22  F   UNL     1       7.355  33.954  65.628  1.00  0.00    -0.206 F 
HETATM   23  C   UNL     1       6.081  33.893  62.230  1.00  0.00     0.032 A 
ENDBRANCH  13  17
ENDBRANCH   9  10
ENDBRANCH   1   9
BRANCH   4  24
HETATM   24  C   UNL     1       5.423  25.336  54.335  1.00  0.00     0.129 C 
BRANCH  24  25
HETATM   25  C   UNL     1       6.940  25.143  54.245  1.00  0.00     0.060 C 
BRANCH  25  26
HETATM   26  C   UNL     1       7.504  24.049  55.110  1.00  0.00    -0.029 A 
HETATM   27  C   UNL     1       7.906  22.719  54.742  1.00  0.00     0.001 A 
HETATM   28  C   UNL     1       8.330  22.074  55.908  1.00  0.00     0.043 A 
HETATM   29  C   UNL     1       7.936  21.990  53.536  1.00  0.00     0.056 A 
HETATM   30  C   UNL     1       8.765  20.742  55.931  1.00  0.00     0.033 A 
HETATM   31  N   UNL     1       8.246  22.986  56.932  1.00  0.00    -0.365 N 
HETATM   32  C   UNL     1       8.762  20.038  54.725  1.00  0.00     0.044 A 
HETATM   33  C   UNL     1       8.356  20.659  53.554  1.00  0.00     0.117 A 
HETATM   34  F   UNL     1       8.354  19.963  52.409  1.00  0.00    -0.206 F 
HETATM   35  H   UNL     1       8.524  22.805  57.888  1.00  0.00     0.165 HD
HETATM   36  C   UNL     1       7.735  24.166  56.469  1.00  0.00     0.096 A 
ENDBRANCH  25  26
ENDBRANCH  24  25
ENDBRANCH   4  24
TORSDOF 6
ENDMDL
MODEL 4
REMARK VINA RESULT:     -10.6      2.425     12.452
REMARK  6 active torsions:
REMARK  status: ('A' for Active; 'I' for Inactive)
REMARK    1  A    between atoms: C_2  and  N_3 
REMARK    2  A    between atoms: N_6  and  C_8 
REMARK    3  A    between atoms: C_8  and  C_9 
REMARK       I    between atoms: C_9  and  N_10 
REMARK       I    between atoms: N_10  and  C_11 
REMARK       I    between atoms: C_11  and  N_12 
REMARK    4  A    between atoms: N_12  and  C_13 
REMARK    5  A    between atoms: C_13  and  C_14 
REMARK    6  A    between atoms: C_14  and  C_15 
ROOT
HETATM    1  C   UNL     1       6.789  31.122  58.153  1.00  0.00     0.251 C 
HETATM    2  N   UNL     1       7.009  31.860  59.284  1.00  0.00    -0.278 N 
HETATM    3  C   UNL     1       7.644  31.406  60.413  1.00  0.00     0.322 C 
HETATM    4  N   UNL     1       7.508  32.259  61.475  1.00  0.00    -0.343 N 
HETATM    5  O   UNL     1       8.298  30.371  60.439  1.00  0.00    -0.247 OA
HETATM    6  O   UNL     1       5.937  31.469  57.329  1.00  0.00    -0.271 OA
HETATM    7  H   UNL     1       6.431  32.684  59.374  1.00  0.00     0.173 HD
HETATM    8  H   UNL     1       6.707  32.878  61.476  1.00  0.00     0.164 HD
ENDROOT
BRANCH   1   9
HETATM    9  C   UNL     1       7.584  29.827  57.925  1.00  0.00     0.337 C 
BRANCH   9  10
HETATM   10  N   UNL     1       7.078  29.102  56.674  1.00  0.00    -0.060 N 
HETATM   11  C   UNL     1       8.194  28.823  55.665  1.00  0.00     0.255 C 
HETATM   12  C   UNL     1       7.600  28.195  54.390  1.00  0.00     0.150 C 
HETATM   13  N   UNL     1       6.824  26.995  54.736  1.00  0.00    -0.378 N 
HETATM   14  C   UNL     1       5.745  27.178  55.717  1.00  0.00     0.150 C 
HETATM   15  C   UNL     1       6.301  27.836  57.003  1.00  0.00     0.255 C 
HETATM   16  H   UNL     1       6.439  29.768  56.212  1.00  0.00     0.280 HD
BRANCH  13  17
HETATM   17  C   UNL     1       7.128  25.749  54.220  1.00  0.00     0.030 A 
HETATM   18  C   UNL     1       7.637  25.589  52.919  1.00  0.00     0.032 A 
HETATM   19  C   UNL     1       7.955  24.328  52.402  1.00  0.00     0.044 A 
HETATM   20  C   UNL     1       7.761  23.200  53.182  1.00  0.00     0.116 A 
HETATM   21  C   UNL     1       7.255  23.313  54.466  1.00  0.00     0.044 A 
HETATM   22  F   UNL     1       8.065  21.992  52.691  1.00  0.00    -0.206 F 
HETATM   23  C   UNL     1       6.943  24.578  54.977  1.00  0.00     0.032 A 
ENDBRANCH  13  17
ENDBRANCH   9  10
ENDBRANCH   1   9
BRANCH   4  24
HETATM   24  C   UNL     1       7.967  31.849  62.797  1.00  0.00     0.129 C 
BRANCH  24  25
HETATM   25  C   UNL     1       7.960  32.979  63.830  1.00  0.00     0.060 C 
BRANCH  25  26
HETATM   26  C   UNL     1       6.633  33.243  64.488  1.00  0.00    -0.029 A 
HETATM   27  C   UNL     1       6.360  33.746  65.806  1.00  0.00     0.001 A 
HETATM   28  C   UNL     1       4.970  33.781  65.960  1.00  0.00     0.043 A 
HETATM   29  C   UNL     1       7.154  34.160  66.894  1.00  0.00     0.056 A 
HETATM   30  C   UNL     1       4.340  34.191  67.143  1.00  0.00     0.033 A 
HETATM   31  N   UNL     1       4.419  33.372  64.769  1.00  0.00    -0.365 N 
HETATM   32  C   UNL     1       5.153  34.573  68.211  1.00  0.00     0.044 A 
HETATM   33  C   UNL     1       6.533  34.558  68.079  1.00  0.00     0.117 A 
HETATM   34  F   UNL     1       7.295  34.922  69.120  1.00  0.00    -0.206 F 
HETATM   35  H   UNL     1       3.426  33.333  64.579  1.00  0.00     0.165 HD
HETATM   36  C   UNL     1       5.406  33.030  63.887  1.00  0.00     0.096 A 
ENDBRANCH  25  26
ENDBRANCH  24  25
ENDBRANCH   4  24
TORSDOF 6
ENDMDL
MODEL 5
REMARK VINA RESULT:     -10.3      2.149      3.318
REMARK  6 active torsions:
REMARK  status: ('A' for Active; 'I' for Inactive)
REMARK    1  A    between atoms: C_2  and  N_3 
REMARK    2  A    between atoms: N_6  and  C_8 
REMARK    3  A    between atoms: C_8  and  C_9 
REMARK       I    between atoms: C_9  and  N_10 
REMARK       I    between atoms: N_10  and  C_11 
REMARK       I    between atoms: C_11  and  N_12 
REMARK    4  A    between atoms: N_12  and  C_13 
REMARK    5  A    between atoms: C_13  and  C_14 
REMARK    6  A    between atoms: C_14  and  C_15 
ROOT
HETATM    1  C   UNL     1       5.773  31.315  57.782  1.00  0.00     0.251 C 
HETATM    2  N   UNL     1       5.749  29.977  57.499  1.00  0.00    -0.278 N 
HETATM    3  C   UNL     1       6.767  29.094  57.763  1.00  0.00     0.322 C 
HETATM    4  N   UNL     1       6.585  27.881  57.158  1.00  0.00    -0.343 N 
HETATM    5  O   UNL     1       7.706  29.363  58.501  1.00  0.00    -0.247 OA
HETATM    6  O   UNL     1       4.989  32.092  57.226  1.00  0.00    -0.271 OA
HETATM    7  H   UNL     1       5.055  29.697  56.820  1.00  0.00     0.173 HD
HETATM    8  H   UNL     1       6.003  27.856  56.330  1.00  0.00     0.164 HD
ENDROOT
BRANCH   1   9
HETATM    9  C   UNL     1       6.811  31.864  58.773  1.00  0.00     0.337 C 
BRANCH   9  10
HETATM   10  N   UNL     1       6.382  31.571  60.214  1.00  0.00    -0.060 N 
HETATM   11  C   UNL     1       7.535  31.710  61.211  1.00  0.00     0.255 C 
HETATM   12  C   UNL     1       7.063  31.296  62.617  1.00  0.00     0.150 C 
HETATM   13  N   UNL     1       5.877  32.076  62.998  1.00  0.00    -0.378 N 
HETATM   14  C   UNL     1       4.731  32.011  62.078  1.00  0.00     0.150 C 
HETATM   15  C   UNL     1       5.176  32.392  60.646  1.00  0.00     0.255 C 
HETATM   16  H   UNL     1       6.119  30.573  60.224  1.00  0.00     0.280 HD
BRANCH  13  17
HETATM   17  C   UNL     1       5.855  32.880  64.123  1.00  0.00     0.030 A 
HETATM   18  C   UNL     1       4.657  33.420  64.625  1.00  0.00     0.032 A 
HETATM   19  C   UNL     1       4.635  34.224  65.770  1.00  0.00     0.044 A 
HETATM   20  C   UNL     1       5.819  34.506  66.431  1.00  0.00     0.116 A 
HETATM   21  C   UNL     1       7.021  34.001  65.965  1.00  0.00     0.044 A 
HETATM   22  F   UNL     1       5.801  35.275  67.527  1.00  0.00    -0.206 F 
HETATM   23  C   UNL     1       7.034  33.195  64.821  1.00  0.00     0.032 A 
ENDBRANCH  13  17
ENDBRANCH   9  10
ENDBRANCH   1   9
BRANCH   4  24
HETATM   24  C   UNL     1       7.653  26.890  57.186  1.00  0.00     0.129 C 
BRANCH  24  25
HETATM   25  C   UNL     1       7.152  25.443  57.224  1.00  0.00     0.060 C 
BRANCH  25  26
HETATM   26  C   UNL     1       7.053  24.759  55.887  1.00  0.00    -0.029 A 
HETATM   27  C   UNL     1       7.669  23.539  55.446  1.00  0.00     0.001 A 
HETATM   28  C   UNL     1       7.299  23.343  54.112  1.00  0.00     0.043 A 
HETATM   29  C   UNL     1       8.522  22.586  56.041  1.00  0.00     0.056 A 
HETATM   30  C   UNL     1       7.747  22.259  53.344  1.00  0.00     0.033 A 
HETATM   31  N   UNL     1       6.449  24.366  53.770  1.00  0.00    -0.365 N 
HETATM   32  C   UNL     1       8.608  21.345  53.953  1.00  0.00     0.044 A 
HETATM   33  C   UNL     1       8.981  21.512  55.278  1.00  0.00     0.117 A 
HETATM   34  F   UNL     1       9.815  20.626  55.841  1.00  0.00    -0.206 F 
HETATM   35  H   UNL     1       5.994  24.461  52.871  1.00  0.00     0.165 HD
HETATM   36  C   UNL     1       6.309  25.231  54.821  1.00  0.00     0.096 A 
ENDBRANCH  25  26
ENDBRANCH  24  25
ENDBRANCH   4  24
TORSDOF 6
ENDMDL
MODEL 6
REMARK VINA RESULT:     -10.2      1.915      2.889
REMARK  6 active torsions:
REMARK  status: ('A' for Active; 'I' for Inactive)
REMARK    1  A    between atoms: C_2  and  N_3 
REMARK    2  A    between atoms: N_6  and  C_8 
REMARK    3  A    between atoms: C_8  and  C_9 
REMARK       I    between atoms: C_9  and  N_10 
REMARK       I    between atoms: N_10  and  C_11 
REMARK       I    between atoms: C_11  and  N_12 
REMARK    4  A    between atoms: N_12  and  C_13 
REMARK    5  A    between atoms: C_13  and  C_14 
REMARK    6  A    between atoms: C_14  and  C_15 
ROOT
HETATM    1  C   UNL     1       8.959  31.028  58.877  1.00  0.00     0.251 C 
HETATM    2  N   UNL     1       8.953  30.240  57.757  1.00  0.00    -0.278 N 
HETATM    3  C   UNL     1       8.381  28.996  57.669  1.00  0.00     0.322 C 
HETATM    4  N   UNL     1       8.734  28.332  56.526  1.00  0.00    -0.343 N 
HETATM    5  O   UNL     1       7.602  28.560  58.508  1.00  0.00    -0.247 OA
HETATM    6  O   UNL     1       9.761  31.960  58.988  1.00  0.00    -0.271 OA
HETATM    7  H   UNL     1       9.640  30.487  57.060  1.00  0.00     0.173 HD
HETATM    8  H   UNL     1       9.606  28.596  56.084  1.00  0.00     0.164 HD
ENDROOT
BRANCH   1   9
HETATM    9  C   UNL     1       7.981  30.725  60.023  1.00  0.00     0.337 C 
BRANCH   9  10
HETATM   10  N   UNL     1       7.944  31.890  61.017  1.00  0.00    -0.060 N 
HETATM   11  C   UNL     1       6.601  32.623  61.014  1.00  0.00     0.255 C 
HETATM   12  C   UNL     1       6.670  33.844  61.949  1.00  0.00     0.150 C 
HETATM   13  N   UNL     1       7.092  33.424  63.292  1.00  0.00    -0.378 N 
HETATM   14  C   UNL     1       8.366  32.694  63.376  1.00  0.00     0.150 C 
HETATM   15  C   UNL     1       8.344  31.475  62.424  1.00  0.00     0.255 C 
HETATM   16  H   UNL     1       8.638  32.570  60.667  1.00  0.00     0.280 HD
BRANCH  13  17
HETATM   17  C   UNL     1       6.310  33.643  64.411  1.00  0.00     0.030 A 
HETATM   18  C   UNL     1       6.875  33.831  65.685  1.00  0.00     0.032 A 
HETATM   19  C   UNL     1       6.083  34.063  66.815  1.00  0.00     0.044 A 
HETATM   20  C   UNL     1       4.704  34.105  66.688  1.00  0.00     0.116 A 
HETATM   21  C   UNL     1       4.107  33.916  65.453  1.00  0.00     0.044 A 
HETATM   22  F   UNL     1       3.943  34.327  67.767  1.00  0.00    -0.206 F 
HETATM   23  C   UNL     1       4.907  33.688  64.327  1.00  0.00     0.032 A 
ENDBRANCH  13  17
ENDBRANCH   9  10
ENDBRANCH   1   9
BRANCH   4  24
HETATM   24  C   UNL     1       8.361  26.933  56.356  1.00  0.00     0.129 C 
BRANCH  24  25
HETATM   25  C   UNL     1       7.222  26.715  55.357  1.00  0.00     0.060 C 
BRANCH  25  26
HETATM   26  C   UNL     1       7.482  25.677  54.299  1.00  0.00    -0.029 A 
HETATM   27  C   UNL     1       7.566  24.249  54.432  1.00  0.00     0.001 A 
HETATM   28  C   UNL     1       7.860  23.728  53.168  1.00  0.00     0.043 A 
HETATM   29  C   UNL     1       7.440  23.343  55.505  1.00  0.00     0.056 A 
HETATM   30  C   UNL     1       8.047  22.360  52.927  1.00  0.00     0.033 A 
HETATM   31  N   UNL     1       7.897  24.785  52.291  1.00  0.00    -0.365 N 
HETATM   32  C   UNL     1       7.939  21.490  54.013  1.00  0.00     0.044 A 
HETATM   33  C   UNL     1       7.637  21.981  55.275  1.00  0.00     0.117 A 
HETATM   34  F   UNL     1       7.546  21.129  56.305  1.00  0.00    -0.206 F 
HETATM   35  H   UNL     1       8.053  24.701  51.294  1.00  0.00     0.165 HD
HETATM   36  C   UNL     1       7.690  25.959  52.961  1.00  0.00     0.096 A 
ENDBRANCH  25  26
ENDBRANCH  24  25
ENDBRANCH   4  24
TORSDOF 6
ENDMDL
MODEL 7
REMARK VINA RESULT:     -10.2      1.938     11.296
REMARK  6 active torsions:
REMARK  status: ('A' for Active; 'I' for Inactive)
REMARK    1  A    between atoms: C_2  and  N_3 
REMARK    2  A    between atoms: N_6  and  C_8 
REMARK    3  A    between atoms: C_8  and  C_9 
REMARK       I    between atoms: C_9  and  N_10 
REMARK       I    between atoms: N_10  and  C_11 
REMARK       I    between atoms: C_11  and  N_12 
REMARK    4  A    between atoms: N_12  and  C_13 
REMARK    5  A    between atoms: C_13  and  C_14 
REMARK    6  A    between atoms: C_14  and  C_15 
ROOT
HETATM    1  C   UNL     1       8.216  29.328  57.544  1.00  0.00     0.251 C 
HETATM    2  N   UNL     1       7.302  29.868  58.408  1.00  0.00    -0.278 N 
HETATM    3  C   UNL     1       6.168  30.546  58.037  1.00  0.00     0.322 C 
HETATM    4  N   UNL     1       5.569  31.188  59.085  1.00  0.00    -0.343 N 
HETATM    5  O   UNL     1       5.725  30.529  56.895  1.00  0.00    -0.247 OA
HETATM    6  O   UNL     1       9.353  29.039  57.929  1.00  0.00    -0.271 OA
HETATM    7  H   UNL     1       7.634  29.999  59.352  1.00  0.00     0.173 HD
HETATM    8  H   UNL     1       6.152  31.434  59.876  1.00  0.00     0.164 HD
ENDROOT
BRANCH   1   9
HETATM    9  C   UNL     1       7.836  29.116  56.070  1.00  0.00     0.337 C 
BRANCH   9  10
HETATM   10  N   UNL     1       7.102  27.783  55.893  1.00  0.00    -0.060 N 
HETATM   11  C   UNL     1       7.040  27.336  54.431  1.00  0.00     0.255 C 
HETATM   12  C   UNL     1       6.197  26.053  54.312  1.00  0.00     0.150 C 
HETATM   13  N   UNL     1       6.731  25.017  55.208  1.00  0.00    -0.378 N 
HETATM   14  C   UNL     1       6.841  25.379  56.629  1.00  0.00     0.150 C 
HETATM   15  C   UNL     1       7.658  26.683  56.785  1.00  0.00     0.255 C 
HETATM   16  H   UNL     1       6.126  27.970  56.174  1.00  0.00     0.280 HD
BRANCH  13  17
HETATM   17  C   UNL     1       7.168  23.792  54.739  1.00  0.00     0.030 A 
HETATM   18  C   UNL     1       7.380  23.556  53.369  1.00  0.00     0.032 A 
HETATM   19  C   UNL     1       7.833  22.320  52.896  1.00  0.00     0.044 A 
HETATM   20  C   UNL     1       8.076  21.292  53.792  1.00  0.00     0.116 A 
HETATM   21  C   UNL     1       7.872  21.480  55.148  1.00  0.00     0.044 A 
HETATM   22  F   UNL     1       8.510  20.108  53.343  1.00  0.00    -0.206 F 
HETATM   23  C   UNL     1       7.423  22.721  55.613  1.00  0.00     0.032 A 
ENDBRANCH  13  17
ENDBRANCH   9  10
ENDBRANCH   1   9
BRANCH   4  24
HETATM   24  C   UNL     1       4.458  32.100  58.838  1.00  0.00     0.129 C 
BRANCH  24  25
HETATM   25  C   UNL     1       4.611  33.460  59.524  1.00  0.00     0.060 C 
BRANCH  25  26
HETATM   26  C   UNL     1       4.375  33.463  61.010  1.00  0.00    -0.029 A 
HETATM   27  C   UNL     1       5.330  33.360  62.079  1.00  0.00     0.001 A 
HETATM   28  C   UNL     1       4.615  33.375  63.281  1.00  0.00     0.043 A 
HETATM   29  C   UNL     1       6.733  33.238  62.148  1.00  0.00     0.056 A 
HETATM   30  C   UNL     1       5.225  33.259  64.537  1.00  0.00     0.033 A 
HETATM   31  N   UNL     1       3.288  33.538  62.963  1.00  0.00    -0.365 N 
HETATM   32  C   UNL     1       6.613  33.116  64.573  1.00  0.00     0.044 A 
HETATM   33  C   UNL     1       7.345  33.109  63.395  1.00  0.00     0.117 A 
HETATM   34  F   UNL     1       8.677  32.963  63.452  1.00  0.00    -0.206 F 
HETATM   35  H   UNL     1       2.540  33.620  63.640  1.00  0.00     0.165 HD
HETATM   36  C   UNL     1       3.131  33.573  61.605  1.00  0.00     0.096 A 
ENDBRANCH  25  26
ENDBRANCH  24  25
ENDBRANCH   4  24
TORSDOF 6
ENDMDL
MODEL 8
REMARK VINA RESULT:     -10.1      2.039     11.653
REMARK  6 active torsions:
REMARK  status: ('A' for Active; 'I' for Inactive)
REMARK    1  A    between atoms: C_2  and  N_3 
REMARK    2  A    between atoms: N_6  and  C_8 
REMARK    3  A    between atoms: C_8  and  C_9 
REMARK       I    between atoms: C_9  and  N_10 
REMARK       I    between atoms: N_10  and  C_11 
REMARK       I    between atoms: C_11  and  N_12 
REMARK    4  A    between atoms: N_12  and  C_13 
REMARK    5  A    between atoms: C_13  and  C_14 
REMARK    6  A    between atoms: C_14  and  C_15 
ROOT
HETATM    1  C   UNL     1       6.484  29.690  57.228  1.00  0.00     0.251 C 
HETATM    2  N   UNL     1       6.679  30.572  58.255  1.00  0.00    -0.278 N 
HETATM    3  C   UNL     1       7.586  30.411  59.274  1.00  0.00     0.322 C 
HETATM    4  N   UNL     1       7.402  31.306  60.291  1.00  0.00    -0.343 N 
HETATM    5  O   UNL     1       8.486  29.581  59.239  1.00  0.00    -0.247 OA
HETATM    6  O   UNL     1       5.449  29.726  56.554  1.00  0.00    -0.271 OA
HETATM    7  H   UNL     1       5.927  31.229  58.401  1.00  0.00     0.173 HD
HETATM    8  H   UNL     1       6.477  31.702  60.403  1.00  0.00     0.164 HD
ENDROOT
BRANCH   1   9
HETATM    9  C   UNL     1       7.546  28.619  56.933  1.00  0.00     0.337 C 
BRANCH   9  10
HETATM   10  N   UNL     1       6.879  27.304  56.516  1.00  0.00    -0.060 N 
HETATM   11  C   UNL     1       6.961  27.057  55.008  1.00  0.00     0.255 C 
HETATM   12  C   UNL     1       6.179  25.781  54.644  1.00  0.00     0.150 C 
HETATM   13  N   UNL     1       6.670  24.648  55.441  1.00  0.00    -0.378 N 
HETATM   14  C   UNL     1       6.643  24.817  56.901  1.00  0.00     0.150 C 
HETATM   15  C   UNL     1       7.395  26.108  57.301  1.00  0.00     0.255 C 
HETATM   16  H   UNL     1       5.876  27.427  56.728  1.00  0.00     0.280 HD
BRANCH  13  17
HETATM   17  C   UNL     1       7.190  23.508  54.855  1.00  0.00     0.030 A 
HETATM   18  C   UNL     1       7.516  22.369  55.612  1.00  0.00     0.032 A 
HETATM   19  C   UNL     1       8.032  21.212  55.018  1.00  0.00     0.044 A 
HETATM   20  C   UNL     1       8.236  21.180  53.648  1.00  0.00     0.116 A 
HETATM   21  C   UNL     1       7.935  22.282  52.867  1.00  0.00     0.044 A 
HETATM   22  F   UNL     1       8.729  20.074  53.076  1.00  0.00    -0.206 F 
HETATM   23  C   UNL     1       7.416  23.434  53.470  1.00  0.00     0.032 A 
ENDBRANCH  13  17
ENDBRANCH   9  10
ENDBRANCH   1   9
BRANCH   4  24
HETATM   24  C   UNL     1       8.159  31.163  61.529  1.00  0.00     0.129 C 
BRANCH  24  25
HETATM   25  C   UNL     1       8.432  32.491  62.242  1.00  0.00     0.060 C 
BRANCH  25  26
HETATM   26  C   UNL     1       7.367  32.934  63.208  1.00  0.00    -0.029 A 
HETATM   27  C   UNL     1       5.989  33.252  62.954  1.00  0.00     0.001 A 
HETATM   28  C   UNL     1       5.420  33.646  64.169  1.00  0.00     0.043 A 
HETATM   29  C   UNL     1       5.168  33.262  61.808  1.00  0.00     0.056 A 
HETATM   30  C   UNL     1       4.087  34.061  64.293  1.00  0.00     0.033 A 
HETATM   31  N   UNL     1       6.391  33.519  65.133  1.00  0.00    -0.365 N 
HETATM   32  C   UNL     1       3.305  34.083  63.136  1.00  0.00     0.044 A 
HETATM   33  C   UNL     1       3.843  33.686  61.921  1.00  0.00     0.117 A 
HETATM   34  F   UNL     1       3.077  33.722  60.822  1.00  0.00    -0.206 F 
HETATM   35  H   UNL     1       6.251  33.702  66.119  1.00  0.00     0.165 HD
HETATM   36  C   UNL     1       7.566  33.111  64.566  1.00  0.00     0.096 A 
ENDBRANCH  25  26
ENDBRANCH  24  25
ENDBRANCH   4  24
TORSDOF 6
ENDMDL
MODEL 9
REMARK VINA RESULT:     -10.1      2.146     10.911
REMARK  6 active torsions:
REMARK  status: ('A' for Active; 'I' for Inactive)
REMARK    1  A    between atoms: C_2  and  N_3 
REMARK    2  A    between atoms: N_6  and  C_8 
REMARK    3  A    between atoms: C_8  and  C_9 
REMARK       I    between atoms: C_9  and  N_10 
REMARK       I    between atoms: N_10  and  C_11 
REMARK       I    between atoms: C_11  and  N_12 
REMARK    4  A    between atoms: N_12  and  C_13 
REMARK    5  A    between atoms: C_13  and  C_14 
REMARK    6  A    between atoms: C_14  and  C_15 
ROOT
HETATM    1  C   UNL     1       4.670  29.349  53.439  1.00  0.00     0.251 C 
HETATM    2  N   UNL     1       4.997  30.355  54.308  1.00  0.00    -0.278 N 
HETATM    3  C   UNL     1       4.796  30.323  55.665  1.00  0.00     0.322 C 
HETATM    4  N   UNL     1       4.980  31.544  56.255  1.00  0.00    -0.343 N 
HETATM    5  O   UNL     1       4.528  29.296  56.275  1.00  0.00    -0.247 OA
HETATM    6  O   UNL     1       4.565  29.571  52.229  1.00  0.00    -0.271 OA
HETATM    7  H   UNL     1       5.140  31.258  53.879  1.00  0.00     0.173 HD
HETATM    8  H   UNL     1       4.858  32.365  55.675  1.00  0.00     0.164 HD
ENDROOT
BRANCH   1   9
HETATM    9  C   UNL     1       4.393  27.938  53.980  1.00  0.00     0.337 C 
BRANCH   9  10
HETATM   10  N   UNL     1       5.707  27.182  54.203  1.00  0.00    -0.060 N 
HETATM   11  C   UNL     1       5.667  26.287  55.444  1.00  0.00     0.255 C 
HETATM   12  C   UNL     1       7.049  25.647  55.670  1.00  0.00     0.150 C 
HETATM   13  N   UNL     1       7.476  24.932  54.459  1.00  0.00    -0.378 N 
HETATM   14  C   UNL     1       7.519  25.720  53.219  1.00  0.00     0.150 C 
HETATM   15  C   UNL     1       6.154  26.405  52.975  1.00  0.00     0.255 C 
HETATM   16  H   UNL     1       6.410  27.911  54.403  1.00  0.00     0.280 HD
BRANCH  13  17
HETATM   17  C   UNL     1       7.759  23.579  54.464  1.00  0.00     0.030 A 
HETATM   18  C   UNL     1       8.201  22.909  53.310  1.00  0.00     0.032 A 
HETATM   19  C   UNL     1       8.498  21.542  53.319  1.00  0.00     0.044 A 
HETATM   20  C   UNL     1       8.351  20.818  54.491  1.00  0.00     0.116 A 
HETATM   21  C   UNL     1       7.910  21.437  55.648  1.00  0.00     0.044 A 
HETATM   22  F   UNL     1       8.635  19.509  54.504  1.00  0.00    -0.206 F 
HETATM   23  C   UNL     1       7.619  22.806  55.631  1.00  0.00     0.032 A 
ENDBRANCH  13  17
ENDBRANCH   9  10
ENDBRANCH   1   9
BRANCH   4  24
HETATM   24  C   UNL     1       4.634  31.730  57.659  1.00  0.00     0.129 C 
BRANCH  24  25
HETATM   25  C   UNL     1       5.591  32.659  58.412  1.00  0.00     0.060 C 
BRANCH  25  26
HETATM   26  C   UNL     1       6.536  31.977  59.365  1.00  0.00    -0.029 A 
HETATM   27  C   UNL     1       6.852  32.316  60.725  1.00  0.00     0.001 A 
HETATM   28  C   UNL     1       7.812  31.401  61.170  1.00  0.00     0.043 A 
HETATM   29  C   UNL     1       6.432  33.320  61.620  1.00  0.00     0.056 A 
HETATM   30  C   UNL     1       8.379  31.449  62.451  1.00  0.00     0.033 A 
HETATM   31  N   UNL     1       8.030  30.509  60.148  1.00  0.00    -0.365 N 
HETATM   32  C   UNL     1       7.961  32.470  63.308  1.00  0.00     0.044 A 
HETATM   33  C   UNL     1       7.003  33.381  62.892  1.00  0.00     0.117 A 
HETATM   34  F   UNL     1       6.621  34.357  63.728  1.00  0.00    -0.206 F 
HETATM   35  H   UNL     1       8.652  29.713  60.203  1.00  0.00     0.165 HD
HETATM   36  C   UNL     1       7.284  30.855  59.056  1.00  0.00     0.096 A 
ENDBRANCH  25  26
ENDBRANCH  24  25
ENDBRANCH   4  24
TORSDOF 6
ENDMDL
MODEL 10
REMARK VINA RESULT:      -9.9      1.947      3.060
REMARK  6 active torsions:
REMARK  status: ('A' for Active; 'I' for Inactive)
REMARK    1  A    between atoms: C_2  and  N_3 
REMARK    2  A    between atoms: N_6  and  C_8 
REMARK    3  A    between atoms: C_8  and  C_9 
REMARK       I    between atoms: C_9  and  N_10 
REMARK       I    between atoms: N_10  and  C_11 
REMARK       I    between atoms: C_11  and  N_12 
REMARK    4  A    between atoms: N_12  and  C_13 
REMARK    5  A    between atoms: C_13  and  C_14 
REMARK    6  A    between atoms: C_14  and  C_15 
ROOT
HETATM    1  C   UNL     1       8.504  31.744  58.885  1.00  0.00     0.251 C 
HETATM    2  N   UNL     1       8.606  30.593  58.152  1.00  0.00    -0.278 N 
HETATM    3  C   UNL     1       7.594  29.686  57.958  1.00  0.00     0.322 C 
HETATM    4  N   UNL     1       8.032  28.516  57.401  1.00  0.00    -0.343 N 
HETATM    5  O   UNL     1       6.422  29.930  58.217  1.00  0.00    -0.247 OA
HETATM    6  O   UNL     1       9.515  32.325  59.291  1.00  0.00    -0.271 OA
HETATM    7  H   UNL     1       9.550  30.280  57.980  1.00  0.00     0.173 HD
HETATM    8  H   UNL     1       9.004  28.271  57.537  1.00  0.00     0.164 HD
ENDROOT
BRANCH   1   9
HETATM    9  C   UNL     1       7.115  32.297  59.240  1.00  0.00     0.337 C 
BRANCH   9  10
HETATM   10  N   UNL     1       6.742  31.927  60.679  1.00  0.00    -0.060 N 
HETATM   11  C   UNL     1       7.817  32.338  61.688  1.00  0.00     0.255 C 
HETATM   12  C   UNL     1       7.432  31.840  63.093  1.00  0.00     0.150 C 
HETATM   13  N   UNL     1       6.091  32.327  63.449  1.00  0.00    -0.378 N 
HETATM   14  C   UNL     1       5.007  31.990  62.516  1.00  0.00     0.150 C 
HETATM   15  C   UNL     1       5.373  32.450  61.085  1.00  0.00     0.255 C 
HETATM   16  H   UNL     1       6.717  30.895  60.697  1.00  0.00     0.280 HD
BRANCH  13  17
HETATM   17  C   UNL     1       5.867  33.114  64.563  1.00  0.00     0.030 A 
HETATM   18  C   UNL     1       6.911  33.495  65.425  1.00  0.00     0.032 A 
HETATM   19  C   UNL     1       6.685  34.301  66.546  1.00  0.00     0.044 A 
HETATM   20  C   UNL     1       5.400  34.737  66.827  1.00  0.00     0.116 A 
HETATM   21  C   UNL     1       4.342  34.378  66.009  1.00  0.00     0.044 A 
HETATM   22  F   UNL     1       5.180  35.508  67.899  1.00  0.00    -0.206 F 
HETATM   23  C   UNL     1       4.578  33.575  64.887  1.00  0.00     0.032 A 
ENDBRANCH  13  17
ENDBRANCH   9  10
ENDBRANCH   1   9
BRANCH   4  24
HETATM   24  C   UNL     1       7.124  27.380  57.292  1.00  0.00     0.129 C 
BRANCH  24  25
HETATM   25  C   UNL     1       7.414  26.471  56.095  1.00  0.00     0.060 C 
BRANCH  25  26
HETATM   26  C   UNL     1       7.849  25.072  56.439  1.00  0.00    -0.029 A 
HETATM   27  C   UNL     1       7.996  23.932  55.576  1.00  0.00     0.001 A 
HETATM   28  C   UNL     1       8.390  22.853  56.375  1.00  0.00     0.043 A 
HETATM   29  C   UNL     1       7.817  23.701  54.197  1.00  0.00     0.056 A 
HETATM   30  C   UNL     1       8.598  21.562  55.870  1.00  0.00     0.033 A 
HETATM   31  N   UNL     1       8.533  23.326  57.657  1.00  0.00    -0.365 N 
HETATM   32  C   UNL     1       8.390  21.359  54.504  1.00  0.00     0.044 A 
HETATM   33  C   UNL     1       8.010  22.415  53.690  1.00  0.00     0.117 A 
HETATM   34  F   UNL     1       7.808  22.196  52.384  1.00  0.00    -0.206 F 
HETATM   35  H   UNL     1       8.846  22.771  58.443  1.00  0.00     0.165 HD
HETATM   36  C   UNL     1       8.194  24.649  57.710  1.00  0.00     0.096 A 
ENDBRANCH  25  26
ENDBRANCH  24  25
ENDBRANCH   4  24
TORSDOF 6
ENDMDL
