MODEL 1
REMARK VINA RESULT:     -10.6      0.000      0.000
REMARK  9 active torsions:
REMARK  status: ('A' for Active; 'I' for Inactive)
REMARK    1  A    between atoms: C_11  and  S_12 
REMARK    2  A    between atoms: S_12  and  C_13 
REMARK    3  A    between atoms: C_13  and  C_14 
REMARK       I    between atoms: C_14  and  N_15 
REMARK    4  A    between atoms: N_15  and  N_16 
REMARK    5  A    between atoms: N_16  and  C_17 
REMARK    6  A    between atoms: C_17  and  N_18 
REMARK    7  A    between atoms: N_18  and  C_19 
REMARK    8  A    between atoms: C_22  and  O_23 
REMARK    9  A    between atoms: O_23  and  C_24 
ROOT
HETATM    1  C   UNL     1       7.828  29.219  57.526  1.00  0.00     0.245 C 
HETATM    2  N   UNL     1       7.454  30.479  57.978  1.00  0.00    -0.267 N 
HETATM    3  O   UNL     1       7.964  28.259  58.279  1.00  0.00    -0.271 OA
HETATM    4  H   UNL     1       7.555  31.324  57.423  1.00  0.00     0.190 HD
ENDROOT
BRANCH   2   5
HETATM    5  N   UNL     1       7.096  30.630  59.322  1.00  0.00    -0.274 N 
HETATM    6  H   UNL     1       6.270  30.115  59.603  1.00  0.00     0.189 HD
BRANCH   5   7
HETATM    7  C   UNL     1       8.002  31.020  60.277  1.00  0.00     0.191 C 
HETATM    8  S   UNL     1       9.445  31.807  59.947  1.00  0.00    -0.039 SA
BRANCH   7   9
HETATM    9  N   UNL     1       7.623  30.882  61.587  1.00  0.00    -0.332 N 
HETATM   10  H   UNL     1       7.703  29.929  61.927  1.00  0.00     0.168 HD
BRANCH   9  11
HETATM   11  C   UNL     1       7.111  31.826  62.499  1.00  0.00     0.034 A 
HETATM   12  C   UNL     1       5.761  32.170  62.585  1.00  0.00     0.032 A 
HETATM   13  C   UNL     1       5.336  33.147  63.493  1.00  0.00     0.039 A 
HETATM   14  C   UNL     1       6.245  33.773  64.349  1.00  0.00     0.078 A 
HETATM   15  C   UNL     1       7.582  33.382  64.312  1.00  0.00     0.039 A 
HETATM   16  C   UNL     1       8.008  32.405  63.400  1.00  0.00     0.032 A 
BRANCH  14  17
HETATM   17  O   UNL     1       5.696  34.721  65.162  1.00  0.00    -0.255 OA
BRANCH  17  18
HETATM   18  C   UNL     1       5.609  34.434  66.547  1.00  0.00     0.530 C 
HETATM   19  F   UNL     1       6.746  33.862  66.996  1.00  0.00    -0.144 F 
HETATM   20  F   UNL     1       5.352  35.550  67.263  1.00  0.00    -0.144 F 
HETATM   21  F   UNL     1       4.593  33.565  66.747  1.00  0.00    -0.144 F 
ENDBRANCH  17  18
ENDBRANCH  14  17
ENDBRANCH   9  11
ENDBRANCH   7   9
ENDBRANCH   5   7
ENDBRANCH   2   5
BRANCH   1  22
HETATM   22  C   UNL     1       7.971  29.175  56.011  1.00  0.00     0.187 C 
BRANCH  22  23
HETATM   23  S   UNL     1       6.509  28.551  55.132  1.00  0.00    -0.079 SA
BRANCH  23  24
HETATM   24  C   UNL     1       7.054  26.900  54.736  1.00  0.00     0.211 A 
HETATM   25  N   UNL     1       7.388  26.625  53.441  1.00  0.00    -0.122 NA
HETATM   26  N   UNL     1       7.679  25.377  53.060  1.00  0.00    -0.143 NA
HETATM   27  C   UNL     1       7.632  24.429  54.030  1.00  0.00     0.137 A 
HETATM   28  C   UNL     1       7.816  23.021  54.002  1.00  0.00     0.025 A 
HETATM   29  C   UNL     1       7.344  24.792  55.333  1.00  0.00     0.162 A 
HETATM   30  C   UNL     1       8.095  22.081  52.990  1.00  0.00     0.016 A 
HETATM   31  C   UNL     1       7.652  22.564  55.316  1.00  0.00     0.046 A 
HETATM   32  C   UNL     1       8.198  20.726  53.324  1.00  0.00     0.001 A 
HETATM   33  C   UNL     1       8.036  20.302  54.642  1.00  0.00     0.002 A 
HETATM   34  C   UNL     1       7.761  21.214  55.665  1.00  0.00     0.030 A 
HETATM   35  N   UNL     1       7.377  23.665  56.100  1.00  0.00    -0.338 N 
HETATM   36  H   UNL     1       7.195  23.653  57.093  1.00  0.00     0.167 HD
HETATM   37  N   UNL     1       7.060  26.029  55.768  1.00  0.00    -0.201 NA
ENDBRANCH  23  24
ENDBRANCH  22  23
ENDBRANCH   1  22
TORSDOF 9
ENDMDL
MODEL 2
REMARK VINA RESULT:     -10.5      6.278     12.404
REMARK  9 active torsions:
REMARK  status: ('A' for Active; 'I' for Inactive)
REMARK    1  A    between atoms: C_11  and  S_12 
REMARK    2  A    between atoms: S_12  and  C_13 
REMARK    3  A    between atoms: C_13  and  C_14 
REMARK       I    between atoms: C_14  and  N_15 
REMARK    4  A    between atoms: N_15  and  N_16 
REMARK    5  A    between atoms: N_16  and  C_17 
REMARK    6  A    between atoms: C_17  and  N_18 
REMARK    7  A    between atoms: N_18  and  C_19 
REMARK    8  A    between atoms: C_22  and  O_23 
REMARK    9  A    between atoms: O_23  and  C_24 
ROOT
HETATM    1  C   UNL     1       7.113  29.004  55.829  1.00  0.00     0.245 C 
HETATM    2  N   UNL     1       7.569  28.364  54.682  1.00  0.00    -0.267 N 
HETATM    3  O   UNL     1       6.177  29.798  55.816  1.00  0.00    -0.271 OA
HETATM    4  H   UNL     1       8.466  27.891  54.626  1.00  0.00     0.190 HD
ENDROOT
BRANCH   2   5
HETATM    5  N   UNL     1       6.854  28.532  53.492  1.00  0.00    -0.274 N 
HETATM    6  H   UNL     1       7.233  29.231  52.862  1.00  0.00     0.189 HD
BRANCH   5   7
HETATM    7  C   UNL     1       6.032  27.553  52.991  1.00  0.00     0.191 C 
HETATM    8  S   UNL     1       5.352  27.580  51.459  1.00  0.00    -0.039 SA
BRANCH   7   9
HETATM    9  N   UNL     1       5.886  26.418  53.747  1.00  0.00    -0.332 N 
HETATM   10  H   UNL     1       5.101  26.464  54.388  1.00  0.00     0.168 HD
BRANCH   9  11
HETATM   11  C   UNL     1       6.663  25.244  53.800  1.00  0.00     0.034 A 
HETATM   12  C   UNL     1       6.975  24.571  54.982  1.00  0.00     0.032 A 
HETATM   13  C   UNL     1       7.785  23.430  54.955  1.00  0.00     0.039 A 
HETATM   14  C   UNL     1       8.272  22.926  53.747  1.00  0.00     0.078 A 
HETATM   15  C   UNL     1       7.906  23.557  52.559  1.00  0.00     0.039 A 
HETATM   16  C   UNL     1       7.096  24.701  52.587  1.00  0.00     0.032 A 
BRANCH  14  17
HETATM   17  O   UNL     1       9.069  21.825  53.873  1.00  0.00    -0.255 OA
BRANCH  17  18
HETATM   18  C   UNL     1       8.499  20.561  53.584  1.00  0.00     0.530 C 
HETATM   19  F   UNL     1       7.272  20.445  54.132  1.00  0.00    -0.144 F 
HETATM   20  F   UNL     1       8.420  20.352  52.252  1.00  0.00    -0.144 F 
HETATM   21  F   UNL     1       9.289  19.599  54.112  1.00  0.00    -0.144 F 
ENDBRANCH  17  18
ENDBRANCH  14  17
ENDBRANCH   9  11
ENDBRANCH   7   9
ENDBRANCH   5   7
ENDBRANCH   2   5
BRANCH   1  22
HETATM   22  C   UNL     1       7.862  28.547  57.073  1.00  0.00     0.187 C 
BRANCH  22  23
HETATM   23  S   UNL     1       9.227  29.635  57.575  1.00  0.00    -0.079 SA
BRANCH  23  24
HETATM   24  C   UNL     1       8.419  30.600  58.838  1.00  0.00     0.211 A 
HETATM   25  N   UNL     1       7.506  31.537  58.449  1.00  0.00    -0.122 NA
HETATM   26  N   UNL     1       6.965  32.377  59.337  1.00  0.00    -0.143 NA
HETATM   27  C   UNL     1       7.368  32.227  60.624  1.00  0.00     0.137 A 
HETATM   28  C   UNL     1       7.070  32.948  61.810  1.00  0.00     0.025 A 
HETATM   29  C   UNL     1       8.252  31.216  60.955  1.00  0.00     0.162 A 
HETATM   30  C   UNL     1       6.277  34.074  62.110  1.00  0.00     0.016 A 
HETATM   31  C   UNL     1       7.778  32.330  62.850  1.00  0.00     0.046 A 
HETATM   32  C   UNL     1       6.220  34.541  63.428  1.00  0.00     0.001 A 
HETATM   33  C   UNL     1       6.932  33.901  64.442  1.00  0.00     0.002 A 
HETATM   34  C   UNL     1       7.724  32.781  64.172  1.00  0.00     0.030 A 
HETATM   35  N   UNL     1       8.476  31.277  62.298  1.00  0.00    -0.338 N 
HETATM   36  H   UNL     1       9.091  30.650  62.796  1.00  0.00     0.167 HD
HETATM   37  N   UNL     1       8.810  30.341  60.104  1.00  0.00    -0.201 NA
ENDBRANCH  23  24
ENDBRANCH  22  23
ENDBRANCH   1  22
TORSDOF 9
ENDMDL
MODEL 3
REMARK VINA RESULT:     -10.5      6.157     12.480
REMARK  9 active torsions:
REMARK  status: ('A' for Active; 'I' for Inactive)
REMARK    1  A    between atoms: C_11  and  S_12 
REMARK    2  A    between atoms: S_12  and  C_13 
REMARK    3  A    between atoms: C_13  and  C_14 
REMARK       I    between atoms: C_14  and  N_15 
REMARK    4  A    between atoms: N_15  and  N_16 
REMARK    5  A    between atoms: N_16  and  C_17 
REMARK    6  A    between atoms: C_17  and  N_18 
REMARK    7  A    between atoms: N_18  and  C_19 
REMARK    8  A    between atoms: C_22  and  O_23 
REMARK    9  A    between atoms: O_23  and  C_24 
ROOT
HETATM    1  C   UNL     1       6.417  28.613  56.480  1.00  0.00     0.245 C 
HETATM    2  N   UNL     1       6.517  28.973  55.141  1.00  0.00    -0.267 N 
HETATM    3  O   UNL     1       6.080  27.489  56.841  1.00  0.00    -0.271 OA
HETATM    4  H   UNL     1       6.569  29.936  54.825  1.00  0.00     0.190 HD
ENDROOT
BRANCH   2   5
HETATM    5  N   UNL     1       6.351  27.983  54.167  1.00  0.00    -0.274 N 
HETATM    6  H   UNL     1       7.202  27.499  53.901  1.00  0.00     0.189 HD
BRANCH   5   7
HETATM    7  C   UNL     1       5.138  27.380  53.942  1.00  0.00     0.191 C 
HETATM    8  S   UNL     1       3.841  28.120  53.179  1.00  0.00    -0.039 SA
BRANCH   7   9
HETATM    9  N   UNL     1       5.045  26.043  54.231  1.00  0.00    -0.332 N 
HETATM   10  H   UNL     1       4.143  25.781  54.617  1.00  0.00     0.168 HD
BRANCH   9  11
HETATM   11  C   UNL     1       5.996  25.010  54.118  1.00  0.00     0.034 A 
HETATM   12  C   UNL     1       6.491  24.539  52.901  1.00  0.00     0.032 A 
HETATM   13  C   UNL     1       7.408  23.482  52.871  1.00  0.00     0.039 A 
HETATM   14  C   UNL     1       7.867  22.899  54.054  1.00  0.00     0.078 A 
HETATM   15  C   UNL     1       7.426  23.413  55.273  1.00  0.00     0.039 A 
HETATM   16  C   UNL     1       6.506  24.470  55.302  1.00  0.00     0.032 A 
BRANCH  14  17
HETATM   17  O   UNL     1       8.737  21.863  53.874  1.00  0.00    -0.255 OA
BRANCH  17  18
HETATM   18  C   UNL     1       8.218  20.546  53.929  1.00  0.00     0.530 C 
HETATM   19  F   UNL     1       9.212  19.633  53.927  1.00  0.00    -0.144 F 
HETATM   20  F   UNL     1       7.445  20.369  55.022  1.00  0.00    -0.144 F 
HETATM   21  F   UNL     1       7.451  20.336  52.836  1.00  0.00    -0.144 F 
ENDBRANCH  17  18
ENDBRANCH  14  17
ENDBRANCH   9  11
ENDBRANCH   7   9
ENDBRANCH   5   7
ENDBRANCH   2   5
BRANCH   1  22
HETATM   22  C   UNL     1       6.838  29.744  57.409  1.00  0.00     0.187 C 
BRANCH  22  23
HETATM   23  S   UNL     1       8.506  29.567  58.106  1.00  0.00    -0.079 SA
BRANCH  23  24
HETATM   24  C   UNL     1       8.357  30.596  59.555  1.00  0.00     0.211 A 
HETATM   25  N   UNL     1       9.146  30.310  60.632  1.00  0.00    -0.122 NA
HETATM   26  N   UNL     1       8.988  30.962  61.788  1.00  0.00    -0.143 NA
HETATM   27  C   UNL     1       8.020  31.914  61.811  1.00  0.00     0.137 A 
HETATM   28  C   UNL     1       7.529  32.754  62.844  1.00  0.00     0.025 A 
HETATM   29  C   UNL     1       7.300  32.190  60.663  1.00  0.00     0.162 A 
HETATM   30  C   UNL     1       7.830  32.919  64.212  1.00  0.00     0.016 A 
HETATM   31  C   UNL     1       6.521  33.545  62.279  1.00  0.00     0.046 A 
HETATM   32  C   UNL     1       7.116  33.861  64.961  1.00  0.00     0.001 A 
HETATM   33  C   UNL     1       6.122  34.638  64.369  1.00  0.00     0.002 A 
HETATM   34  C   UNL     1       5.806  34.496  63.015  1.00  0.00     0.030 A 
HETATM   35  N   UNL     1       6.414  33.185  60.953  1.00  0.00    -0.338 N 
HETATM   36  H   UNL     1       5.762  33.570  60.286  1.00  0.00     0.167 HD
HETATM   37  N   UNL     1       7.431  31.575  59.478  1.00  0.00    -0.201 NA
ENDBRANCH  23  24
ENDBRANCH  22  23
ENDBRANCH   1  22
TORSDOF 9
ENDMDL
MODEL 4
REMARK VINA RESULT:     -10.3      1.746      2.310
REMARK  9 active torsions:
REMARK  status: ('A' for Active; 'I' for Inactive)
REMARK    1  A    between atoms: C_11  and  S_12 
REMARK    2  A    between atoms: S_12  and  C_13 
REMARK    3  A    between atoms: C_13  and  C_14 
REMARK       I    between atoms: C_14  and  N_15 
REMARK    4  A    between atoms: N_15  and  N_16 
REMARK    5  A    between atoms: N_16  and  C_17 
REMARK    6  A    between atoms: C_17  and  N_18 
REMARK    7  A    between atoms: N_18  and  C_19 
REMARK    8  A    between atoms: C_22  and  O_23 
REMARK    9  A    between atoms: O_23  and  C_24 
ROOT
HETATM    1  C   UNL     1       5.979  28.710  56.881  1.00  0.00     0.245 C 
HETATM    2  N   UNL     1       7.273  28.320  57.207  1.00  0.00    -0.267 N 
HETATM    3  O   UNL     1       5.351  29.536  57.538  1.00  0.00    -0.271 OA
HETATM    4  H   UNL     1       7.719  27.491  56.826  1.00  0.00     0.190 HD
ENDROOT
BRANCH   2   5
HETATM    5  N   UNL     1       7.932  28.986  58.246  1.00  0.00    -0.274 N 
HETATM    6  H   UNL     1       7.835  28.553  59.158  1.00  0.00     0.189 HD
BRANCH   5   7
HETATM    7  C   UNL     1       8.986  29.835  58.013  1.00  0.00     0.191 C 
HETATM    8  S   UNL     1      10.079  29.662  56.754  1.00  0.00    -0.039 SA
BRANCH   7   9
HETATM    9  N   UNL     1       9.048  30.971  58.776  1.00  0.00    -0.332 N 
HETATM   10  H   UNL     1       9.704  31.658  58.416  1.00  0.00     0.168 HD
BRANCH   9  11
HETATM   11  C   UNL     1       8.392  31.310  59.976  1.00  0.00     0.034 A 
HETATM   12  C   UNL     1       7.285  32.156  60.045  1.00  0.00     0.032 A 
HETATM   13  C   UNL     1       6.711  32.474  61.281  1.00  0.00     0.039 A 
HETATM   14  C   UNL     1       7.215  31.931  62.465  1.00  0.00     0.078 A 
HETATM   15  C   UNL     1       8.278  31.032  62.393  1.00  0.00     0.039 A 
HETATM   16  C   UNL     1       8.853  30.715  61.154  1.00  0.00     0.032 A 
BRANCH  14  17
HETATM   17  O   UNL     1       6.576  32.347  63.596  1.00  0.00    -0.255 OA
BRANCH  17  18
HETATM   18  C   UNL     1       7.184  33.376  64.358  1.00  0.00     0.530 C 
HETATM   19  F   UNL     1       6.983  33.183  65.679  1.00  0.00    -0.144 F 
HETATM   20  F   UNL     1       8.509  33.452  64.110  1.00  0.00    -0.144 F 
HETATM   21  F   UNL     1       6.625  34.558  64.016  1.00  0.00    -0.144 F 
ENDBRANCH  17  18
ENDBRANCH  14  17
ENDBRANCH   9  11
ENDBRANCH   7   9
ENDBRANCH   5   7
ENDBRANCH   2   5
BRANCH   1  22
HETATM   22  C   UNL     1       5.489  28.049  55.601  1.00  0.00     0.187 C 
BRANCH  22  23
HETATM   23  S   UNL     1       6.631  28.184  54.195  1.00  0.00    -0.079 SA
BRANCH  23  24
HETATM   24  C   UNL     1       7.226  26.505  54.105  1.00  0.00     0.211 A 
HETATM   25  N   UNL     1       7.605  26.020  52.886  1.00  0.00    -0.122 NA
HETATM   26  N   UNL     1       7.937  24.734  52.734  1.00  0.00    -0.143 NA
HETATM   27  C   UNL     1       7.883  23.966  53.852  1.00  0.00     0.137 A 
HETATM   28  C   UNL     1       8.100  22.581  54.072  1.00  0.00     0.025 A 
HETATM   29  C   UNL     1       7.547  24.540  55.065  1.00  0.00     0.162 A 
HETATM   30  C   UNL     1       8.431  21.488  53.245  1.00  0.00     0.016 A 
HETATM   31  C   UNL     1       7.906  22.352  55.441  1.00  0.00     0.046 A 
HETATM   32  C   UNL     1       8.556  20.214  53.811  1.00  0.00     0.001 A 
HETATM   33  C   UNL     1       8.363  20.020  55.178  1.00  0.00     0.002 A 
HETATM   34  C   UNL     1       8.036  21.086  56.020  1.00  0.00     0.030 A 
HETATM   35  N   UNL     1       7.583  23.563  56.015  1.00  0.00    -0.338 N 
HETATM   36  H   UNL     1       7.371  23.717  56.990  1.00  0.00     0.167 HD
HETATM   37  N   UNL     1       7.221  25.825  55.271  1.00  0.00    -0.201 NA
ENDBRANCH  23  24
ENDBRANCH  22  23
ENDBRANCH   1  22
TORSDOF 9
ENDMDL
MODEL 5
REMARK VINA RESULT:     -10.0      6.522     11.935
REMARK  9 active torsions:
REMARK  status: ('A' for Active; 'I' for Inactive)
REMARK    1  A    between atoms: C_11  and  S_12 
REMARK    2  A    between atoms: S_12  and  C_13 
REMARK    3  A    between atoms: C_13  and  C_14 
REMARK       I    between atoms: C_14  and  N_15 
REMARK    4  A    between atoms: N_15  and  N_16 
REMARK    5  A    between atoms: N_16  and  C_17 
REMARK    6  A    between atoms: C_17  and  N_18 
REMARK    7  A    between atoms: N_18  and  C_19 
REMARK    8  A    between atoms: C_22  and  O_23 
REMARK    9  A    between atoms: O_23  and  C_24 
ROOT
HETATM    1  C   UNL     1       4.152  29.007  55.941  1.00  0.00     0.245 C 
HETATM    2  N   UNL     1       4.691  28.488  57.113  1.00  0.00    -0.267 N 
HETATM    3  O   UNL     1       4.086  28.360  54.899  1.00  0.00    -0.271 OA
HETATM    4  H   UNL     1       4.962  29.063  57.905  1.00  0.00     0.190 HD
ENDROOT
BRANCH   2   5
HETATM    5  N   UNL     1       5.055  27.138  57.143  1.00  0.00    -0.274 N 
HETATM    6  H   UNL     1       4.361  26.501  56.767  1.00  0.00     0.189 HD
BRANCH   5   7
HETATM    7  C   UNL     1       6.367  26.740  57.209  1.00  0.00     0.191 C 
HETATM    8  S   UNL     1       7.670  27.789  57.323  1.00  0.00    -0.039 SA
BRANCH   7   9
HETATM    9  N   UNL     1       6.603  25.395  57.336  1.00  0.00    -0.332 N 
HETATM   10  H   UNL     1       6.310  25.022  58.233  1.00  0.00     0.168 HD
BRANCH   9  11
HETATM   11  C   UNL     1       7.213  24.482  56.453  1.00  0.00     0.034 A 
HETATM   12  C   UNL     1       8.082  23.469  56.861  1.00  0.00     0.032 A 
HETATM   13  C   UNL     1       8.678  22.625  55.918  1.00  0.00     0.039 A 
HETATM   14  C   UNL     1       8.395  22.759  54.557  1.00  0.00     0.078 A 
HETATM   15  C   UNL     1       7.475  23.725  54.154  1.00  0.00     0.039 A 
HETATM   16  C   UNL     1       6.880  24.572  55.099  1.00  0.00     0.032 A 
BRANCH  14  17
HETATM   17  O   UNL     1       9.066  21.886  53.751  1.00  0.00    -0.255 OA
BRANCH  17  18
HETATM   18  C   UNL     1       8.558  20.568  53.636  1.00  0.00     0.530 C 
HETATM   19  F   UNL     1       8.661  20.118  52.367  1.00  0.00    -0.144 F 
HETATM   20  F   UNL     1       9.200  19.721  54.469  1.00  0.00    -0.144 F 
HETATM   21  F   UNL     1       7.250  20.576  53.974  1.00  0.00    -0.144 F 
ENDBRANCH  17  18
ENDBRANCH  14  17
ENDBRANCH   9  11
ENDBRANCH   7   9
ENDBRANCH   5   7
ENDBRANCH   2   5
BRANCH   1  22
HETATM   22  C   UNL     1       3.608  30.415  56.137  1.00  0.00     0.187 C 
BRANCH  22  23
HETATM   23  S   UNL     1       4.848  31.733  55.981  1.00  0.00    -0.079 SA
BRANCH  23  24
HETATM   24  C   UNL     1       5.171  32.071  57.702  1.00  0.00     0.211 A 
HETATM   25  N   UNL     1       4.488  33.093  58.297  1.00  0.00    -0.122 NA
HETATM   26  N   UNL     1       4.779  33.476  59.544  1.00  0.00    -0.143 NA
HETATM   27  C   UNL     1       5.770  32.787  60.166  1.00  0.00     0.137 A 
HETATM   28  C   UNL     1       6.387  32.934  61.436  1.00  0.00     0.025 A 
HETATM   29  C   UNL     1       6.378  31.725  59.521  1.00  0.00     0.162 A 
HETATM   30  C   UNL     1       6.231  33.831  62.513  1.00  0.00     0.016 A 
HETATM   31  C   UNL     1       7.354  31.926  61.537  1.00  0.00     0.046 A 
HETATM   32  C   UNL     1       7.042  33.690  63.644  1.00  0.00     0.001 A 
HETATM   33  C   UNL     1       7.992  32.672  63.717  1.00  0.00     0.002 A 
HETATM   34  C   UNL     1       8.166  31.769  62.665  1.00  0.00     0.030 A 
HETATM   35  N   UNL     1       7.315  31.204  60.363  1.00  0.00    -0.338 N 
HETATM   36  H   UNL     1       7.907  30.419  60.131  1.00  0.00     0.167 HD
HETATM   37  N   UNL     1       6.111  31.293  58.279  1.00  0.00    -0.201 NA
ENDBRANCH  23  24
ENDBRANCH  22  23
ENDBRANCH   1  22
TORSDOF 9
ENDMDL
MODEL 6
REMARK VINA RESULT:      -9.7      6.328     12.761
REMARK  9 active torsions:
REMARK  status: ('A' for Active; 'I' for Inactive)
REMARK    1  A    between atoms: C_11  and  S_12 
REMARK    2  A    between atoms: S_12  and  C_13 
REMARK    3  A    between atoms: C_13  and  C_14 
REMARK       I    between atoms: C_14  and  N_15 
REMARK    4  A    between atoms: N_15  and  N_16 
REMARK    5  A    between atoms: N_16  and  C_17 
REMARK    6  A    between atoms: C_17  and  N_18 
REMARK    7  A    between atoms: N_18  and  C_19 
REMARK    8  A    between atoms: C_22  and  O_23 
REMARK    9  A    between atoms: O_23  and  C_24 
ROOT
HETATM    1  C   UNL     1       6.236  29.934  56.573  1.00  0.00     0.245 C 
HETATM    2  N   UNL     1       5.463  29.324  55.592  1.00  0.00    -0.267 N 
HETATM    3  O   UNL     1       7.278  29.441  56.998  1.00  0.00    -0.271 OA
HETATM    4  H   UNL     1       4.504  29.589  55.393  1.00  0.00     0.190 HD
ENDROOT
BRANCH   2   5
HETATM    5  N   UNL     1       5.954  28.168  54.975  1.00  0.00    -0.274 N 
HETATM    6  H   UNL     1       6.872  27.874  55.289  1.00  0.00     0.189 HD
BRANCH   5   7
HETATM    7  C   UNL     1       5.122  27.252  54.380  1.00  0.00     0.191 C 
HETATM    8  S   UNL     1       4.193  27.561  53.019  1.00  0.00    -0.039 SA
BRANCH   7   9
HETATM    9  N   UNL     1       5.177  25.966  54.851  1.00  0.00    -0.332 N 
HETATM   10  H   UNL     1       4.441  25.752  55.516  1.00  0.00     0.168 HD
BRANCH   9  11
HETATM   11  C   UNL     1       6.099  24.932  54.593  1.00  0.00     0.034 A 
HETATM   12  C   UNL     1       6.768  24.221  55.591  1.00  0.00     0.032 A 
HETATM   13  C   UNL     1       7.699  23.232  55.253  1.00  0.00     0.039 A 
HETATM   14  C   UNL     1       7.956  22.918  53.917  1.00  0.00     0.078 A 
HETATM   15  C   UNL     1       7.240  23.579  52.920  1.00  0.00     0.039 A 
HETATM   16  C   UNL     1       6.309  24.571  53.260  1.00  0.00     0.032 A 
BRANCH  14  17
HETATM   17  O   UNL     1       8.904  21.953  53.735  1.00  0.00    -0.255 OA
BRANCH  17  18
HETATM   18  C   UNL     1       8.464  20.620  53.545  1.00  0.00     0.530 C 
HETATM   19  F   UNL     1       7.239  20.433  54.082  1.00  0.00    -0.144 F 
HETATM   20  F   UNL     1       8.436  20.294  52.235  1.00  0.00    -0.144 F 
HETATM   21  F   UNL     1       9.327  19.785  54.166  1.00  0.00    -0.144 F 
ENDBRANCH  17  18
ENDBRANCH  14  17
ENDBRANCH   9  11
ENDBRANCH   7   9
ENDBRANCH   5   7
ENDBRANCH   2   5
BRANCH   1  22
HETATM   22  C   UNL     1       5.673  31.287  56.985  1.00  0.00     0.187 C 
BRANCH  22  23
HETATM   23  S   UNL     1       4.225  31.202  58.077  1.00  0.00    -0.079 SA
BRANCH  23  24
HETATM   24  C   UNL     1       4.904  31.914  59.564  1.00  0.00     0.211 A 
HETATM   25  N   UNL     1       6.259  32.050  59.653  1.00  0.00    -0.122 NA
HETATM   26  N   UNL     1       6.834  32.455  60.790  1.00  0.00    -0.143 NA
HETATM   27  C   UNL     1       5.993  32.728  61.820  1.00  0.00     0.137 A 
HETATM   28  C   UNL     1       6.224  33.117  63.166  1.00  0.00     0.025 A 
HETATM   29  C   UNL     1       4.626  32.625  61.638  1.00  0.00     0.162 A 
HETATM   30  C   UNL     1       7.376  33.352  63.944  1.00  0.00     0.016 A 
HETATM   31  C   UNL     1       4.967  33.262  63.768  1.00  0.00     0.046 A 
HETATM   32  C   UNL     1       7.233  33.719  65.287  1.00  0.00     0.001 A 
HETATM   33  C   UNL     1       5.968  33.861  65.856  1.00  0.00     0.002 A 
HETATM   34  C   UNL     1       4.810  33.636  65.107  1.00  0.00     0.030 A 
HETATM   35  N   UNL     1       4.020  32.966  62.811  1.00  0.00    -0.338 N 
HETATM   36  H   UNL     1       3.019  32.968  62.949  1.00  0.00     0.167 HD
HETATM   37  N   UNL     1       4.002  32.237  60.516  1.00  0.00    -0.201 NA
ENDBRANCH  23  24
ENDBRANCH  22  23
ENDBRANCH   1  22
TORSDOF 9
ENDMDL
MODEL 7
REMARK VINA RESULT:      -9.5      8.794     11.389
REMARK  9 active torsions:
REMARK  status: ('A' for Active; 'I' for Inactive)
REMARK    1  A    between atoms: C_11  and  S_12 
REMARK    2  A    between atoms: S_12  and  C_13 
REMARK    3  A    between atoms: C_13  and  C_14 
REMARK       I    between atoms: C_14  and  N_15 
REMARK    4  A    between atoms: N_15  and  N_16 
REMARK    5  A    between atoms: N_16  and  C_17 
REMARK    6  A    between atoms: C_17  and  N_18 
REMARK    7  A    between atoms: N_18  and  C_19 
REMARK    8  A    between atoms: C_22  and  O_23 
REMARK    9  A    between atoms: O_23  and  C_24 
ROOT
HETATM    1  C   UNL     1       4.279  29.533  54.380  1.00  0.00     0.245 C 
HETATM    2  N   UNL     1       4.884  29.679  53.137  1.00  0.00    -0.267 N 
HETATM    3  O   UNL     1       3.812  30.481  55.005  1.00  0.00    -0.271 OA
HETATM    4  H   UNL     1       5.469  28.966  52.714  1.00  0.00     0.190 HD
ENDROOT
BRANCH   2   5
HETATM    5  N   UNL     1       4.847  30.933  52.517  1.00  0.00    -0.274 N 
HETATM    6  H   UNL     1       5.205  31.697  53.079  1.00  0.00     0.189 HD
BRANCH   5   7
HETATM    7  C   UNL     1       4.800  31.068  51.151  1.00  0.00     0.191 C 
HETATM    8  S   UNL     1       3.971  32.284  50.349  1.00  0.00    -0.039 SA
BRANCH   7   9
HETATM    9  N   UNL     1       5.606  30.237  50.416  1.00  0.00    -0.332 N 
HETATM   10  H   UNL     1       6.589  30.484  50.471  1.00  0.00     0.168 HD
BRANCH   9  11
HETATM   11  C   UNL     1       5.285  29.147  49.583  1.00  0.00     0.034 A 
HETATM   12  C   UNL     1       5.134  29.245  48.200  1.00  0.00     0.032 A 
HETATM   13  C   UNL     1       4.777  28.121  47.445  1.00  0.00     0.039 A 
HETATM   14  C   UNL     1       4.594  26.878  48.055  1.00  0.00     0.078 A 
HETATM   15  C   UNL     1       4.811  26.764  49.427  1.00  0.00     0.039 A 
HETATM   16  C   UNL     1       5.167  27.890  50.182  1.00  0.00     0.032 A 
BRANCH  14  17
HETATM   17  O   UNL     1       4.223  25.879  47.203  1.00  0.00    -0.255 OA
BRANCH  17  18
HETATM   18  C   UNL     1       2.937  25.310  47.371  1.00  0.00     0.530 C 
HETATM   19  F   UNL     1       2.957  24.330  48.299  1.00  0.00    -0.144 F 
HETATM   20  F   UNL     1       2.029  26.246  47.723  1.00  0.00    -0.144 F 
HETATM   21  F   UNL     1       2.545  24.768  46.196  1.00  0.00    -0.144 F 
ENDBRANCH  17  18
ENDBRANCH  14  17
ENDBRANCH   9  11
ENDBRANCH   7   9
ENDBRANCH   5   7
ENDBRANCH   2   5
BRANCH   1  22
HETATM   22  C   UNL     1       4.212  28.076  54.814  1.00  0.00     0.187 C 
BRANCH  22  23
HETATM   23  S   UNL     1       5.342  27.638  56.167  1.00  0.00    -0.079 SA
BRANCH  23  24
HETATM   24  C   UNL     1       6.135  26.202  55.469  1.00  0.00     0.211 A 
HETATM   25  N   UNL     1       6.080  26.029  54.116  1.00  0.00    -0.122 NA
HETATM   26  N   UNL     1       6.542  24.910  53.549  1.00  0.00    -0.143 NA
HETATM   27  C   UNL     1       7.070  23.987  54.393  1.00  0.00     0.137 A 
HETATM   28  C   UNL     1       7.595  22.685  54.179  1.00  0.00     0.025 A 
HETATM   29  C   UNL     1       7.147  24.257  55.747  1.00  0.00     0.162 A 
HETATM   30  C   UNL     1       7.757  21.857  53.050  1.00  0.00     0.016 A 
HETATM   31  C   UNL     1       8.002  22.201  55.429  1.00  0.00     0.046 A 
HETATM   32  C   UNL     1       8.315  20.584  53.208  1.00  0.00     0.001 A 
HETATM   33  C   UNL     1       8.716  20.133  54.465  1.00  0.00     0.002 A 
HETATM   34  C   UNL     1       8.568  20.934  55.600  1.00  0.00     0.030 A 
HETATM   35  N   UNL     1       7.726  23.183  56.357  1.00  0.00    -0.338 N 
HETATM   36  H   UNL     1       7.894  23.122  57.350  1.00  0.00     0.167 HD
HETATM   37  N   UNL     1       6.711  25.368  56.360  1.00  0.00    -0.201 NA
ENDBRANCH  23  24
ENDBRANCH  22  23
ENDBRANCH   1  22
TORSDOF 9
ENDMDL
MODEL 8
REMARK VINA RESULT:      -9.5      7.940     11.217
REMARK  9 active torsions:
REMARK  status: ('A' for Active; 'I' for Inactive)
REMARK    1  A    between atoms: C_11  and  S_12 
REMARK    2  A    between atoms: S_12  and  C_13 
REMARK    3  A    between atoms: C_13  and  C_14 
REMARK       I    between atoms: C_14  and  N_15 
REMARK    4  A    between atoms: N_15  and  N_16 
REMARK    5  A    between atoms: N_16  and  C_17 
REMARK    6  A    between atoms: C_17  and  N_18 
REMARK    7  A    between atoms: N_18  and  C_19 
REMARK    8  A    between atoms: C_22  and  O_23 
REMARK    9  A    between atoms: O_23  and  C_24 
ROOT
HETATM    1  C   UNL     1       5.289  28.958  56.023  1.00  0.00     0.245 C 
HETATM    2  N   UNL     1       6.148  29.022  54.931  1.00  0.00    -0.267 N 
HETATM    3  O   UNL     1       4.100  29.256  55.949  1.00  0.00    -0.271 OA
HETATM    4  H   UNL     1       7.159  29.003  55.015  1.00  0.00     0.190 HD
ENDROOT
BRANCH   2   5
HETATM    5  N   UNL     1       5.611  29.315  53.673  1.00  0.00    -0.274 N 
HETATM    6  H   UNL     1       5.682  30.287  53.395  1.00  0.00     0.189 HD
BRANCH   5   7
HETATM    7  C   UNL     1       5.450  28.351  52.709  1.00  0.00     0.191 C 
HETATM    8  S   UNL     1       4.874  26.804  53.004  1.00  0.00    -0.039 SA
BRANCH   7   9
HETATM    9  N   UNL     1       5.635  28.737  51.407  1.00  0.00    -0.332 N 
HETATM   10  H   UNL     1       6.525  29.198  51.250  1.00  0.00     0.168 HD
BRANCH   9  11
HETATM   11  C   UNL     1       4.784  28.634  50.288  1.00  0.00     0.034 A 
HETATM   12  C   UNL     1       3.626  29.395  50.120  1.00  0.00     0.032 A 
HETATM   13  C   UNL     1       2.812  29.207  48.998  1.00  0.00     0.039 A 
HETATM   14  C   UNL     1       3.154  28.279  48.012  1.00  0.00     0.078 A 
HETATM   15  C   UNL     1       4.345  27.567  48.144  1.00  0.00     0.039 A 
HETATM   16  C   UNL     1       5.159  27.754  49.270  1.00  0.00     0.032 A 
BRANCH  14  17
HETATM   17  O   UNL     1       2.257  28.184  46.988  1.00  0.00    -0.255 OA
BRANCH  17  18
HETATM   18  C   UNL     1       1.443  27.025  46.929  1.00  0.00     0.530 C 
HETATM   19  F   UNL     1       0.339  27.247  46.185  1.00  0.00    -0.144 F 
HETATM   20  F   UNL     1       2.123  25.973  46.426  1.00  0.00    -0.144 F 
HETATM   21  F   UNL     1       1.049  26.708  48.183  1.00  0.00    -0.144 F 
ENDBRANCH  17  18
ENDBRANCH  14  17
ENDBRANCH   9  11
ENDBRANCH   7   9
ENDBRANCH   5   7
ENDBRANCH   2   5
BRANCH   1  22
HETATM   22  C   UNL     1       5.984  28.416  57.265  1.00  0.00     0.187 C 
BRANCH  22  23
HETATM   23  S   UNL     1       7.779  28.201  57.093  1.00  0.00    -0.079 SA
BRANCH  23  24
HETATM   24  C   UNL     1       7.857  26.463  56.703  1.00  0.00     0.211 A 
HETATM   25  N   UNL     1       8.355  25.612  57.647  1.00  0.00    -0.122 NA
HETATM   26  N   UNL     1       8.558  24.321  57.367  1.00  0.00    -0.143 NA
HETATM   27  C   UNL     1       8.229  23.923  56.112  1.00  0.00     0.137 A 
HETATM   28  C   UNL     1       8.352  22.678  55.440  1.00  0.00     0.025 A 
HETATM   29  C   UNL     1       7.674  24.829  55.226  1.00  0.00     0.162 A 
HETATM   30  C   UNL     1       8.859  21.410  55.791  1.00  0.00     0.016 A 
HETATM   31  C   UNL     1       7.839  22.861  54.149  1.00  0.00     0.046 A 
HETATM   32  C   UNL     1       8.836  20.378  54.847  1.00  0.00     0.001 A 
HETATM   33  C   UNL     1       8.313  20.590  53.572  1.00  0.00     0.002 A 
HETATM   34  C   UNL     1       7.802  21.836  53.199  1.00  0.00     0.030 A 
HETATM   35  N   UNL     1       7.426  24.174  54.056  1.00  0.00    -0.338 N 
HETATM   36  H   UNL     1       7.024  24.611  53.240  1.00  0.00     0.167 HD
HETATM   37  N   UNL     1       7.437  26.128  55.464  1.00  0.00    -0.201 NA
ENDBRANCH  23  24
ENDBRANCH  22  23
ENDBRANCH   1  22
TORSDOF 9
ENDMDL
MODEL 9
REMARK VINA RESULT:      -9.5      1.662      2.304
REMARK  9 active torsions:
REMARK  status: ('A' for Active; 'I' for Inactive)
REMARK    1  A    between atoms: C_11  and  S_12 
REMARK    2  A    between atoms: S_12  and  C_13 
REMARK    3  A    between atoms: C_13  and  C_14 
REMARK       I    between atoms: C_14  and  N_15 
REMARK    4  A    between atoms: N_15  and  N_16 
REMARK    5  A    between atoms: N_16  and  C_17 
REMARK    6  A    between atoms: C_17  and  N_18 
REMARK    7  A    between atoms: N_18  and  C_19 
REMARK    8  A    between atoms: C_22  and  O_23 
REMARK    9  A    between atoms: O_23  and  C_24 
ROOT
HETATM    1  C   UNL     1       7.996  29.802  58.664  1.00  0.00     0.245 C 
HETATM    2  N   UNL     1       7.190  30.742  58.032  1.00  0.00    -0.267 N 
HETATM    3  O   UNL     1       8.554  30.021  59.735  1.00  0.00    -0.271 OA
HETATM    4  H   UNL     1       6.910  30.672  57.058  1.00  0.00     0.190 HD
ENDROOT
BRANCH   2   5
HETATM    5  N   UNL     1       6.900  31.935  58.702  1.00  0.00    -0.274 N 
HETATM    6  H   UNL     1       7.249  32.773  58.250  1.00  0.00     0.189 HD
BRANCH   5   7
HETATM    7  C   UNL     1       5.858  32.035  59.591  1.00  0.00     0.191 C 
HETATM    8  S   UNL     1       4.244  32.135  59.151  1.00  0.00    -0.039 SA
BRANCH   7   9
HETATM    9  N   UNL     1       6.161  31.895  60.921  1.00  0.00    -0.332 N 
HETATM   10  H   UNL     1       6.630  31.020  61.133  1.00  0.00     0.168 HD
BRANCH   9  11
HETATM   11  C   UNL     1       5.891  32.737  62.018  1.00  0.00     0.034 A 
HETATM   12  C   UNL     1       5.959  34.130  61.964  1.00  0.00     0.032 A 
HETATM   13  C   UNL     1       5.714  34.896  63.109  1.00  0.00     0.039 A 
HETATM   14  C   UNL     1       5.368  34.287  64.317  1.00  0.00     0.078 A 
HETATM   15  C   UNL     1       5.233  32.900  64.357  1.00  0.00     0.039 A 
HETATM   16  C   UNL     1       5.482  32.133  63.210  1.00  0.00     0.032 A 
BRANCH  14  17
HETATM   17  O   UNL     1       5.182  35.154  65.355  1.00  0.00    -0.255 OA
BRANCH  17  18
HETATM   18  C   UNL     1       3.983  35.045  66.100  1.00  0.00     0.530 C 
HETATM   19  F   UNL     1       3.721  36.189  66.768  1.00  0.00    -0.144 F 
HETATM   20  F   UNL     1       2.937  34.737  65.303  1.00  0.00    -0.144 F 
HETATM   21  F   UNL     1       4.124  34.052  67.007  1.00  0.00    -0.144 F 
ENDBRANCH  17  18
ENDBRANCH  14  17
ENDBRANCH   9  11
ENDBRANCH   7   9
ENDBRANCH   5   7
ENDBRANCH   2   5
BRANCH   1  22
HETATM   22  C   UNL     1       8.035  28.481  57.907  1.00  0.00     0.187 C 
BRANCH  22  23
HETATM   23  S   UNL     1       6.897  28.386  56.495  1.00  0.00    -0.079 SA
BRANCH  23  24
HETATM   24  C   UNL     1       6.959  26.637  56.152  1.00  0.00     0.211 A 
HETATM   25  N   UNL     1       6.945  25.772  57.208  1.00  0.00    -0.122 NA
HETATM   26  N   UNL     1       7.118  24.460  57.022  1.00  0.00    -0.143 NA
HETATM   27  C   UNL     1       7.293  24.057  55.737  1.00  0.00     0.137 A 
HETATM   28  C   UNL     1       7.558  22.787  55.160  1.00  0.00     0.025 A 
HETATM   29  C   UNL     1       7.236  24.984  54.712  1.00  0.00     0.162 A 
HETATM   30  C   UNL     1       7.753  21.489  55.675  1.00  0.00     0.016 A 
HETATM   31  C   UNL     1       7.635  22.979  53.775  1.00  0.00     0.046 A 
HETATM   32  C   UNL     1       8.017  20.436  54.792  1.00  0.00     0.001 A 
HETATM   33  C   UNL     1       8.081  20.657  53.417  1.00  0.00     0.002 A 
HETATM   34  C   UNL     1       7.890  21.933  52.881  1.00  0.00     0.030 A 
HETATM   35  N   UNL     1       7.424  24.320  53.536  1.00  0.00    -0.338 N 
HETATM   36  H   UNL     1       7.435  24.768  52.631  1.00  0.00     0.167 HD
HETATM   37  N   UNL     1       7.050  26.306  54.847  1.00  0.00    -0.201 NA
ENDBRANCH  23  24
ENDBRANCH  22  23
ENDBRANCH   1  22
TORSDOF 9
ENDMDL
MODEL 10
REMARK VINA RESULT:      -9.4      1.940      2.663
REMARK  9 active torsions:
REMARK  status: ('A' for Active; 'I' for Inactive)
REMARK    1  A    between atoms: C_11  and  S_12 
REMARK    2  A    between atoms: S_12  and  C_13 
REMARK    3  A    between atoms: C_13  and  C_14 
REMARK       I    between atoms: C_14  and  N_15 
REMARK    4  A    between atoms: N_15  and  N_16 
REMARK    5  A    between atoms: N_16  and  C_17 
REMARK    6  A    between atoms: C_17  and  N_18 
REMARK    7  A    between atoms: N_18  and  C_19 
REMARK    8  A    between atoms: C_22  and  O_23 
REMARK    9  A    between atoms: O_23  and  C_24 
ROOT
HETATM    1  C   UNL     1       5.417  29.159  57.323  1.00  0.00     0.245 C 
HETATM    2  N   UNL     1       4.433  29.924  57.938  1.00  0.00    -0.267 N 
HETATM    3  O   UNL     1       6.616  29.391  57.455  1.00  0.00    -0.271 OA
HETATM    4  H   UNL     1       3.455  29.898  57.668  1.00  0.00     0.190 HD
ENDROOT
BRANCH   2   5
HETATM    5  N   UNL     1       4.824  30.915  58.845  1.00  0.00    -0.274 N 
HETATM    6  H   UNL     1       5.243  30.569  59.701  1.00  0.00     0.189 HD
BRANCH   5   7
HETATM    7  C   UNL     1       5.077  32.205  58.448  1.00  0.00     0.191 C 
HETATM    8  S   UNL     1       4.675  32.829  56.945  1.00  0.00    -0.039 SA
BRANCH   7   9
HETATM    9  N   UNL     1       5.555  33.067  59.401  1.00  0.00    -0.332 N 
HETATM   10  H   UNL     1       6.111  33.822  59.014  1.00  0.00     0.168 HD
BRANCH   9  11
HETATM   11  C   UNL     1       5.432  33.043  60.805  1.00  0.00     0.034 A 
HETATM   12  C   UNL     1       6.399  32.513  61.660  1.00  0.00     0.032 A 
HETATM   13  C   UNL     1       6.186  32.492  63.043  1.00  0.00     0.039 A 
HETATM   14  C   UNL     1       5.020  33.025  63.596  1.00  0.00     0.078 A 
HETATM   15  C   UNL     1       4.083  33.616  62.749  1.00  0.00     0.039 A 
HETATM   16  C   UNL     1       4.296  33.635  61.364  1.00  0.00     0.032 A 
BRANCH  14  17
HETATM   17  O   UNL     1       4.935  32.914  64.954  1.00  0.00    -0.255 OA
BRANCH  17  18
HETATM   18  C   UNL     1       5.621  33.872  65.740  1.00  0.00     0.530 C 
HETATM   19  F   UNL     1       5.677  35.065  65.111  1.00  0.00    -0.144 F 
HETATM   20  F   UNL     1       5.036  34.025  66.947  1.00  0.00    -0.144 F 
HETATM   21  F   UNL     1       6.887  33.442  65.940  1.00  0.00    -0.144 F 
ENDBRANCH  17  18
ENDBRANCH  14  17
ENDBRANCH   9  11
ENDBRANCH   7   9
ENDBRANCH   5   7
ENDBRANCH   2   5
BRANCH   1  22
HETATM   22  C   UNL     1       4.829  27.991  56.544  1.00  0.00     0.187 C 
BRANCH  22  23
HETATM   23  S   UNL     1       5.541  27.749  54.891  1.00  0.00    -0.079 SA
BRANCH  23  24
HETATM   24  C   UNL     1       6.062  26.049  55.013  1.00  0.00     0.211 A 
HETATM   25  N   UNL     1       6.269  25.525  56.257  1.00  0.00    -0.122 NA
HETATM   26  N   UNL     1       6.783  24.300  56.408  1.00  0.00    -0.143 NA
HETATM   27  C   UNL     1       7.065  23.625  55.265  1.00  0.00     0.137 A 
HETATM   28  C   UNL     1       7.658  22.358  55.023  1.00  0.00     0.025 A 
HETATM   29  C   UNL     1       6.773  24.196  54.039  1.00  0.00     0.162 A 
HETATM   30  C   UNL     1       8.184  21.340  55.844  1.00  0.00     0.016 A 
HETATM   31  C   UNL     1       7.691  22.184  53.634  1.00  0.00     0.046 A 
HETATM   32  C   UNL     1       8.722  20.192  55.252  1.00  0.00     0.001 A 
HETATM   33  C   UNL     1       8.735  20.044  53.866  1.00  0.00     0.002 A 
HETATM   34  C   UNL     1       8.218  21.037  53.029  1.00  0.00     0.030 A 
HETATM   35  N   UNL     1       7.137  23.312  53.067  1.00  0.00    -0.338 N 
HETATM   36  H   UNL     1       7.035  23.487  52.078  1.00  0.00     0.167 HD
HETATM   37  N   UNL     1       6.245  25.413  53.836  1.00  0.00    -0.201 NA
ENDBRANCH  23  24
ENDBRANCH  22  23
ENDBRANCH   1  22
TORSDOF 9
ENDMDL
