MODEL 1
REMARK VINA RESULT:      -9.8      0.000      0.000
REMARK  7 active torsions:
REMARK  status: ('A' for Active; 'I' for Inactive)
REMARK    1  A    between atoms: C_2  and  O_3 
REMARK    2  A    between atoms: O_3  and  C_4 
REMARK    3  A    between atoms: C_4  and  C_5 
REMARK    4  A    between atoms: C_6  and  C_7 
REMARK    5  A    between atoms: C_18  and  S_19 
REMARK    6  A    between atoms: S_19  and  C_20 
REMARK    7  A    between atoms: C_20  and  C_21 
ROOT
HETATM    1  C   UNL     1       3.972  30.035  55.395  1.00  0.00     0.070 C 
HETATM    2  C   UNL     1       4.634  28.664  55.455  1.00  0.00     0.203 C 
HETATM    3  N   UNL     1       4.718  28.058  54.124  1.00  0.00    -0.082 N 
HETATM    4  C   UNL     1       4.420  28.711  52.961  1.00  0.00     0.726 A 
HETATM    5  N   UNL     1       3.984  29.985  53.017  1.00  0.00    -0.192 N 
HETATM    6  N   UNL     1       5.002  26.761  53.901  1.00  0.00    -0.128 NA
HETATM    7  C   UNL     1       4.941  26.719  52.564  1.00  0.00     0.226 A 
HETATM    8  N   UNL     1       4.592  27.898  51.950  1.00  0.00    -0.035 NA
HETATM    9  C   UNL     1       3.691  30.637  54.213  1.00  0.00     0.037 C 
HETATM   10  C   UNL     1       3.031  31.987  54.079  1.00  0.00     0.070 C 
HETATM   11  H   UNL     1       3.701  30.442  52.153  1.00  0.00     0.184 HD
ENDROOT
BRANCH   7  12
HETATM   12  S   UNL     1       5.233  25.234  51.711  1.00  0.00    -0.083 SA
BRANCH  12  13
HETATM   13  C   UNL     1       7.032  25.119  51.885  1.00  0.00     0.121 C 
BRANCH  13  14
HETATM   14  C   UNL     1       7.410  24.252  53.061  1.00  0.00    -0.048 A 
HETATM   15  C   UNL     1       7.612  22.872  52.894  1.00  0.00     0.020 A 
HETATM   16  C   UNL     1       8.006  22.057  53.968  1.00  0.00    -0.025 A 
HETATM   17  C   UNL     1       8.199  22.635  55.241  1.00  0.00    -0.026 A 
HETATM   18  C   UNL     1       8.222  20.679  53.800  1.00  0.00     0.012 A 
HETATM   19  C   UNL     1       7.993  24.014  55.406  1.00  0.00     0.013 A 
HETATM   20  C   UNL     1       8.600  21.821  56.313  1.00  0.00     0.012 A 
HETATM   21  C   UNL     1       7.607  24.815  54.328  1.00  0.00     0.009 A 
HETATM   22  C   UNL     1       8.812  20.454  56.130  1.00  0.00     0.001 A 
HETATM   23  C   UNL     1       8.623  19.883  54.875  1.00  0.00     0.001 A 
ENDBRANCH  13  14
ENDBRANCH  12  13
ENDBRANCH   7  12
BRANCH   2  24
HETATM   24  C   UNL     1       6.026  28.711  56.086  1.00  0.00    -0.028 A 
HETATM   25  C   UNL     1       7.087  29.323  55.393  1.00  0.00     0.012 A 
HETATM   26  C   UNL     1       8.364  29.375  55.954  1.00  0.00     0.043 A 
HETATM   27  C   UNL     1       8.587  28.819  57.207  1.00  0.00     0.116 A 
HETATM   28  F   UNL     1       9.813  28.872  57.743  1.00  0.00    -0.206 F 
HETATM   29  C   UNL     1       7.556  28.214  57.914  1.00  0.00     0.043 A 
HETATM   30  C   UNL     1       6.277  28.160  57.358  1.00  0.00     0.012 A 
ENDBRANCH   2  24
BRANCH   1  31
HETATM   31  C   UNL     1       3.701  30.684  56.696  1.00  0.00     0.293 C 
HETATM   32  O   UNL     1       2.726  30.456  57.392  1.00  0.00    -0.259 OA
BRANCH  31  33
HETATM   33  O   UNL     1       4.699  31.559  56.973  1.00  0.00    -0.318 OA
BRANCH  33  34
HETATM   34  C   UNL     1       5.029  31.713  58.363  1.00  0.00     0.174 C 
HETATM   35  C   UNL     1       6.535  31.694  58.547  1.00  0.00     0.034 C 
ENDBRANCH  33  34
ENDBRANCH  31  33
ENDBRANCH   1  31
TORSDOF 7
ENDMDL
MODEL 2
REMARK VINA RESULT:      -9.6      3.827      8.621
REMARK  7 active torsions:
REMARK  status: ('A' for Active; 'I' for Inactive)
REMARK    1  A    between atoms: C_2  and  O_3 
REMARK    2  A    between atoms: O_3  and  C_4 
REMARK    3  A    between atoms: C_4  and  C_5 
REMARK    4  A    between atoms: C_6  and  C_7 
REMARK    5  A    between atoms: C_18  and  S_19 
REMARK    6  A    between atoms: S_19  and  C_20 
REMARK    7  A    between atoms: C_20  and  C_21 
ROOT
HETATM    1  C   UNL     1       5.424  27.562  52.715  1.00  0.00     0.070 C 
HETATM    2  C   UNL     1       6.715  27.301  53.480  1.00  0.00     0.203 C 
HETATM    3  N   UNL     1       6.676  27.917  54.809  1.00  0.00    -0.082 N 
HETATM    4  C   UNL     1       5.562  28.484  55.362  1.00  0.00     0.726 A 
HETATM    5  N   UNL     1       4.422  28.523  54.646  1.00  0.00    -0.192 N 
HETATM    6  N   UNL     1       7.755  28.083  55.596  1.00  0.00    -0.128 NA
HETATM    7  C   UNL     1       7.201  28.687  56.654  1.00  0.00     0.226 A 
HETATM    8  N   UNL     1       5.854  28.945  56.551  1.00  0.00    -0.035 NA
HETATM    9  C   UNL     1       4.348  28.134  53.310  1.00  0.00     0.037 C 
HETATM   10  C   UNL     1       3.044  28.429  52.611  1.00  0.00     0.070 C 
HETATM   11  H   UNL     1       3.616  29.006  55.038  1.00  0.00     0.184 HD
ENDROOT
BRANCH   7  12
HETATM   12  S   UNL     1       8.172  29.150  58.019  1.00  0.00    -0.083 SA
BRANCH  12  13
HETATM   13  C   UNL     1       7.633  30.867  58.222  1.00  0.00     0.121 C 
BRANCH  13  14
HETATM   14  C   UNL     1       7.762  31.311  59.659  1.00  0.00    -0.048 A 
HETATM   15  C   UNL     1       6.952  32.344  60.161  1.00  0.00     0.020 A 
HETATM   16  C   UNL     1       7.028  32.741  61.506  1.00  0.00    -0.025 A 
HETATM   17  C   UNL     1       7.938  32.092  62.369  1.00  0.00    -0.026 A 
HETATM   18  C   UNL     1       6.210  33.763  62.015  1.00  0.00     0.012 A 
HETATM   19  C   UNL     1       8.748  31.064  61.864  1.00  0.00     0.013 A 
HETATM   20  C   UNL     1       8.008  32.485  63.716  1.00  0.00     0.012 A 
HETATM   21  C   UNL     1       8.658  30.673  60.525  1.00  0.00     0.009 A 
HETATM   22  C   UNL     1       7.188  33.502  64.206  1.00  0.00     0.001 A 
HETATM   23  C   UNL     1       6.290  34.142  63.356  1.00  0.00     0.001 A 
ENDBRANCH  13  14
ENDBRANCH  12  13
ENDBRANCH   7  12
BRANCH   2  24
HETATM   24  C   UNL     1       7.027  25.810  53.615  1.00  0.00    -0.028 A 
HETATM   25  C   UNL     1       6.441  25.065  54.655  1.00  0.00     0.012 A 
HETATM   26  C   UNL     1       6.714  23.704  54.793  1.00  0.00     0.043 A 
HETATM   27  C   UNL     1       7.571  23.080  53.894  1.00  0.00     0.116 A 
HETATM   28  F   UNL     1       7.830  21.773  54.028  1.00  0.00    -0.206 F 
HETATM   29  C   UNL     1       8.158  23.792  52.856  1.00  0.00     0.043 A 
HETATM   30  C   UNL     1       7.887  25.153  52.713  1.00  0.00     0.012 A 
ENDBRANCH   2  24
BRANCH   1  31
HETATM   31  C   UNL     1       5.400  27.112  51.306  1.00  0.00     0.293 C 
HETATM   32  O   UNL     1       5.021  26.013  50.938  1.00  0.00    -0.259 OA
BRANCH  31  33
HETATM   33  O   UNL     1       5.865  28.108  50.512  1.00  0.00    -0.318 OA
BRANCH  33  34
HETATM   34  C   UNL     1       5.182  28.282  49.260  1.00  0.00     0.174 C 
HETATM   35  C   UNL     1       4.434  29.601  49.252  1.00  0.00     0.034 C 
ENDBRANCH  33  34
ENDBRANCH  31  33
ENDBRANCH   1  31
TORSDOF 7
ENDMDL
MODEL 3
REMARK VINA RESULT:      -9.6      4.075      6.181
REMARK  7 active torsions:
REMARK  status: ('A' for Active; 'I' for Inactive)
REMARK    1  A    between atoms: C_2  and  O_3 
REMARK    2  A    between atoms: O_3  and  C_4 
REMARK    3  A    between atoms: C_4  and  C_5 
REMARK    4  A    between atoms: C_6  and  C_7 
REMARK    5  A    between atoms: C_18  and  S_19 
REMARK    6  A    between atoms: S_19  and  C_20 
REMARK    7  A    between atoms: C_20  and  C_21 
ROOT
HETATM    1  C   UNL     1       3.647  27.995  49.332  1.00  0.00     0.070 C 
HETATM    2  C   UNL     1       3.621  28.616  50.723  1.00  0.00     0.203 C 
HETATM    3  N   UNL     1       4.409  27.823  51.671  1.00  0.00    -0.082 N 
HETATM    4  C   UNL     1       5.215  26.778  51.317  1.00  0.00     0.726 A 
HETATM    5  N   UNL     1       5.280  26.409  50.023  1.00  0.00    -0.192 N 
HETATM    6  N   UNL     1       4.353  27.970  53.008  1.00  0.00    -0.128 NA
HETATM    7  C   UNL     1       5.221  27.030  53.398  1.00  0.00     0.226 A 
HETATM    8  N   UNL     1       5.777  26.280  52.389  1.00  0.00    -0.035 NA
HETATM    9  C   UNL     1       4.462  26.953  49.034  1.00  0.00     0.037 C 
HETATM   10  C   UNL     1       4.533  26.285  47.683  1.00  0.00     0.070 C 
HETATM   11  H   UNL     1       5.830  25.589  49.776  1.00  0.00     0.184 HD
ENDROOT
BRANCH   7  12
HETATM   12  S   UNL     1       5.547  26.771  55.085  1.00  0.00    -0.083 SA
BRANCH  12  13
HETATM   13  C   UNL     1       7.328  26.450  55.017  1.00  0.00     0.121 C 
BRANCH  13  14
HETATM   14  C   UNL     1       7.622  24.979  55.184  1.00  0.00    -0.048 A 
HETATM   15  C   UNL     1       7.636  24.124  54.070  1.00  0.00     0.020 A 
HETATM   16  C   UNL     1       7.950  22.761  54.201  1.00  0.00    -0.025 A 
HETATM   17  C   UNL     1       8.254  22.240  55.478  1.00  0.00    -0.026 A 
HETATM   18  C   UNL     1       7.979  21.906  53.087  1.00  0.00     0.012 A 
HETATM   19  C   UNL     1       8.236  23.096  56.589  1.00  0.00     0.013 A 
HETATM   20  C   UNL     1       8.575  20.879  55.607  1.00  0.00     0.012 A 
HETATM   21  C   UNL     1       7.928  24.452  56.444  1.00  0.00     0.009 A 
HETATM   22  C   UNL     1       8.600  20.042  54.490  1.00  0.00     0.001 A 
HETATM   23  C   UNL     1       8.302  20.555  53.230  1.00  0.00     0.001 A 
ENDBRANCH  13  14
ENDBRANCH  12  13
ENDBRANCH   7  12
BRANCH   2  24
HETATM   24  C   UNL     1       4.114  30.063  50.730  1.00  0.00    -0.028 A 
HETATM   25  C   UNL     1       5.375  30.374  50.190  1.00  0.00     0.012 A 
HETATM   26  C   UNL     1       5.841  31.689  50.188  1.00  0.00     0.043 A 
HETATM   27  C   UNL     1       5.051  32.699  50.723  1.00  0.00     0.116 A 
HETATM   28  F   UNL     1       5.500  33.961  50.718  1.00  0.00    -0.206 F 
HETATM   29  C   UNL     1       3.801  32.419  51.258  1.00  0.00     0.043 A 
HETATM   30  C   UNL     1       3.329  31.106  51.261  1.00  0.00     0.012 A 
ENDBRANCH   2  24
BRANCH   1  31
HETATM   31  C   UNL     1       2.771  28.626  48.321  1.00  0.00     0.293 C 
HETATM   32  O   UNL     1       3.159  29.376  47.441  1.00  0.00    -0.259 OA
BRANCH  31  33
HETATM   33  O   UNL     1       1.490  28.237  48.538  1.00  0.00    -0.318 OA
BRANCH  33  34
HETATM   34  C   UNL     1       0.995  27.202  47.673  1.00  0.00     0.174 C 
HETATM   35  C   UNL     1       0.066  27.794  46.630  1.00  0.00     0.034 C 
ENDBRANCH  33  34
ENDBRANCH  31  33
ENDBRANCH   1  31
TORSDOF 7
ENDMDL
MODEL 4
REMARK VINA RESULT:      -9.5      2.329      3.451
REMARK  7 active torsions:
REMARK  status: ('A' for Active; 'I' for Inactive)
REMARK    1  A    between atoms: C_2  and  O_3 
REMARK    2  A    between atoms: O_3  and  C_4 
REMARK    3  A    between atoms: C_4  and  C_5 
REMARK    4  A    between atoms: C_6  and  C_7 
REMARK    5  A    between atoms: C_18  and  S_19 
REMARK    6  A    between atoms: S_19  and  C_20 
REMARK    7  A    between atoms: C_20  and  C_21 
ROOT
HETATM    1  C   UNL     1       4.919  32.283  57.371  1.00  0.00     0.070 C 
HETATM    2  C   UNL     1       5.474  31.086  58.131  1.00  0.00     0.203 C 
HETATM    3  N   UNL     1       5.745  29.965  57.226  1.00  0.00    -0.082 N 
HETATM    4  C   UNL     1       5.689  30.045  55.863  1.00  0.00     0.726 A 
HETATM    5  N   UNL     1       5.331  31.210  55.288  1.00  0.00    -0.192 N 
HETATM    6  N   UNL     1       5.982  28.704  57.636  1.00  0.00    -0.128 NA
HETATM    7  C   UNL     1       6.145  28.087  56.460  1.00  0.00     0.226 A 
HETATM    8  N   UNL     1       5.979  28.878  55.347  1.00  0.00    -0.035 NA
HETATM    9  C   UNL     1       4.881  32.310  56.015  1.00  0.00     0.037 C 
HETATM   10  C   UNL     1       4.338  33.457  55.200  1.00  0.00     0.070 C 
HETATM   11  H   UNL     1       5.227  31.243  54.277  1.00  0.00     0.184 HD
ENDROOT
BRANCH   7  12
HETATM   12  S   UNL     1       6.484  26.384  56.393  1.00  0.00    -0.083 SA
BRANCH  12  13
HETATM   13  C   UNL     1       6.611  26.158  54.600  1.00  0.00     0.121 C 
BRANCH  13  14
HETATM   14  C   UNL     1       7.146  24.788  54.261  1.00  0.00    -0.048 A 
HETATM   15  C   UNL     1       7.325  23.825  55.268  1.00  0.00     0.020 A 
HETATM   16  C   UNL     1       7.781  22.530  54.966  1.00  0.00    -0.025 A 
HETATM   17  C   UNL     1       8.069  22.193  53.626  1.00  0.00    -0.026 A 
HETATM   18  C   UNL     1       7.947  21.560  55.968  1.00  0.00     0.012 A 
HETATM   19  C   UNL     1       7.893  23.159  52.623  1.00  0.00     0.013 A 
HETATM   20  C   UNL     1       8.517  20.898  53.324  1.00  0.00     0.012 A 
HETATM   21  C   UNL     1       7.432  24.441  52.936  1.00  0.00     0.009 A 
HETATM   22  C   UNL     1       8.677  19.944  54.331  1.00  0.00     0.001 A 
HETATM   23  C   UNL     1       8.392  20.276  55.653  1.00  0.00     0.001 A 
ENDBRANCH  13  14
ENDBRANCH  12  13
ENDBRANCH   7  12
BRANCH   2  24
HETATM   24  C   UNL     1       6.740  31.425  58.919  1.00  0.00    -0.028 A 
HETATM   25  C   UNL     1       8.003  31.200  58.343  1.00  0.00     0.012 A 
HETATM   26  C   UNL     1       9.169  31.504  59.048  1.00  0.00     0.043 A 
HETATM   27  C   UNL     1       9.078  32.035  60.328  1.00  0.00     0.116 A 
HETATM   28  F   UNL     1      10.198  32.327  61.002  1.00  0.00    -0.206 F 
HETATM   29  C   UNL     1       7.843  32.271  60.917  1.00  0.00     0.043 A 
HETATM   30  C   UNL     1       6.675  31.970  60.216  1.00  0.00     0.012 A 
ENDBRANCH   2  24
BRANCH   1  31
HETATM   31  C   UNL     1       4.473  33.427  58.196  1.00  0.00     0.293 C 
HETATM   32  O   UNL     1       5.007  34.523  58.204  1.00  0.00    -0.259 OA
BRANCH  31  33
HETATM   33  O   UNL     1       3.392  33.055  58.925  1.00  0.00    -0.318 OA
BRANCH  33  34
HETATM   34  C   UNL     1       3.150  33.815  60.119  1.00  0.00     0.174 C 
HETATM   35  C   UNL     1       3.332  32.936  61.342  1.00  0.00     0.034 C 
ENDBRANCH  33  34
ENDBRANCH  31  33
ENDBRANCH   1  31
TORSDOF 7
ENDMDL
MODEL 5
REMARK VINA RESULT:      -9.3      4.311      6.169
REMARK  7 active torsions:
REMARK  status: ('A' for Active; 'I' for Inactive)
REMARK    1  A    between atoms: C_2  and  O_3 
REMARK    2  A    between atoms: O_3  and  C_4 
REMARK    3  A    between atoms: C_4  and  C_5 
REMARK    4  A    between atoms: C_6  and  C_7 
REMARK    5  A    between atoms: C_18  and  S_19 
REMARK    6  A    between atoms: S_19  and  C_20 
REMARK    7  A    between atoms: C_20  and  C_21 
ROOT
HETATM    1  C   UNL     1       3.861  30.442  50.169  1.00  0.00     0.070 C 
HETATM    2  C   UNL     1       4.575  29.101  50.282  1.00  0.00     0.203 C 
HETATM    3  N   UNL     1       4.461  28.554  51.637  1.00  0.00    -0.082 N 
HETATM    4  C   UNL     1       3.663  29.078  52.615  1.00  0.00     0.726 A 
HETATM    5  N   UNL     1       2.950  30.191  52.353  1.00  0.00    -0.192 N 
HETATM    6  N   UNL     1       5.204  27.533  52.104  1.00  0.00    -0.128 NA
HETATM    7  C   UNL     1       4.739  27.438  53.355  1.00  0.00     0.226 A 
HETATM    8  N   UNL     1       3.787  28.366  53.705  1.00  0.00    -0.035 NA
HETATM    9  C   UNL     1       3.085  30.921  51.173  1.00  0.00     0.037 C 
HETATM   10  C   UNL     1       2.357  32.241  51.132  1.00  0.00     0.070 C 
HETATM   11  H   UNL     1       2.411  30.613  53.105  1.00  0.00     0.184 HD
ENDROOT
BRANCH   7  12
HETATM   12  S   UNL     1       5.370  26.242  54.447  1.00  0.00    -0.083 SA
BRANCH  12  13
HETATM   13  C   UNL     1       7.007  25.982  53.715  1.00  0.00     0.121 C 
BRANCH  13  14
HETATM   14  C   UNL     1       7.448  24.546  53.867  1.00  0.00    -0.048 A 
HETATM   15  C   UNL     1       7.657  23.996  55.143  1.00  0.00     0.020 A 
HETATM   16  C   UNL     1       8.025  22.650  55.305  1.00  0.00    -0.025 A 
HETATM   17  C   UNL     1       8.192  21.835  54.164  1.00  0.00    -0.026 A 
HETATM   18  C   UNL     1       8.221  22.093  56.579  1.00  0.00     0.012 A 
HETATM   19  C   UNL     1       7.986  22.389  52.891  1.00  0.00     0.013 A 
HETATM   20  C   UNL     1       8.552  20.488  54.327  1.00  0.00     0.012 A 
HETATM   21  C   UNL     1       7.613  23.728  52.743  1.00  0.00     0.009 A 
HETATM   22  C   UNL     1       8.743  19.949  55.600  1.00  0.00     0.001 A 
HETATM   23  C   UNL     1       8.577  20.751  56.726  1.00  0.00     0.001 A 
ENDBRANCH  13  14
ENDBRANCH  12  13
ENDBRANCH   7  12
BRANCH   2  24
HETATM   24  C   UNL     1       4.063  28.076  49.271  1.00  0.00    -0.028 A 
HETATM   25  C   UNL     1       4.978  27.267  48.572  1.00  0.00     0.012 A 
HETATM   26  C   UNL     1       4.528  26.325  47.645  1.00  0.00     0.043 A 
HETATM   27  C   UNL     1       3.165  26.185  47.414  1.00  0.00     0.116 A 
HETATM   28  F   UNL     1       2.736  25.280  46.525  1.00  0.00    -0.206 F 
HETATM   29  C   UNL     1       2.242  26.968  48.094  1.00  0.00     0.043 A 
HETATM   30  C   UNL     1       2.686  27.910  49.023  1.00  0.00     0.012 A 
ENDBRANCH   2  24
BRANCH   1  31
HETATM   31  C   UNL     1       4.028  31.162  48.888  1.00  0.00     0.293 C 
HETATM   32  O   UNL     1       3.114  31.450  48.134  1.00  0.00    -0.259 OA
BRANCH  31  33
HETATM   33  O   UNL     1       5.342  31.438  48.700  1.00  0.00    -0.318 OA
BRANCH  33  34
HETATM   34  C   UNL     1       5.780  32.732  49.143  1.00  0.00     0.174 C 
HETATM   35  C   UNL     1       6.504  33.450  48.020  1.00  0.00     0.034 C 
ENDBRANCH  33  34
ENDBRANCH  31  33
ENDBRANCH   1  31
TORSDOF 7
ENDMDL
MODEL 6
REMARK VINA RESULT:      -9.0      5.388     10.014
REMARK  7 active torsions:
REMARK  status: ('A' for Active; 'I' for Inactive)
REMARK    1  A    between atoms: C_2  and  O_3 
REMARK    2  A    between atoms: O_3  and  C_4 
REMARK    3  A    between atoms: C_4  and  C_5 
REMARK    4  A    between atoms: C_6  and  C_7 
REMARK    5  A    between atoms: C_18  and  S_19 
REMARK    6  A    between atoms: S_19  and  C_20 
REMARK    7  A    between atoms: C_20  and  C_21 
ROOT
HETATM    1  C   UNL     1       6.548  30.110  57.763  1.00  0.00     0.070 C 
HETATM    2  C   UNL     1       6.613  31.592  58.109  1.00  0.00     0.203 C 
HETATM    3  N   UNL     1       5.303  32.230  57.947  1.00  0.00    -0.082 N 
HETATM    4  C   UNL     1       4.142  31.553  57.703  1.00  0.00     0.726 A 
HETATM    5  N   UNL     1       4.180  30.213  57.564  1.00  0.00    -0.192 N 
HETATM    6  N   UNL     1       5.111  33.562  57.919  1.00  0.00    -0.128 NA
HETATM    7  C   UNL     1       3.786  33.619  57.739  1.00  0.00     0.226 A 
HETATM    8  N   UNL     1       3.154  32.405  57.607  1.00  0.00    -0.035 NA
HETATM    9  C   UNL     1       5.368  29.486  57.523  1.00  0.00     0.037 C 
HETATM   10  C   UNL     1       5.232  28.027  57.166  1.00  0.00     0.070 C 
HETATM   11  H   UNL     1       3.323  29.724  57.317  1.00  0.00     0.184 HD
ENDROOT
BRANCH   7  12
HETATM   12  S   UNL     1       2.973  35.150  57.624  1.00  0.00    -0.083 SA
BRANCH  12  13
HETATM   13  C   UNL     1       2.107  35.166  59.215  1.00  0.00     0.121 C 
BRANCH  13  14
HETATM   14  C   UNL     1       3.080  35.299  60.362  1.00  0.00    -0.048 A 
HETATM   15  C   UNL     1       3.018  34.418  61.455  1.00  0.00     0.020 A 
HETATM   16  C   UNL     1       3.941  34.499  62.510  1.00  0.00    -0.025 A 
HETATM   17  C   UNL     1       4.949  35.488  62.474  1.00  0.00    -0.026 A 
HETATM   18  C   UNL     1       3.891  33.611  63.597  1.00  0.00     0.012 A 
HETATM   19  C   UNL     1       5.006  36.369  61.383  1.00  0.00     0.013 A 
HETATM   20  C   UNL     1       5.876  35.564  63.525  1.00  0.00     0.012 A 
HETATM   21  C   UNL     1       4.085  36.273  60.335  1.00  0.00     0.009 A 
HETATM   22  C   UNL     1       5.814  34.673  64.598  1.00  0.00     0.001 A 
HETATM   23  C   UNL     1       4.821  33.697  64.634  1.00  0.00     0.001 A 
ENDBRANCH  13  14
ENDBRANCH  12  13
ENDBRANCH   7  12
BRANCH   2  24
HETATM   24  C   UNL     1       7.132  31.842  59.525  1.00  0.00    -0.028 A 
HETATM   25  C   UNL     1       8.512  32.002  59.745  1.00  0.00     0.012 A 
HETATM   26  C   UNL     1       9.004  32.231  61.031  1.00  0.00     0.043 A 
HETATM   27  C   UNL     1       8.121  32.304  62.102  1.00  0.00     0.116 A 
HETATM   28  F   UNL     1       8.595  32.525  63.334  1.00  0.00    -0.206 F 
HETATM   29  C   UNL     1       6.754  32.153  61.910  1.00  0.00     0.043 A 
HETATM   30  C   UNL     1       6.257  31.925  60.627  1.00  0.00     0.012 A 
ENDBRANCH   2  24
BRANCH   1  31
HETATM   31  C   UNL     1       7.839  29.388  57.750  1.00  0.00     0.293 C 
HETATM   32  O   UNL     1       8.124  28.469  58.500  1.00  0.00    -0.259 OA
BRANCH  31  33
HETATM   33  O   UNL     1       8.634  29.913  56.785  1.00  0.00    -0.318 OA
BRANCH  33  34
HETATM   34  C   UNL     1       9.922  29.297  56.630  1.00  0.00     0.174 C 
HETATM   35  C   UNL     1      10.988  30.138  57.306  1.00  0.00     0.034 C 
ENDBRANCH  33  34
ENDBRANCH  31  33
ENDBRANCH   1  31
TORSDOF 7
ENDMDL
MODEL 7
REMARK VINA RESULT:      -8.9      4.091      8.922
REMARK  7 active torsions:
REMARK  status: ('A' for Active; 'I' for Inactive)
REMARK    1  A    between atoms: C_2  and  O_3 
REMARK    2  A    between atoms: O_3  and  C_4 
REMARK    3  A    between atoms: C_4  and  C_5 
REMARK    4  A    between atoms: C_6  and  C_7 
REMARK    5  A    between atoms: C_18  and  S_19 
REMARK    6  A    between atoms: S_19  and  C_20 
REMARK    7  A    between atoms: C_20  and  C_21 
ROOT
HETATM    1  C   UNL     1       5.919  26.456  52.777  1.00  0.00     0.070 C 
HETATM    2  C   UNL     1       5.103  27.573  53.413  1.00  0.00     0.203 C 
HETATM    3  N   UNL     1       5.863  28.249  54.467  1.00  0.00    -0.082 N 
HETATM    4  C   UNL     1       7.190  28.036  54.717  1.00  0.00     0.726 A 
HETATM    5  N   UNL     1       7.857  27.125  53.983  1.00  0.00    -0.192 N 
HETATM    6  N   UNL     1       5.319  29.083  55.373  1.00  0.00    -0.128 NA
HETATM    7  C   UNL     1       6.400  29.405  56.095  1.00  0.00     0.226 A 
HETATM    8  N   UNL     1       7.569  28.788  55.719  1.00  0.00    -0.035 NA
HETATM    9  C   UNL     1       7.234  26.283  53.064  1.00  0.00     0.037 C 
HETATM   10  C   UNL     1       8.099  25.195  52.479  1.00  0.00     0.070 C 
HETATM   11  H   UNL     1       8.826  26.924  54.219  1.00  0.00     0.184 HD
ENDROOT
BRANCH   7  12
HETATM   12  S   UNL     1       6.271  30.491  57.445  1.00  0.00    -0.083 SA
BRANCH  12  13
HETATM   13  C   UNL     1       7.935  30.326  58.142  1.00  0.00     0.121 C 
BRANCH  13  14
HETATM   14  C   UNL     1       8.009  30.932  59.522  1.00  0.00    -0.048 A 
HETATM   15  C   UNL     1       7.070  31.895  59.928  1.00  0.00     0.020 A 
HETATM   16  C   UNL     1       7.097  32.438  61.224  1.00  0.00    -0.025 A 
HETATM   17  C   UNL     1       8.090  32.011  62.133  1.00  0.00    -0.026 A 
HETATM   18  C   UNL     1       6.152  33.391  61.638  1.00  0.00     0.012 A 
HETATM   19  C   UNL     1       9.028  31.052  61.723  1.00  0.00     0.013 A 
HETATM   20  C   UNL     1       8.112  32.549  63.430  1.00  0.00     0.012 A 
HETATM   21  C   UNL     1       8.986  30.514  60.433  1.00  0.00     0.009 A 
HETATM   22  C   UNL     1       7.164  33.494  63.827  1.00  0.00     0.001 A 
HETATM   23  C   UNL     1       6.185  33.915  62.931  1.00  0.00     0.001 A 
ENDBRANCH  13  14
ENDBRANCH  12  13
ENDBRANCH   7  12
BRANCH   2  24
HETATM   24  C   UNL     1       4.618  28.601  52.390  1.00  0.00    -0.028 A 
HETATM   25  C   UNL     1       5.554  29.327  51.632  1.00  0.00     0.012 A 
HETATM   26  C   UNL     1       5.129  30.270  50.694  1.00  0.00     0.043 A 
HETATM   27  C   UNL     1       3.770  30.490  50.508  1.00  0.00     0.116 A 
HETATM   28  F   UNL     1       3.365  31.394  49.607  1.00  0.00    -0.206 F 
HETATM   29  C   UNL     1       2.826  29.783  51.241  1.00  0.00     0.043 A 
HETATM   30  C   UNL     1       3.245  28.838  52.179  1.00  0.00     0.012 A 
ENDBRANCH   2  24
BRANCH   1  31
HETATM   31  C   UNL     1       5.208  25.606  51.797  1.00  0.00     0.293 C 
HETATM   32  O   UNL     1       4.500  24.658  52.090  1.00  0.00    -0.259 OA
BRANCH  31  33
HETATM   33  O   UNL     1       5.475  26.052  50.544  1.00  0.00    -0.318 OA
BRANCH  33  34
HETATM   34  C   UNL     1       4.356  26.101  49.645  1.00  0.00     0.174 C 
HETATM   35  C   UNL     1       4.549  27.213  48.631  1.00  0.00     0.034 C 
ENDBRANCH  33  34
ENDBRANCH  31  33
ENDBRANCH   1  31
TORSDOF 7
ENDMDL
MODEL 8
REMARK VINA RESULT:      -8.9      3.196      4.713
REMARK  7 active torsions:
REMARK  status: ('A' for Active; 'I' for Inactive)
REMARK    1  A    between atoms: C_2  and  O_3 
REMARK    2  A    between atoms: O_3  and  C_4 
REMARK    3  A    between atoms: C_4  and  C_5 
REMARK    4  A    between atoms: C_6  and  C_7 
REMARK    5  A    between atoms: C_18  and  S_19 
REMARK    6  A    between atoms: S_19  and  C_20 
REMARK    7  A    between atoms: C_20  and  C_21 
ROOT
HETATM    1  C   UNL     1       4.724  33.285  59.183  1.00  0.00     0.070 C 
HETATM    2  C   UNL     1       5.359  31.907  59.312  1.00  0.00     0.203 C 
HETATM    3  N   UNL     1       5.457  31.246  58.008  1.00  0.00    -0.082 N 
HETATM    4  C   UNL     1       5.191  31.855  56.814  1.00  0.00     0.726 A 
HETATM    5  N   UNL     1       4.778  33.137  56.810  1.00  0.00    -0.192 N 
HETATM    6  N   UNL     1       5.722  29.936  57.844  1.00  0.00    -0.128 NA
HETATM    7  C   UNL     1       5.683  29.839  56.510  1.00  0.00     0.226 A 
HETATM    8  N   UNL     1       5.367  30.998  55.841  1.00  0.00    -0.035 NA
HETATM    9  C   UNL     1       4.475  33.843  57.972  1.00  0.00     0.037 C 
HETATM   10  C   UNL     1       3.842  35.197  57.771  1.00  0.00     0.070 C 
HETATM   11  H   UNL     1       4.519  33.563  55.923  1.00  0.00     0.184 HD
ENDROOT
BRANCH   7  12
HETATM   12  S   UNL     1       5.963  28.315  55.723  1.00  0.00    -0.083 SA
BRANCH  12  13
HETATM   13  C   UNL     1       7.276  27.652  56.781  1.00  0.00     0.121 C 
BRANCH  13  14
HETATM   14  C   UNL     1       7.668  26.259  56.351  1.00  0.00    -0.048 A 
HETATM   15  C   UNL     1       7.353  25.796  55.062  1.00  0.00     0.020 A 
HETATM   16  C   UNL     1       7.748  24.519  54.630  1.00  0.00    -0.025 A 
HETATM   17  C   UNL     1       8.471  23.683  55.509  1.00  0.00    -0.026 A 
HETATM   18  C   UNL     1       7.448  24.059  53.337  1.00  0.00     0.012 A 
HETATM   19  C   UNL     1       8.780  24.147  56.797  1.00  0.00     0.013 A 
HETATM   20  C   UNL     1       8.871  22.410  55.074  1.00  0.00     0.012 A 
HETATM   21  C   UNL     1       8.387  25.423  57.213  1.00  0.00     0.009 A 
HETATM   22  C   UNL     1       8.566  21.967  53.785  1.00  0.00     0.001 A 
HETATM   23  C   UNL     1       7.854  22.791  52.918  1.00  0.00     0.001 A 
ENDBRANCH  13  14
ENDBRANCH  12  13
ENDBRANCH   7  12
BRANCH   2  24
HETATM   24  C   UNL     1       6.740  31.956  59.966  1.00  0.00    -0.028 A 
HETATM   25  C   UNL     1       6.855  31.859  61.365  1.00  0.00     0.012 A 
HETATM   26  C   UNL     1       8.108  31.901  61.979  1.00  0.00     0.043 A 
HETATM   27  C   UNL     1       9.251  32.038  61.200  1.00  0.00     0.116 A 
HETATM   28  F   UNL     1      10.451  32.077  61.791  1.00  0.00    -0.206 F 
HETATM   29  C   UNL     1       9.165  32.131  59.817  1.00  0.00     0.043 A 
HETATM   30  C   UNL     1       7.915  32.088  59.199  1.00  0.00     0.012 A 
ENDBRANCH   2  24
BRANCH   1  31
HETATM   31  C   UNL     1       4.441  33.993  60.451  1.00  0.00     0.293 C 
HETATM   32  O   UNL     1       5.045  34.977  60.843  1.00  0.00    -0.259 OA
BRANCH  31  33
HETATM   33  O   UNL     1       3.419  33.371  61.090  1.00  0.00    -0.318 OA
BRANCH  33  34
HETATM   34  C   UNL     1       2.377  34.226  61.585  1.00  0.00     0.174 C 
HETATM   35  C   UNL     1       2.240  34.064  63.087  1.00  0.00     0.034 C 
ENDBRANCH  33  34
ENDBRANCH  31  33
ENDBRANCH   1  31
TORSDOF 7
ENDMDL
MODEL 9
REMARK VINA RESULT:      -8.8      3.883      8.930
REMARK  7 active torsions:
REMARK  status: ('A' for Active; 'I' for Inactive)
REMARK    1  A    between atoms: C_2  and  O_3 
REMARK    2  A    between atoms: O_3  and  C_4 
REMARK    3  A    between atoms: C_4  and  C_5 
REMARK    4  A    between atoms: C_6  and  C_7 
REMARK    5  A    between atoms: C_18  and  S_19 
REMARK    6  A    between atoms: S_19  and  C_20 
REMARK    7  A    between atoms: C_20  and  C_21 
ROOT
HETATM    1  C   UNL     1       7.393  24.648  56.022  1.00  0.00     0.070 C 
HETATM    2  C   UNL     1       6.141  25.442  55.673  1.00  0.00     0.203 C 
HETATM    3  N   UNL     1       6.144  26.751  56.332  1.00  0.00    -0.082 N 
HETATM    4  C   UNL     1       7.211  27.268  57.013  1.00  0.00     0.726 A 
HETATM    5  N   UNL     1       8.333  26.532  57.130  1.00  0.00    -0.192 N 
HETATM    6  N   UNL     1       5.065  27.550  56.428  1.00  0.00    -0.128 NA
HETATM    7  C   UNL     1       5.578  28.580  57.112  1.00  0.00     0.226 A 
HETATM    8  N   UNL     1       6.895  28.447  57.484  1.00  0.00    -0.035 NA
HETATM    9  C   UNL     1       8.422  25.208  56.706  1.00  0.00     0.037 C 
HETATM   10  C   UNL     1       9.685  24.479  57.093  1.00  0.00     0.070 C 
HETATM   11  H   UNL     1       9.098  26.896  57.694  1.00  0.00     0.184 HD
ENDROOT
BRANCH   7  12
HETATM   12  S   UNL     1       4.589  29.946  57.530  1.00  0.00    -0.083 SA
BRANCH  12  13
HETATM   13  C   UNL     1       5.793  31.283  57.320  1.00  0.00     0.121 C 
BRANCH  13  14
HETATM   14  C   UNL     1       6.542  31.547  58.603  1.00  0.00    -0.048 A 
HETATM   15  C   UNL     1       5.871  32.058  59.727  1.00  0.00     0.020 A 
HETATM   16  C   UNL     1       6.543  32.269  60.943  1.00  0.00    -0.025 A 
HETATM   17  C   UNL     1       7.919  31.966  61.036  1.00  0.00    -0.026 A 
HETATM   18  C   UNL     1       5.873  32.767  62.073  1.00  0.00     0.012 A 
HETATM   19  C   UNL     1       8.586  31.459  59.910  1.00  0.00     0.013 A 
HETATM   20  C   UNL     1       8.587  32.170  62.253  1.00  0.00     0.012 A 
HETATM   21  C   UNL     1       7.905  31.247  58.708  1.00  0.00     0.009 A 
HETATM   22  C   UNL     1       7.907  32.665  63.367  1.00  0.00     0.001 A 
HETATM   23  C   UNL     1       6.550  32.963  63.277  1.00  0.00     0.001 A 
ENDBRANCH  13  14
ENDBRANCH  12  13
ENDBRANCH   7  12
BRANCH   2  24
HETATM   24  C   UNL     1       5.965  25.628  54.166  1.00  0.00    -0.028 A 
HETATM   25  C   UNL     1       6.803  26.518  53.469  1.00  0.00     0.012 A 
HETATM   26  C   UNL     1       6.656  26.700  52.093  1.00  0.00     0.043 A 
HETATM   27  C   UNL     1       5.675  25.994  51.407  1.00  0.00     0.116 A 
HETATM   28  F   UNL     1       5.538  26.170  50.087  1.00  0.00    -0.206 F 
HETATM   29  C   UNL     1       4.839  25.107  52.071  1.00  0.00     0.043 A 
HETATM   30  C   UNL     1       4.982  24.920  53.446  1.00  0.00     0.012 A 
ENDBRANCH   2  24
BRANCH   1  31
HETATM   31  C   UNL     1       7.438  23.254  55.531  1.00  0.00     0.293 C 
HETATM   32  O   UNL     1       6.948  22.301  56.112  1.00  0.00    -0.259 OA
BRANCH  31  33
HETATM   33  O   UNL     1       8.104  23.219  54.350  1.00  0.00    -0.318 OA
BRANCH  33  34
HETATM   34  C   UNL     1       7.589  22.307  53.367  1.00  0.00     0.174 C 
HETATM   35  C   UNL     1       8.465  21.071  53.292  1.00  0.00     0.034 C 
ENDBRANCH  33  34
ENDBRANCH  31  33
ENDBRANCH   1  31
TORSDOF 7
ENDMDL
MODEL 10
REMARK VINA RESULT:      -8.6      2.935      4.654
REMARK  7 active torsions:
REMARK  status: ('A' for Active; 'I' for Inactive)
REMARK    1  A    between atoms: C_2  and  O_3 
REMARK    2  A    between atoms: O_3  and  C_4 
REMARK    3  A    between atoms: C_4  and  C_5 
REMARK    4  A    between atoms: C_6  and  C_7 
REMARK    5  A    between atoms: C_18  and  S_19 
REMARK    6  A    between atoms: S_19  and  C_20 
REMARK    7  A    between atoms: C_20  and  C_21 
ROOT
HETATM    1  C   UNL     1       4.334  32.311  57.838  1.00  0.00     0.070 C 
HETATM    2  C   UNL     1       5.068  31.937  56.558  1.00  0.00     0.203 C 
HETATM    3  N   UNL     1       5.390  30.507  56.530  1.00  0.00    -0.082 N 
HETATM    4  C   UNL     1       4.927  29.597  57.438  1.00  0.00     0.726 A 
HETATM    5  N   UNL     1       4.151  30.020  58.455  1.00  0.00    -0.192 N 
HETATM    6  N   UNL     1       6.257  29.945  55.667  1.00  0.00    -0.128 NA
HETATM    7  C   UNL     1       6.205  28.667  56.060  1.00  0.00     0.226 A 
HETATM    8  N   UNL     1       5.395  28.411  57.141  1.00  0.00    -0.035 NA
HETATM    9  C   UNL     1       3.900  31.367  58.711  1.00  0.00     0.037 C 
HETATM   10  C   UNL     1       3.176  31.665  60.000  1.00  0.00     0.070 C 
HETATM   11  H   UNL     1       3.866  29.348  59.163  1.00  0.00     0.184 HD
ENDROOT
BRANCH   7  12
HETATM   12  S   UNL     1       7.164  27.456  55.263  1.00  0.00    -0.083 SA
BRANCH  12  13
HETATM   13  C   UNL     1       6.055  26.031  55.409  1.00  0.00     0.121 C 
BRANCH  13  14
HETATM   14  C   UNL     1       6.675  24.796  54.802  1.00  0.00    -0.048 A 
HETATM   15  C   UNL     1       7.020  23.700  55.611  1.00  0.00     0.020 A 
HETATM   16  C   UNL     1       7.558  22.526  55.058  1.00  0.00    -0.025 A 
HETATM   17  C   UNL     1       7.760  22.447  53.663  1.00  0.00    -0.026 A 
HETATM   18  C   UNL     1       7.891  21.424  55.863  1.00  0.00     0.012 A 
HETATM   19  C   UNL     1       7.418  23.544  52.858  1.00  0.00     0.013 A 
HETATM   20  C   UNL     1       8.290  21.271  53.111  1.00  0.00     0.012 A 
HETATM   21  C   UNL     1       6.876  24.704  53.420  1.00  0.00     0.009 A 
HETATM   22  C   UNL     1       8.616  20.183  53.924  1.00  0.00     0.001 A 
HETATM   23  C   UNL     1       8.416  20.260  55.299  1.00  0.00     0.001 A 
ENDBRANCH  13  14
ENDBRANCH  12  13
ENDBRANCH   7  12
BRANCH   2  24
HETATM   24  C   UNL     1       4.283  32.310  55.300  1.00  0.00    -0.028 A 
HETATM   25  C   UNL     1       4.833  33.216  54.375  1.00  0.00     0.012 A 
HETATM   26  C   UNL     1       4.131  33.567  53.221  1.00  0.00     0.043 A 
HETATM   27  C   UNL     1       2.878  33.014  52.985  1.00  0.00     0.116 A 
HETATM   28  F   UNL     1       2.206  33.352  51.877  1.00  0.00    -0.206 F 
HETATM   29  C   UNL     1       2.315  32.114  53.880  1.00  0.00     0.043 A 
HETATM   30  C   UNL     1       3.014  31.759  55.034  1.00  0.00     0.012 A 
ENDBRANCH   2  24
BRANCH   1  31
HETATM   31  C   UNL     1       4.082  33.753  58.047  1.00  0.00     0.293 C 
HETATM   32  O   UNL     1       4.954  34.590  58.210  1.00  0.00    -0.259 OA
BRANCH  31  33
HETATM   33  O   UNL     1       2.745  33.979  58.029  1.00  0.00    -0.318 OA
BRANCH  33  34
HETATM   34  C   UNL     1       2.335  35.283  57.587  1.00  0.00     0.174 C 
HETATM   35  C   UNL     1       2.215  35.307  56.075  1.00  0.00     0.034 C 
ENDBRANCH  33  34
ENDBRANCH  31  33
ENDBRANCH   1  31
TORSDOF 7
ENDMDL
