MODEL 1
REMARK VINA RESULT:     -10.8      0.000      0.000
REMARK  4 active torsions:
REMARK  status: ('A' for Active; 'I' for Inactive)
REMARK    1  A    between atoms: C_7  and  C_8 
REMARK       I    between atoms: C_8  and  N_9 
REMARK    2  A    between atoms: N_9  and  N_10 
REMARK       I    between atoms: N_10  and  C_11 
REMARK    3  A    between atoms: C_11  and  C_12 
REMARK    4  A    between atoms: C_12  and  C_13 
ROOT
HETATM    1  C   UNL     1       8.265  29.098  56.907  1.00  0.00     0.273 C 
HETATM    2  N   UNL     1       8.215  27.822  57.439  1.00  0.00    -0.263 N 
HETATM    3  O   UNL     1       7.830  29.358  55.787  1.00  0.00    -0.266 OA
HETATM    4  H   UNL     1       8.231  27.727  58.453  1.00  0.00     0.190 HD
ENDROOT
BRANCH   2   5
HETATM    5  N   UNL     1       7.416  26.864  56.771  1.00  0.00    -0.267 N 
HETATM    6  C   UNL     1       7.628  25.545  57.114  1.00  0.00     0.240 C 
HETATM    7  O   UNL     1       8.577  25.212  57.829  1.00  0.00    -0.272 OA
HETATM    8  H   UNL     1       6.487  27.189  56.497  1.00  0.00     0.190 HD
BRANCH   6   9
HETATM    9  C   UNL     1       6.699  24.505  56.516  1.00  0.00     0.144 C 
BRANCH   9  10
HETATM   10  C   UNL     1       7.087  23.926  55.170  1.00  0.00    -0.038 A 
HETATM   11  C   UNL     1       7.603  22.608  55.021  1.00  0.00    -0.019 A 
HETATM   12  C   UNL     1       7.961  22.162  53.723  1.00  0.00    -0.025 A 
HETATM   13  C   UNL     1       7.785  21.706  56.094  1.00  0.00     0.013 A 
HETATM   14  C   UNL     1       8.493  20.874  53.541  1.00  0.00     0.012 A 
HETATM   15  C   UNL     1       7.783  23.006  52.617  1.00  0.00     0.012 A 
HETATM   16  C   UNL     1       8.671  20.013  54.621  1.00  0.00     0.001 A 
HETATM   17  C   UNL     1       8.312  20.427  55.896  1.00  0.00     0.001 A 
HETATM   18  C   UNL     1       7.256  24.284  52.771  1.00  0.00     0.001 A 
HETATM   19  C   UNL     1       6.910  24.741  54.036  1.00  0.00     0.008 A 
ENDBRANCH   9  10
ENDBRANCH   6   9
ENDBRANCH   2   5
BRANCH   1  20
HETATM   20  C   UNL     1       8.813  30.109  57.812  1.00  0.00     0.068 A 
HETATM   21  C   UNL     1      10.150  30.458  57.988  1.00  0.00     0.022 A 
HETATM   22  C   UNL     1      11.397  29.997  57.321  1.00  0.00     0.069 C 
HETATM   23  N   UNL     1      10.201  31.433  58.957  1.00  0.00    -0.358 N 
HETATM   24  H   UNL     1      11.044  31.877  59.293  1.00  0.00     0.166 HD
HETATM   25  C   UNL     1       8.939  31.753  59.395  1.00  0.00     0.043 A 
HETATM   26  C   UNL     1       8.045  30.953  58.685  1.00  0.00     0.008 A 
HETATM   27  C   UNL     1       8.530  32.685  60.356  1.00  0.00     0.030 A 
HETATM   28  C   UNL     1       6.667  31.094  58.952  1.00  0.00     0.015 A 
HETATM   29  C   UNL     1       6.237  32.020  59.910  1.00  0.00     0.001 A 
HETATM   30  C   UNL     1       7.159  32.802  60.601  1.00  0.00     0.002 A 
ENDBRANCH   1  20
TORSDOF 4
ENDMDL
MODEL 2
REMARK VINA RESULT:     -10.5      1.594      2.768
REMARK  4 active torsions:
REMARK  status: ('A' for Active; 'I' for Inactive)
REMARK    1  A    between atoms: C_7  and  C_8 
REMARK       I    between atoms: C_8  and  N_9 
REMARK    2  A    between atoms: N_9  and  N_10 
REMARK       I    between atoms: N_10  and  C_11 
REMARK    3  A    between atoms: C_11  and  C_12 
REMARK    4  A    between atoms: C_12  and  C_13 
ROOT
HETATM    1  C   UNL     1       8.431  29.143  57.861  1.00  0.00     0.273 C 
HETATM    2  N   UNL     1       7.702  27.969  57.786  1.00  0.00    -0.263 N 
HETATM    3  O   UNL     1       9.547  29.253  57.357  1.00  0.00    -0.266 OA
HETATM    4  H   UNL     1       6.689  28.031  57.874  1.00  0.00     0.190 HD
ENDROOT
BRANCH   2   5
HETATM    5  N   UNL     1       8.155  26.971  56.892  1.00  0.00    -0.267 N 
HETATM    6  C   UNL     1       7.181  26.205  56.287  1.00  0.00     0.240 C 
HETATM    7  O   UNL     1       6.000  26.272  56.640  1.00  0.00    -0.272 OA
HETATM    8  H   UNL     1       9.027  27.188  56.405  1.00  0.00     0.190 HD
BRANCH   6   9
HETATM    9  C   UNL     1       7.623  25.216  55.224  1.00  0.00     0.144 C 
BRANCH   9  10
HETATM   10  C   UNL     1       7.918  23.800  55.680  1.00  0.00    -0.038 A 
HETATM   11  C   UNL     1       7.993  22.703  54.776  1.00  0.00    -0.019 A 
HETATM   12  C   UNL     1       8.250  21.410  55.297  1.00  0.00    -0.025 A 
HETATM   13  C   UNL     1       7.824  22.821  53.376  1.00  0.00     0.013 A 
HETATM   14  C   UNL     1       8.311  20.300  54.437  1.00  0.00     0.012 A 
HETATM   15  C   UNL     1       8.446  21.235  56.675  1.00  0.00     0.012 A 
HETATM   16  C   UNL     1       8.129  20.448  53.064  1.00  0.00     0.001 A 
HETATM   17  C   UNL     1       7.891  21.708  52.534  1.00  0.00     0.001 A 
HETATM   18  C   UNL     1       8.394  22.318  57.547  1.00  0.00     0.001 A 
HETATM   19  C   UNL     1       8.132  23.590  57.055  1.00  0.00     0.008 A 
ENDBRANCH   9  10
ENDBRANCH   6   9
ENDBRANCH   2   5
BRANCH   1  20
HETATM   20  C   UNL     1       7.737  30.246  58.526  1.00  0.00     0.068 A 
HETATM   21  C   UNL     1       6.614  30.939  58.076  1.00  0.00     0.022 A 
HETATM   22  C   UNL     1       5.754  30.771  56.875  1.00  0.00     0.069 C 
HETATM   23  N   UNL     1       6.325  31.909  59.008  1.00  0.00    -0.358 N 
HETATM   24  H   UNL     1       5.561  32.567  58.945  1.00  0.00     0.166 HD
HETATM   25  C   UNL     1       7.204  31.851  60.062  1.00  0.00     0.043 A 
HETATM   26  C   UNL     1       8.090  30.809  59.799  1.00  0.00     0.008 A 
HETATM   27  C   UNL     1       7.273  32.637  61.218  1.00  0.00     0.030 A 
HETATM   28  C   UNL     1       9.102  30.539  60.745  1.00  0.00     0.015 A 
HETATM   29  C   UNL     1       9.189  31.313  61.907  1.00  0.00     0.001 A 
HETATM   30  C   UNL     1       8.286  32.348  62.137  1.00  0.00     0.002 A 
ENDBRANCH   1  20
TORSDOF 4
ENDMDL
MODEL 3
REMARK VINA RESULT:     -10.5      6.149      9.261
REMARK  4 active torsions:
REMARK  status: ('A' for Active; 'I' for Inactive)
REMARK    1  A    between atoms: C_7  and  C_8 
REMARK       I    between atoms: C_8  and  N_9 
REMARK    2  A    between atoms: N_9  and  N_10 
REMARK       I    between atoms: N_10  and  C_11 
REMARK    3  A    between atoms: C_11  and  C_12 
REMARK    4  A    between atoms: C_12  and  C_13 
ROOT
HETATM    1  C   UNL     1       4.531  27.352  49.058  1.00  0.00     0.273 C 
HETATM    2  N   UNL     1       4.618  26.575  50.199  1.00  0.00    -0.263 N 
HETATM    3  O   UNL     1       5.469  28.041  48.663  1.00  0.00    -0.266 OA
HETATM    4  H   UNL     1       3.996  25.772  50.278  1.00  0.00     0.190 HD
ENDROOT
BRANCH   2   5
HETATM    5  N   UNL     1       5.899  26.384  50.767  1.00  0.00    -0.267 N 
HETATM    6  C   UNL     1       6.009  25.378  51.704  1.00  0.00     0.240 C 
HETATM    7  O   UNL     1       5.012  24.799  52.145  1.00  0.00    -0.272 OA
HETATM    8  H   UNL     1       6.684  26.615  50.155  1.00  0.00     0.190 HD
BRANCH   6   9
HETATM    9  C   UNL     1       7.395  25.058  52.235  1.00  0.00     0.144 C 
BRANCH   9  10
HETATM   10  C   UNL     1       7.484  24.517  53.648  1.00  0.00    -0.038 A 
HETATM   11  C   UNL     1       7.664  23.134  53.930  1.00  0.00    -0.019 A 
HETATM   12  C   UNL     1       7.712  22.718  55.286  1.00  0.00    -0.025 A 
HETATM   13  C   UNL     1       7.800  22.137  52.937  1.00  0.00     0.013 A 
HETATM   14  C   UNL     1       7.869  21.358  55.602  1.00  0.00     0.012 A 
HETATM   15  C   UNL     1       7.604  23.666  56.314  1.00  0.00     0.012 A 
HETATM   16  C   UNL     1       7.988  20.399  54.599  1.00  0.00     0.001 A 
HETATM   17  C   UNL     1       7.958  20.789  53.268  1.00  0.00     0.001 A 
HETATM   18  C   UNL     1       7.451  25.018  56.027  1.00  0.00     0.001 A 
HETATM   19  C   UNL     1       7.392  25.441  54.706  1.00  0.00     0.008 A 
ENDBRANCH   9  10
ENDBRANCH   6   9
ENDBRANCH   2   5
BRANCH   1  20
HETATM   20  C   UNL     1       3.264  27.229  48.337  1.00  0.00     0.068 A 
HETATM   21  C   UNL     1       2.670  26.066  47.851  1.00  0.00     0.022 A 
HETATM   22  C   UNL     1       3.062  24.634  47.941  1.00  0.00     0.069 C 
HETATM   23  N   UNL     1       1.503  26.429  47.219  1.00  0.00    -0.358 N 
HETATM   24  H   UNL     1       0.863  25.790  46.768  1.00  0.00     0.166 HD
HETATM   25  C   UNL     1       1.303  27.785  47.304  1.00  0.00     0.043 A 
HETATM   26  C   UNL     1       2.379  28.314  48.014  1.00  0.00     0.008 A 
HETATM   27  C   UNL     1       0.254  28.571  46.811  1.00  0.00     0.030 A 
HETATM   28  C   UNL     1       2.407  29.706  48.242  1.00  0.00     0.015 A 
HETATM   29  C   UNL     1       1.370  30.510  47.757  1.00  0.00     0.001 A 
HETATM   30  C   UNL     1       0.310  29.947  47.051  1.00  0.00     0.002 A 
ENDBRANCH   1  20
TORSDOF 4
ENDMDL
MODEL 4
REMARK VINA RESULT:     -10.4      1.522      2.352
REMARK  4 active torsions:
REMARK  status: ('A' for Active; 'I' for Inactive)
REMARK    1  A    between atoms: C_7  and  C_8 
REMARK       I    between atoms: C_8  and  N_9 
REMARK    2  A    between atoms: N_9  and  N_10 
REMARK       I    between atoms: N_10  and  C_11 
REMARK    3  A    between atoms: C_11  and  C_12 
REMARK    4  A    between atoms: C_12  and  C_13 
ROOT
HETATM    1  C   UNL     1       6.382  29.342  57.117  1.00  0.00     0.273 C 
HETATM    2  N   UNL     1       6.539  28.155  57.809  1.00  0.00    -0.263 N 
HETATM    3  O   UNL     1       6.197  29.371  55.902  1.00  0.00    -0.266 OA
HETATM    4  H   UNL     1       6.318  28.150  58.804  1.00  0.00     0.190 HD
ENDROOT
BRANCH   2   5
HETATM    5  N   UNL     1       6.224  26.954  57.132  1.00  0.00    -0.267 N 
HETATM    6  C   UNL     1       7.139  25.929  57.247  1.00  0.00     0.240 C 
HETATM    7  O   UNL     1       8.246  26.110  57.764  1.00  0.00    -0.272 OA
HETATM    8  H   UNL     1       5.226  26.755  57.043  1.00  0.00     0.190 HD
BRANCH   6   9
HETATM    9  C   UNL     1       6.771  24.585  56.645  1.00  0.00     0.144 C 
BRANCH   9  10
HETATM   10  C   UNL     1       7.193  24.334  55.211  1.00  0.00    -0.038 A 
HETATM   11  C   UNL     1       7.536  23.040  54.728  1.00  0.00    -0.019 A 
HETATM   12  C   UNL     1       7.942  22.905  53.375  1.00  0.00    -0.025 A 
HETATM   13  C   UNL     1       7.498  21.866  55.517  1.00  0.00     0.013 A 
HETATM   14  C   UNL     1       8.307  21.646  52.869  1.00  0.00     0.012 A 
HETATM   15  C   UNL     1       7.979  24.030  52.539  1.00  0.00     0.012 A 
HETATM   16  C   UNL     1       8.270  20.512  53.677  1.00  0.00     0.001 A 
HETATM   17  C   UNL     1       7.861  20.621  54.998  1.00  0.00     0.001 A 
HETATM   18  C   UNL     1       7.620  25.287  53.015  1.00  0.00     0.001 A 
HETATM   19  C   UNL     1       7.230  25.438  54.340  1.00  0.00     0.008 A 
ENDBRANCH   9  10
ENDBRANCH   6   9
ENDBRANCH   2   5
BRANCH   1  20
HETATM   20  C   UNL     1       6.389  30.539  57.958  1.00  0.00     0.068 A 
HETATM   21  C   UNL     1       5.449  31.568  57.982  1.00  0.00     0.022 A 
HETATM   22  C   UNL     1       4.168  31.765  57.252  1.00  0.00     0.069 C 
HETATM   23  N   UNL     1       5.873  32.497  58.904  1.00  0.00    -0.358 N 
HETATM   24  H   UNL     1       5.389  33.354  59.132  1.00  0.00     0.166 HD
HETATM   25  C   UNL     1       7.041  32.092  59.502  1.00  0.00     0.043 A 
HETATM   26  C   UNL     1       7.382  30.861  58.945  1.00  0.00     0.008 A 
HETATM   27  C   UNL     1       7.810  32.720  60.490  1.00  0.00     0.030 A 
HETATM   28  C   UNL     1       8.556  30.225  59.400  1.00  0.00     0.015 A 
HETATM   29  C   UNL     1       9.339  30.837  60.385  1.00  0.00     0.001 A 
HETATM   30  C   UNL     1       8.969  32.068  60.920  1.00  0.00     0.002 A 
ENDBRANCH   1  20
TORSDOF 4
ENDMDL
MODEL 5
REMARK VINA RESULT:     -10.4      5.523      8.683
REMARK  4 active torsions:
REMARK  status: ('A' for Active; 'I' for Inactive)
REMARK    1  A    between atoms: C_7  and  C_8 
REMARK       I    between atoms: C_8  and  N_9 
REMARK    2  A    between atoms: N_9  and  N_10 
REMARK       I    between atoms: N_10  and  C_11 
REMARK    3  A    between atoms: C_11  and  C_12 
REMARK    4  A    between atoms: C_12  and  C_13 
ROOT
HETATM    1  C   UNL     1       4.696  28.081  50.435  1.00  0.00     0.273 C 
HETATM    2  N   UNL     1       4.779  26.809  50.973  1.00  0.00    -0.263 N 
HETATM    3  O   UNL     1       5.653  28.853  50.431  1.00  0.00    -0.266 OA
HETATM    4  H   UNL     1       4.125  26.104  50.634  1.00  0.00     0.190 HD
ENDROOT
BRANCH   2   5
HETATM    5  N   UNL     1       6.066  26.312  51.287  1.00  0.00    -0.267 N 
HETATM    6  C   UNL     1       6.110  25.190  52.087  1.00  0.00     0.240 C 
HETATM    7  O   UNL     1       5.094  24.752  52.636  1.00  0.00    -0.272 OA
HETATM    8  H   UNL     1       6.779  26.473  50.573  1.00  0.00     0.190 HD
BRANCH   6   9
HETATM    9  C   UNL     1       7.465  24.554  52.334  1.00  0.00     0.144 C 
BRANCH   9  10
HETATM   10  C   UNL     1       7.747  24.054  53.737  1.00  0.00    -0.038 A 
HETATM   11  C   UNL     1       8.042  22.692  54.022  1.00  0.00    -0.019 A 
HETATM   12  C   UNL     1       8.268  22.313  55.370  1.00  0.00    -0.025 A 
HETATM   13  C   UNL     1       8.125  21.679  53.038  1.00  0.00     0.013 A 
HETATM   14  C   UNL     1       8.543  20.973  55.691  1.00  0.00     0.012 A 
HETATM   15  C   UNL     1       8.220  23.277  56.387  1.00  0.00     0.012 A 
HETATM   16  C   UNL     1       8.606  19.997  54.698  1.00  0.00     0.001 A 
HETATM   17  C   UNL     1       8.402  20.351  53.372  1.00  0.00     0.001 A 
HETATM   18  C   UNL     1       7.953  24.611  56.095  1.00  0.00     0.001 A 
HETATM   19  C   UNL     1       7.719  24.997  54.782  1.00  0.00     0.008 A 
ENDBRANCH   9  10
ENDBRANCH   6   9
ENDBRANCH   2   5
BRANCH   1  20
HETATM   20  C   UNL     1       3.405  28.396  49.823  1.00  0.00     0.068 A 
HETATM   21  C   UNL     1       2.516  29.407  50.183  1.00  0.00     0.022 A 
HETATM   22  C   UNL     1       2.592  30.483  51.207  1.00  0.00     0.069 C 
HETATM   23  N   UNL     1       1.423  29.313  49.353  1.00  0.00    -0.358 N 
HETATM   24  H   UNL     1       0.615  29.919  49.385  1.00  0.00     0.166 HD
HETATM   25  C   UNL     1       1.583  28.294  48.447  1.00  0.00     0.043 A 
HETATM   26  C   UNL     1       2.823  27.711  48.702  1.00  0.00     0.008 A 
HETATM   27  C   UNL     1       0.731  27.855  47.427  1.00  0.00     0.030 A 
HETATM   28  C   UNL     1       3.230  26.628  47.894  1.00  0.00     0.015 A 
HETATM   29  C   UNL     1       2.391  26.174  46.870  1.00  0.00     0.001 A 
HETATM   30  C   UNL     1       1.159  26.780  46.643  1.00  0.00     0.002 A 
ENDBRANCH   1  20
TORSDOF 4
ENDMDL
MODEL 6
REMARK VINA RESULT:     -10.3      1.700      9.343
REMARK  4 active torsions:
REMARK  status: ('A' for Active; 'I' for Inactive)
REMARK    1  A    between atoms: C_7  and  C_8 
REMARK       I    between atoms: C_8  and  N_9 
REMARK    2  A    between atoms: N_9  and  N_10 
REMARK       I    between atoms: N_10  and  C_11 
REMARK    3  A    between atoms: C_11  and  C_12 
REMARK    4  A    between atoms: C_12  and  C_13 
ROOT
HETATM    1  C   UNL     1       6.705  24.956  55.035  1.00  0.00     0.273 C 
HETATM    2  N   UNL     1       7.661  25.786  55.592  1.00  0.00    -0.263 N 
HETATM    3  O   UNL     1       5.501  25.184  55.136  1.00  0.00    -0.266 OA
HETATM    4  H   UNL     1       8.596  25.777  55.186  1.00  0.00     0.190 HD
ENDROOT
BRANCH   2   5
HETATM    5  N   UNL     1       7.237  27.051  56.063  1.00  0.00    -0.267 N 
HETATM    6  C   UNL     1       7.552  27.353  57.371  1.00  0.00     0.240 C 
HETATM    7  O   UNL     1       8.021  26.502  58.133  1.00  0.00    -0.272 OA
HETATM    8  H   UNL     1       7.191  27.785  55.354  1.00  0.00     0.190 HD
BRANCH   6   9
HETATM    9  C   UNL     1       7.230  28.751  57.868  1.00  0.00     0.144 C 
BRANCH   9  10
HETATM   10  C   UNL     1       8.397  29.698  58.066  1.00  0.00    -0.038 A 
HETATM   11  C   UNL     1       8.433  30.662  59.112  1.00  0.00    -0.019 A 
HETATM   12  C   UNL     1       9.558  31.522  59.205  1.00  0.00    -0.025 A 
HETATM   13  C   UNL     1       7.410  30.821  60.076  1.00  0.00     0.013 A 
HETATM   14  C   UNL     1       9.619  32.500  60.212  1.00  0.00     0.012 A 
HETATM   15  C   UNL     1      10.613  31.397  58.289  1.00  0.00     0.012 A 
HETATM   16  C   UNL     1       8.588  32.638  61.139  1.00  0.00     0.001 A 
HETATM   17  C   UNL     1       7.487  31.795  61.074  1.00  0.00     0.001 A 
HETATM   18  C   UNL     1      10.578  30.436  57.285  1.00  0.00     0.001 A 
HETATM   19  C   UNL     1       9.480  29.593  57.173  1.00  0.00     0.008 A 
ENDBRANCH   9  10
ENDBRANCH   6   9
ENDBRANCH   2   5
BRANCH   1  20
HETATM   20  C   UNL     1       7.250  23.834  54.269  1.00  0.00     0.068 A 
HETATM   21  C   UNL     1       7.535  23.794  52.905  1.00  0.00     0.022 A 
HETATM   22  C   UNL     1       7.447  24.825  51.837  1.00  0.00     0.069 C 
HETATM   23  N   UNL     1       8.003  22.533  52.616  1.00  0.00    -0.358 N 
HETATM   24  H   UNL     1       8.288  22.213  51.701  1.00  0.00     0.166 HD
HETATM   25  C   UNL     1       8.060  21.761  53.751  1.00  0.00     0.043 A 
HETATM   26  C   UNL     1       7.612  22.553  54.807  1.00  0.00     0.008 A 
HETATM   27  C   UNL     1       8.477  20.435  53.917  1.00  0.00     0.030 A 
HETATM   28  C   UNL     1       7.577  21.985  56.098  1.00  0.00     0.015 A 
HETATM   29  C   UNL     1       7.988  20.660  56.284  1.00  0.00     0.001 A 
HETATM   30  C   UNL     1       8.430  19.898  55.206  1.00  0.00     0.002 A 
ENDBRANCH   1  20
TORSDOF 4
ENDMDL
MODEL 7
REMARK VINA RESULT:     -10.2      5.626      8.611
REMARK  4 active torsions:
REMARK  status: ('A' for Active; 'I' for Inactive)
REMARK    1  A    between atoms: C_7  and  C_8 
REMARK       I    between atoms: C_8  and  N_9 
REMARK    2  A    between atoms: N_9  and  N_10 
REMARK       I    between atoms: N_10  and  C_11 
REMARK    3  A    between atoms: C_11  and  C_12 
REMARK    4  A    between atoms: C_12  and  C_13 
ROOT
HETATM    1  C   UNL     1       5.037  27.608  50.570  1.00  0.00     0.273 C 
HETATM    2  N   UNL     1       5.159  26.300  51.006  1.00  0.00    -0.263 N 
HETATM    3  O   UNL     1       5.979  28.398  50.601  1.00  0.00    -0.266 OA
HETATM    4  H   UNL     1       4.509  25.610  50.632  1.00  0.00     0.190 HD
ENDROOT
BRANCH   2   5
HETATM    5  N   UNL     1       6.462  25.808  51.250  1.00  0.00    -0.267 N 
HETATM    6  C   UNL     1       6.596  24.925  52.300  1.00  0.00     0.240 C 
HETATM    7  O   UNL     1       5.667  24.714  53.085  1.00  0.00    -0.272 OA
HETATM    8  H   UNL     1       7.059  25.732  50.424  1.00  0.00     0.190 HD
BRANCH   6   9
HETATM    9  C   UNL     1       7.953  24.276  52.506  1.00  0.00     0.144 C 
BRANCH   9  10
HETATM   10  C   UNL     1       7.984  22.976  53.283  1.00  0.00    -0.038 A 
HETATM   11  C   UNL     1       8.129  22.931  54.698  1.00  0.00    -0.019 A 
HETATM   12  C   UNL     1       8.172  21.665  55.337  1.00  0.00    -0.025 A 
HETATM   13  C   UNL     1       8.235  24.079  55.518  1.00  0.00     0.013 A 
HETATM   14  C   UNL     1       8.335  21.582  56.730  1.00  0.00     0.012 A 
HETATM   15  C   UNL     1       8.051  20.492  54.578  1.00  0.00     0.012 A 
HETATM   16  C   UNL     1       8.448  22.732  57.508  1.00  0.00     0.001 A 
HETATM   17  C   UNL     1       8.393  23.980  56.903  1.00  0.00     0.001 A 
HETATM   18  C   UNL     1       7.887  20.547  53.198  1.00  0.00     0.001 A 
HETATM   19  C   UNL     1       7.853  21.778  52.555  1.00  0.00     0.008 A 
ENDBRANCH   9  10
ENDBRANCH   6   9
ENDBRANCH   2   5
BRANCH   1  20
HETATM   20  C   UNL     1       3.725  27.941  50.016  1.00  0.00     0.068 A 
HETATM   21  C   UNL     1       2.824  28.899  50.477  1.00  0.00     0.022 A 
HETATM   22  C   UNL     1       2.904  29.891  51.583  1.00  0.00     0.069 C 
HETATM   23  N   UNL     1       1.713  28.848  49.669  1.00  0.00    -0.358 N 
HETATM   24  H   UNL     1       0.893  29.430  49.769  1.00  0.00     0.166 HD
HETATM   25  C   UNL     1       1.872  27.909  48.679  1.00  0.00     0.043 A 
HETATM   26  C   UNL     1       3.129  27.336  48.858  1.00  0.00     0.008 A 
HETATM   27  C   UNL     1       1.003  27.534  47.648  1.00  0.00     0.030 A 
HETATM   28  C   UNL     1       3.538  26.331  47.955  1.00  0.00     0.015 A 
HETATM   29  C   UNL     1       2.684  25.941  46.917  1.00  0.00     0.001 A 
HETATM   30  C   UNL     1       1.433  26.536  46.769  1.00  0.00     0.002 A 
ENDBRANCH   1  20
TORSDOF 4
ENDMDL
MODEL 8
REMARK VINA RESULT:     -10.2      2.087      3.827
REMARK  4 active torsions:
REMARK  status: ('A' for Active; 'I' for Inactive)
REMARK    1  A    between atoms: C_7  and  C_8 
REMARK       I    between atoms: C_8  and  N_9 
REMARK    2  A    between atoms: N_9  and  N_10 
REMARK       I    between atoms: N_10  and  C_11 
REMARK    3  A    between atoms: C_11  and  C_12 
REMARK    4  A    between atoms: C_12  and  C_13 
ROOT
HETATM    1  C   UNL     1       7.812  31.069  59.009  1.00  0.00     0.273 C 
HETATM    2  N   UNL     1       7.329  29.783  58.837  1.00  0.00    -0.263 N 
HETATM    3  O   UNL     1       8.837  31.461  58.457  1.00  0.00    -0.266 OA
HETATM    4  H   UNL     1       6.335  29.623  58.991  1.00  0.00     0.190 HD
ENDROOT
BRANCH   2   5
HETATM    5  N   UNL     1       7.897  29.002  57.804  1.00  0.00    -0.267 N 
HETATM    6  C   UNL     1       7.021  28.241  57.060  1.00  0.00     0.240 C 
HETATM    7  O   UNL     1       5.837  28.119  57.389  1.00  0.00    -0.272 OA
HETATM    8  H   UNL     1       8.742  29.391  57.380  1.00  0.00     0.190 HD
BRANCH   6   9
HETATM    9  C   UNL     1       7.578  27.495  55.861  1.00  0.00     0.144 C 
BRANCH   9  10
HETATM   10  C   UNL     1       7.903  26.027  56.054  1.00  0.00    -0.038 A 
HETATM   11  C   UNL     1       7.843  25.082  54.991  1.00  0.00    -0.019 A 
HETATM   12  C   UNL     1       8.141  23.724  55.272  1.00  0.00    -0.025 A 
HETATM   13  C   UNL     1       7.501  25.413  53.659  1.00  0.00     0.013 A 
HETATM   14  C   UNL     1       8.073  22.760  54.252  1.00  0.00     0.012 A 
HETATM   15  C   UNL     1       8.507  23.341  56.571  1.00  0.00     0.012 A 
HETATM   16  C   UNL     1       7.722  23.117  52.952  1.00  0.00     0.001 A 
HETATM   17  C   UNL     1       7.441  24.443  52.655  1.00  0.00     0.001 A 
HETATM   18  C   UNL     1       8.585  24.276  57.597  1.00  0.00     0.001 A 
HETATM   19  C   UNL     1       8.286  25.608  57.342  1.00  0.00     0.008 A 
ENDBRANCH   9  10
ENDBRANCH   6   9
ENDBRANCH   2   5
BRANCH   1  20
HETATM   20  C   UNL     1       6.967  31.926  59.841  1.00  0.00     0.068 A 
HETATM   21  C   UNL     1       5.782  32.563  59.479  1.00  0.00     0.022 A 
HETATM   22  C   UNL     1       4.985  32.547  58.223  1.00  0.00     0.069 C 
HETATM   23  N   UNL     1       5.349  33.284  60.568  1.00  0.00    -0.358 N 
HETATM   24  H   UNL     1       4.512  33.849  60.596  1.00  0.00     0.166 HD
HETATM   25  C   UNL     1       6.195  33.112  61.635  1.00  0.00     0.043 A 
HETATM   26  C   UNL     1       7.210  32.253  61.219  1.00  0.00     0.008 A 
HETATM   27  C   UNL     1       6.133  33.648  62.927  1.00  0.00     0.030 A 
HETATM   28  C   UNL     1       8.218  31.913  62.146  1.00  0.00     0.015 A 
HETATM   29  C   UNL     1       8.175  32.439  63.442  1.00  0.00     0.001 A 
HETATM   30  C   UNL     1       7.146  33.295  63.824  1.00  0.00     0.002 A 
ENDBRANCH   1  20
TORSDOF 4
ENDMDL
MODEL 9
REMARK VINA RESULT:     -10.1      5.291      9.332
REMARK  4 active torsions:
REMARK  status: ('A' for Active; 'I' for Inactive)
REMARK    1  A    between atoms: C_7  and  C_8 
REMARK       I    between atoms: C_8  and  N_9 
REMARK    2  A    between atoms: N_9  and  N_10 
REMARK       I    between atoms: N_10  and  C_11 
REMARK    3  A    between atoms: C_11  and  C_12 
REMARK    4  A    between atoms: C_12  and  C_13 
ROOT
HETATM    1  C   UNL     1       7.400  24.860  52.594  1.00  0.00     0.273 C 
HETATM    2  N   UNL     1       6.131  24.961  52.053  1.00  0.00    -0.263 N 
HETATM    3  O   UNL     1       8.376  25.402  52.078  1.00  0.00    -0.266 OA
HETATM    4  H   UNL     1       5.335  24.831  52.677  1.00  0.00     0.190 HD
ENDROOT
BRANCH   2   5
HETATM    5  N   UNL     1       5.926  25.918  51.032  1.00  0.00    -0.267 N 
HETATM    6  C   UNL     1       5.354  27.112  51.418  1.00  0.00     0.240 C 
HETATM    7  O   UNL     1       4.889  27.264  52.552  1.00  0.00    -0.272 OA
HETATM    8  H   UNL     1       6.602  25.887  50.267  1.00  0.00     0.190 HD
BRANCH   6   9
HETATM    9  C   UNL     1       5.242  28.209  50.376  1.00  0.00     0.144 C 
BRANCH   9  10
HETATM   10  C   UNL     1       3.846  28.614  49.948  1.00  0.00    -0.038 A 
HETATM   11  C   UNL     1       3.125  27.926  48.931  1.00  0.00    -0.019 A 
HETATM   12  C   UNL     1       1.832  28.392  48.580  1.00  0.00    -0.025 A 
HETATM   13  C   UNL     1       3.620  26.796  48.239  1.00  0.00     0.013 A 
HETATM   14  C   UNL     1       1.100  27.750  47.567  1.00  0.00     0.012 A 
HETATM   15  C   UNL     1       1.281  29.496  49.247  1.00  0.00     0.012 A 
HETATM   16  C   UNL     1       1.622  26.646  46.897  1.00  0.00     0.001 A 
HETATM   17  C   UNL     1       2.879  26.166  47.237  1.00  0.00     0.001 A 
HETATM   18  C   UNL     1       1.984  30.147  50.255  1.00  0.00     0.001 A 
HETATM   19  C   UNL     1       3.255  29.710  50.603  1.00  0.00     0.008 A 
ENDBRANCH   9  10
ENDBRANCH   6   9
ENDBRANCH   2   5
BRANCH   1  20
HETATM   20  C   UNL     1       7.465  24.118  53.853  1.00  0.00     0.068 A 
HETATM   21  C   UNL     1       7.251  24.605  55.141  1.00  0.00     0.022 A 
HETATM   22  C   UNL     1       6.852  25.946  55.646  1.00  0.00     0.069 C 
HETATM   23  N   UNL     1       7.443  23.562  56.017  1.00  0.00    -0.358 N 
HETATM   24  H   UNL     1       7.357  23.623  57.022  1.00  0.00     0.166 HD
HETATM   25  C   UNL     1       7.745  22.406  55.341  1.00  0.00     0.043 A 
HETATM   26  C   UNL     1       7.749  22.715  53.982  1.00  0.00     0.008 A 
HETATM   27  C   UNL     1       8.007  21.121  55.830  1.00  0.00     0.030 A 
HETATM   28  C   UNL     1       8.033  21.683  53.064  1.00  0.00     0.015 A 
HETATM   29  C   UNL     1       8.299  20.391  53.533  1.00  0.00     0.001 A 
HETATM   30  C   UNL     1       8.287  20.118  54.898  1.00  0.00     0.002 A 
ENDBRANCH   1  20
TORSDOF 4
ENDMDL
MODEL 10
REMARK VINA RESULT:     -10.0      1.382      1.829
REMARK  4 active torsions:
REMARK  status: ('A' for Active; 'I' for Inactive)
REMARK    1  A    between atoms: C_7  and  C_8 
REMARK       I    between atoms: C_8  and  N_9 
REMARK    2  A    between atoms: N_9  and  N_10 
REMARK       I    between atoms: N_10  and  C_11 
REMARK    3  A    between atoms: C_11  and  C_12 
REMARK    4  A    between atoms: C_12  and  C_13 
ROOT
HETATM    1  C   UNL     1       7.388  29.990  58.254  1.00  0.00     0.273 C 
HETATM    2  N   UNL     1       7.808  28.684  58.068  1.00  0.00    -0.263 N 
HETATM    3  O   UNL     1       6.339  30.414  57.772  1.00  0.00    -0.266 OA
HETATM    4  H   UNL     1       8.445  28.286  58.757  1.00  0.00     0.190 HD
ENDROOT
BRANCH   2   5
HETATM    5  N   UNL     1       6.878  27.766  57.527  1.00  0.00    -0.267 N 
HETATM    6  C   UNL     1       7.284  26.450  57.462  1.00  0.00     0.240 C 
HETATM    7  O   UNL     1       8.452  26.126  57.700  1.00  0.00    -0.272 OA
HETATM    8  H   UNL     1       5.895  28.002  57.681  1.00  0.00     0.190 HD
BRANCH   6   9
HETATM    9  C   UNL     1       6.265  25.420  57.012  1.00  0.00     0.144 C 
BRANCH   9  10
HETATM   10  C   UNL     1       6.231  25.084  55.534  1.00  0.00    -0.038 A 
HETATM   11  C   UNL     1       7.029  24.054  54.962  1.00  0.00    -0.019 A 
HETATM   12  C   UNL     1       6.947  23.828  53.564  1.00  0.00    -0.025 A 
HETATM   13  C   UNL     1       7.908  23.232  55.705  1.00  0.00     0.013 A 
HETATM   14  C   UNL     1       7.735  22.833  52.962  1.00  0.00     0.012 A 
HETATM   15  C   UNL     1       6.076  24.599  52.779  1.00  0.00     0.012 A 
HETATM   16  C   UNL     1       8.600  22.048  53.721  1.00  0.00     0.001 A 
HETATM   17  C   UNL     1       8.683  22.244  55.092  1.00  0.00     0.001 A 
HETATM   18  C   UNL     1       5.284  25.587  53.352  1.00  0.00     0.001 A 
HETATM   19  C   UNL     1       5.359  25.829  54.718  1.00  0.00     0.008 A 
ENDBRANCH   9  10
ENDBRANCH   6   9
ENDBRANCH   2   5
BRANCH   1  20
HETATM   20  C   UNL     1       8.258  30.788  59.117  1.00  0.00     0.068 A 
HETATM   21  C   UNL     1       9.575  31.174  58.876  1.00  0.00     0.022 A 
HETATM   22  C   UNL     1      10.475  30.972  57.708  1.00  0.00     0.069 C 
HETATM   23  N   UNL     1      10.006  31.889  59.969  1.00  0.00    -0.358 N 
HETATM   24  H   UNL     1      10.925  32.294  60.074  1.00  0.00     0.166 HD
HETATM   25  C   UNL     1       9.004  32.008  60.900  1.00  0.00     0.043 A 
HETATM   26  C   UNL     1       7.890  31.344  60.389  1.00  0.00     0.008 A 
HETATM   27  C   UNL     1       9.003  32.652  62.143  1.00  0.00     0.030 A 
HETATM   28  C   UNL     1       6.712  31.323  61.166  1.00  0.00     0.015 A 
HETATM   29  C   UNL     1       6.691  31.960  62.412  1.00  0.00     0.001 A 
HETATM   30  C   UNL     1       7.823  32.614  62.891  1.00  0.00     0.002 A 
ENDBRANCH   1  20
TORSDOF 4
ENDMDL
