MODEL 1
REMARK VINA RESULT:     -10.4      0.000      0.000
REMARK  8 active torsions:
REMARK  status: ('A' for Active; 'I' for Inactive)
REMARK    1  A    between atoms: C_4  and  N_5 
REMARK    2  A    between atoms: N_5  and  C_6 
REMARK    3  A    between atoms: C_8  and  N_9 
REMARK    4  A    between atoms: N_12  and  C_14 
REMARK    5  A    between atoms: C_14  and  C_15 
REMARK       I    between atoms: C_15  and  N_16 
REMARK    6  A    between atoms: N_16  and  C_17 
REMARK    7  A    between atoms: C_26  and  N_27 
REMARK    8  A    between atoms: N_27  and  C_28 
ROOT
HETATM    1  C   UNL     1       7.085  25.156  53.527  1.00  0.00     0.758 A 
HETATM    2  N   UNL     1       6.816  25.596  54.752  1.00  0.00     0.131 NA
HETATM    3  C   UNL     1       5.756  26.377  54.876  1.00  0.00     0.756 A 
HETATM    4  N   UNL     1       5.038  26.799  53.845  1.00  0.00     0.131 NA
HETATM    5  C   UNL     1       5.361  26.310  52.652  1.00  0.00     0.758 A 
HETATM    6  N   UNL     1       6.370  25.474  52.460  1.00  0.00     0.131 NA
ENDROOT
BRANCH   3   7
HETATM    7  N   UNL     1       5.334  26.744  56.153  1.00  0.00    -0.210 N 
HETATM    8  C   UNL     1       4.568  27.996  56.215  1.00  0.00     0.169 C 
HETATM    9  C   UNL     1       5.502  29.208  56.454  1.00  0.00     0.256 C 
HETATM   10  N   UNL     1       6.360  28.943  57.692  1.00  0.00    -0.060 N 
HETATM   11  H   UNL     1       5.706  28.717  58.451  1.00  0.00     0.280 HD
HETATM   12  C   UNL     1       7.216  27.688  57.485  1.00  0.00     0.256 C 
HETATM   13  C   UNL     1       6.279  26.486  57.251  1.00  0.00     0.169 C 
BRANCH  10  14
HETATM   14  C   UNL     1       7.143  30.158  58.195  1.00  0.00     0.337 C 
BRANCH  14  15
HETATM   15  C   UNL     1       8.658  30.150  57.942  1.00  0.00     0.249 C 
HETATM   16  N   UNL     1       9.517  30.465  58.956  1.00  0.00    -0.304 N 
HETATM   17  H   UNL     1      10.509  30.448  58.753  1.00  0.00     0.171 HD
HETATM   18  O   UNL     1       9.119  29.860  56.835  1.00  0.00    -0.271 OA
BRANCH  16  19
HETATM   19  C   UNL     1       9.137  30.803  60.222  1.00  0.00     0.172 A 
HETATM   20  S   UNL     1       8.684  32.430  60.432  1.00  0.00    -0.062 SA
HETATM   21  C   UNL     1       8.382  32.105  62.090  1.00  0.00     0.072 A 
HETATM   22  C   UNL     1       8.651  30.778  62.356  1.00  0.00     0.126 A 
HETATM   23  N   UNL     1       9.087  30.027  61.275  1.00  0.00    -0.236 NA
ENDBRANCH  16  19
ENDBRANCH  14  15
ENDBRANCH  10  14
ENDBRANCH   3   7
BRANCH   1  24
HETATM   24  N   UNL     1       8.115  24.246  53.308  1.00  0.00    -0.187 N 
HETATM   25  H   UNL     1       8.955  24.735  53.023  1.00  0.00     0.184 HD
BRANCH  24  26
HETATM   26  C   UNL     1       8.307  22.929  53.744  1.00  0.00     0.049 A 
HETATM   27  C   UNL     1       7.872  21.879  52.922  1.00  0.00     0.030 A 
HETATM   28  C   UNL     1       8.014  20.548  53.317  1.00  0.00     0.002 A 
HETATM   29  C   UNL     1       8.592  20.244  54.546  1.00  0.00     0.000 A 
HETATM   30  C   UNL     1       9.015  21.274  55.382  1.00  0.00     0.002 A 
HETATM   31  C   UNL     1       8.859  22.606  54.988  1.00  0.00     0.030 A 
ENDBRANCH  24  26
ENDBRANCH   1  24
BRANCH   5  32
HETATM   32  N   UNL     1       4.527  26.696  51.605  1.00  0.00    -0.187 N 
HETATM   33  H   UNL     1       3.561  26.632  51.887  1.00  0.00     0.184 HD
BRANCH  32  34
HETATM   34  C   UNL     1       4.763  27.027  50.265  1.00  0.00     0.049 A 
HETATM   35  C   UNL     1       5.344  28.273  49.974  1.00  0.00     0.030 A 
HETATM   36  C   UNL     1       5.575  28.679  48.655  1.00  0.00     0.002 A 
HETATM   37  C   UNL     1       5.229  27.841  47.601  1.00  0.00     0.000 A 
HETATM   38  C   UNL     1       4.654  26.602  47.866  1.00  0.00     0.002 A 
HETATM   39  C   UNL     1       4.420  26.203  49.187  1.00  0.00     0.030 A 
ENDBRANCH  32  34
ENDBRANCH   5  32
TORSDOF 8
ENDMDL
MODEL 2
REMARK VINA RESULT:     -10.4      1.196      5.468
REMARK  8 active torsions:
REMARK  status: ('A' for Active; 'I' for Inactive)
REMARK    1  A    between atoms: C_4  and  N_5 
REMARK    2  A    between atoms: N_5  and  C_6 
REMARK    3  A    between atoms: C_8  and  N_9 
REMARK    4  A    between atoms: N_12  and  C_14 
REMARK    5  A    between atoms: C_14  and  C_15 
REMARK       I    between atoms: C_15  and  N_16 
REMARK    6  A    between atoms: N_16  and  C_17 
REMARK    7  A    between atoms: C_26  and  N_27 
REMARK    8  A    between atoms: N_27  and  C_28 
ROOT
HETATM    1  C   UNL     1       5.045  26.598  52.604  1.00  0.00     0.758 A 
HETATM    2  N   UNL     1       4.867  27.377  53.667  1.00  0.00     0.131 NA
HETATM    3  C   UNL     1       5.698  27.188  54.679  1.00  0.00     0.756 A 
HETATM    4  N   UNL     1       6.603  26.220  54.707  1.00  0.00     0.131 NA
HETATM    5  C   UNL     1       6.728  25.488  53.605  1.00  0.00     0.758 A 
HETATM    6  N   UNL     1       5.975  25.660  52.530  1.00  0.00     0.131 NA
ENDROOT
BRANCH   3   7
HETATM    7  N   UNL     1       5.662  28.073  55.755  1.00  0.00    -0.210 N 
HETATM    8  C   UNL     1       6.298  29.375  55.506  1.00  0.00     0.169 C 
HETATM    9  C   UNL     1       7.793  29.349  55.907  1.00  0.00     0.256 C 
HETATM   10  N   UNL     1       7.916  28.864  57.353  1.00  0.00    -0.060 N 
HETATM   11  H   UNL     1       7.306  29.473  57.911  1.00  0.00     0.280 HD
HETATM   12  C   UNL     1       7.340  27.450  57.488  1.00  0.00     0.256 C 
HETATM   13  C   UNL     1       5.850  27.484  57.090  1.00  0.00     0.169 C 
BRANCH  10  14
HETATM   14  C   UNL     1       9.309  29.033  57.963  1.00  0.00     0.337 C 
BRANCH  14  15
HETATM   15  C   UNL     1      10.096  30.281  57.538  1.00  0.00     0.249 C 
HETATM   16  N   UNL     1       9.808  31.491  58.101  1.00  0.00    -0.304 N 
HETATM   17  H   UNL     1      10.348  32.292  57.797  1.00  0.00     0.171 HD
HETATM   18  O   UNL     1      10.992  30.213  56.692  1.00  0.00    -0.271 OA
BRANCH  16  19
HETATM   19  C   UNL     1       8.844  31.701  59.043  1.00  0.00     0.172 A 
HETATM   20  S   UNL     1       9.397  31.726  60.652  1.00  0.00    -0.062 SA
HETATM   21  C   UNL     1       7.786  32.002  61.175  1.00  0.00     0.072 A 
HETATM   22  C   UNL     1       6.949  32.055  60.079  1.00  0.00     0.126 A 
HETATM   23  N   UNL     1       7.562  31.881  58.848  1.00  0.00    -0.236 NA
ENDBRANCH  16  19
ENDBRANCH  14  15
ENDBRANCH  10  14
ENDBRANCH   3   7
BRANCH   1  24
HETATM   24  N   UNL     1       4.292  26.789  51.450  1.00  0.00    -0.187 N 
HETATM   25  H   UNL     1       3.332  27.000  51.693  1.00  0.00     0.184 HD
BRANCH  24  26
HETATM   26  C   UNL     1       4.659  27.099  50.135  1.00  0.00     0.049 A 
HETATM   27  C   UNL     1       5.362  28.289  49.897  1.00  0.00     0.030 A 
HETATM   28  C   UNL     1       5.732  28.663  48.604  1.00  0.00     0.002 A 
HETATM   29  C   UNL     1       5.402  27.850  47.524  1.00  0.00     0.000 A 
HETATM   30  C   UNL     1       4.691  26.672  47.739  1.00  0.00     0.002 A 
HETATM   31  C   UNL     1       4.311  26.309  49.035  1.00  0.00     0.030 A 
ENDBRANCH  24  26
ENDBRANCH   1  24
BRANCH   5  32
HETATM   32  N   UNL     1       7.753  24.544  53.631  1.00  0.00    -0.187 N 
HETATM   33  H   UNL     1       8.609  24.949  53.282  1.00  0.00     0.184 HD
BRANCH  32  34
HETATM   34  C   UNL     1       7.788  23.176  53.925  1.00  0.00     0.049 A 
HETATM   35  C   UNL     1       7.683  22.774  55.268  1.00  0.00     0.030 A 
HETATM   36  C   UNL     1       7.745  21.425  55.632  1.00  0.00     0.002 A 
HETATM   37  C   UNL     1       7.911  20.450  54.655  1.00  0.00     0.000 A 
HETATM   38  C   UNL     1       8.015  20.824  53.319  1.00  0.00     0.002 A 
HETATM   39  C   UNL     1       7.959  22.176  52.960  1.00  0.00     0.030 A 
ENDBRANCH  32  34
ENDBRANCH   5  32
TORSDOF 8
ENDMDL
MODEL 3
REMARK VINA RESULT:     -10.2      3.548      8.891
REMARK  8 active torsions:
REMARK  status: ('A' for Active; 'I' for Inactive)
REMARK    1  A    between atoms: C_4  and  N_5 
REMARK    2  A    between atoms: N_5  and  C_6 
REMARK    3  A    between atoms: C_8  and  N_9 
REMARK    4  A    between atoms: N_12  and  C_14 
REMARK    5  A    between atoms: C_14  and  C_15 
REMARK       I    between atoms: C_15  and  N_16 
REMARK    6  A    between atoms: N_16  and  C_17 
REMARK    7  A    between atoms: C_26  and  N_27 
REMARK    8  A    between atoms: N_27  and  C_28 
ROOT
HETATM    1  C   UNL     1       6.947  27.423  56.019  1.00  0.00     0.758 A 
HETATM    2  N   UNL     1       6.022  27.518  55.070  1.00  0.00     0.131 NA
HETATM    3  C   UNL     1       5.815  26.434  54.341  1.00  0.00     0.756 A 
HETATM    4  N   UNL     1       6.538  25.329  54.457  1.00  0.00     0.131 NA
HETATM    5  C   UNL     1       7.439  25.306  55.434  1.00  0.00     0.758 A 
HETATM    6  N   UNL     1       7.659  26.331  56.242  1.00  0.00     0.131 NA
ENDROOT
BRANCH   3   7
HETATM    7  N   UNL     1       4.755  26.421  53.437  1.00  0.00    -0.210 N 
HETATM    8  C   UNL     1       4.877  25.435  52.354  1.00  0.00     0.169 C 
HETATM    9  C   UNL     1       5.587  26.047  51.121  1.00  0.00     0.256 C 
HETATM   10  N   UNL     1       4.862  27.331  50.713  1.00  0.00    -0.060 N 
HETATM   11  H   UNL     1       3.875  27.075  50.588  1.00  0.00     0.280 HD
HETATM   12  C   UNL     1       4.895  28.346  51.860  1.00  0.00     0.256 C 
HETATM   13  C   UNL     1       4.184  27.730  53.083  1.00  0.00     0.169 C 
BRANCH  10  14
HETATM   14  C   UNL     1       5.296  27.901  49.360  1.00  0.00     0.337 C 
BRANCH  14  15
HETATM   15  C   UNL     1       4.559  27.368  48.123  1.00  0.00     0.249 C 
HETATM   16  N   UNL     1       3.303  27.820  47.833  1.00  0.00    -0.304 N 
HETATM   17  H   UNL     1       2.848  27.447  47.010  1.00  0.00     0.171 HD
HETATM   18  O   UNL     1       5.080  26.533  47.379  1.00  0.00    -0.271 OA
BRANCH  16  19
HETATM   19  C   UNL     1       2.616  28.738  48.573  1.00  0.00     0.172 A 
HETATM   20  S   UNL     1       2.711  30.340  48.009  1.00  0.00    -0.062 SA
HETATM   21  C   UNL     1       1.713  30.832  49.316  1.00  0.00     0.072 A 
HETATM   22  C   UNL     1       1.383  29.733  50.083  1.00  0.00     0.126 A 
HETATM   23  N   UNL     1       1.905  28.524  49.652  1.00  0.00    -0.236 NA
ENDBRANCH  16  19
ENDBRANCH  14  15
ENDBRANCH  10  14
ENDBRANCH   3   7
BRANCH   1  24
HETATM   24  N   UNL     1       7.166  28.473  56.906  1.00  0.00    -0.187 N 
HETATM   25  H   UNL     1       6.453  28.474  57.625  1.00  0.00     0.184 HD
BRANCH  24  26
HETATM   26  C   UNL     1       8.307  29.232  57.192  1.00  0.00     0.049 A 
HETATM   27  C   UNL     1       8.338  29.978  58.379  1.00  0.00     0.030 A 
HETATM   28  C   UNL     1       9.439  30.773  58.704  1.00  0.00     0.002 A 
HETATM   29  C   UNL     1      10.529  30.837  57.841  1.00  0.00     0.000 A 
HETATM   30  C   UNL     1      10.510  30.115  56.650  1.00  0.00     0.002 A 
HETATM   31  C   UNL     1       9.399  29.331  56.323  1.00  0.00     0.030 A 
ENDBRANCH  24  26
ENDBRANCH   1  24
BRANCH   5  32
HETATM   32  N   UNL     1       8.116  24.098  55.591  1.00  0.00    -0.187 N 
HETATM   33  H   UNL     1       8.826  24.186  56.302  1.00  0.00     0.184 HD
BRANCH  32  34
HETATM   34  C   UNL     1       8.074  22.880  54.901  1.00  0.00     0.049 A 
HETATM   35  C   UNL     1       7.886  21.698  55.637  1.00  0.00     0.030 A 
HETATM   36  C   UNL     1       7.868  20.446  55.011  1.00  0.00     0.002 A 
HETATM   37  C   UNL     1       8.038  20.356  53.635  1.00  0.00     0.000 A 
HETATM   38  C   UNL     1       8.226  21.514  52.887  1.00  0.00     0.002 A 
HETATM   39  C   UNL     1       8.247  22.763  53.517  1.00  0.00     0.030 A 
ENDBRANCH  32  34
ENDBRANCH   5  32
TORSDOF 8
ENDMDL
MODEL 4
REMARK VINA RESULT:     -10.2      3.406      8.668
REMARK  8 active torsions:
REMARK  status: ('A' for Active; 'I' for Inactive)
REMARK    1  A    between atoms: C_4  and  N_5 
REMARK    2  A    between atoms: N_5  and  C_6 
REMARK    3  A    between atoms: C_8  and  N_9 
REMARK    4  A    between atoms: N_12  and  C_14 
REMARK    5  A    between atoms: C_14  and  C_15 
REMARK       I    between atoms: C_15  and  N_16 
REMARK    6  A    between atoms: N_16  and  C_17 
REMARK    7  A    between atoms: C_26  and  N_27 
REMARK    8  A    between atoms: N_27  and  C_28 
ROOT
HETATM    1  C   UNL     1       6.976  27.203  56.741  1.00  0.00     0.758 A 
HETATM    2  N   UNL     1       6.135  27.533  55.766  1.00  0.00     0.131 NA
HETATM    3  C   UNL     1       5.744  26.552  54.970  1.00  0.00     0.756 A 
HETATM    4  N   UNL     1       6.219  25.318  55.048  1.00  0.00     0.131 NA
HETATM    5  C   UNL     1       7.049  25.060  56.054  1.00  0.00     0.758 A 
HETATM    6  N   UNL     1       7.437  25.977  56.927  1.00  0.00     0.131 NA
ENDROOT
BRANCH   3   7
HETATM    7  N   UNL     1       4.747  26.804  54.029  1.00  0.00    -0.210 N 
HETATM    8  C   UNL     1       4.743  25.895  52.874  1.00  0.00     0.169 C 
HETATM    9  C   UNL     1       5.615  26.454  51.723  1.00  0.00     0.256 C 
HETATM   10  N   UNL     1       5.158  27.877  51.395  1.00  0.00    -0.060 N 
HETATM   11  H   UNL     1       4.149  27.819  51.214  1.00  0.00     0.280 HD
HETATM   12  C   UNL     1       5.316  28.781  52.623  1.00  0.00     0.256 C 
HETATM   13  C   UNL     1       4.443  28.218  53.763  1.00  0.00     0.169 C 
BRANCH  10  14
HETATM   14  C   UNL     1       5.757  28.456  50.111  1.00  0.00     0.337 C 
BRANCH  14  15
HETATM   15  C   UNL     1       5.498  29.946  49.846  1.00  0.00     0.249 C 
HETATM   16  N   UNL     1       4.309  30.343  49.306  1.00  0.00    -0.304 N 
HETATM   17  H   UNL     1       4.172  31.334  49.146  1.00  0.00     0.171 HD
HETATM   18  O   UNL     1       6.348  30.799  50.113  1.00  0.00    -0.271 OA
BRANCH  16  19
HETATM   19  C   UNL     1       3.289  29.503  48.964  1.00  0.00     0.172 A 
HETATM   20  S   UNL     1       3.135  29.191  47.299  1.00  0.00    -0.062 SA
HETATM   21  C   UNL     1       1.791  28.179  47.639  1.00  0.00     0.072 A 
HETATM   22  C   UNL     1       1.564  28.157  49.000  1.00  0.00     0.126 A 
HETATM   23  N   UNL     1       2.431  28.923  49.764  1.00  0.00    -0.236 NA
ENDBRANCH  16  19
ENDBRANCH  14  15
ENDBRANCH  10  14
ENDBRANCH   3   7
BRANCH   1  24
HETATM   24  N   UNL     1       7.364  28.141  57.693  1.00  0.00    -0.187 N 
HETATM   25  H   UNL     1       6.982  27.895  58.597  1.00  0.00     0.184 HD
BRANCH  24  26
HETATM   26  C   UNL     1       8.412  29.069  57.716  1.00  0.00     0.049 A 
HETATM   27  C   UNL     1       9.479  28.901  56.822  1.00  0.00     0.030 A 
HETATM   28  C   UNL     1      10.563  29.781  56.819  1.00  0.00     0.002 A 
HETATM   29  C   UNL     1      10.598  30.846  57.714  1.00  0.00     0.000 A 
HETATM   30  C   UNL     1       9.554  31.020  58.619  1.00  0.00     0.002 A 
HETATM   31  C   UNL     1       8.477  30.128  58.628  1.00  0.00     0.030 A 
ENDBRANCH  24  26
ENDBRANCH   1  24
BRANCH   5  32
HETATM   32  N   UNL     1       7.455  23.732  56.166  1.00  0.00    -0.187 N 
HETATM   33  H   UNL     1       7.724  23.529  57.118  1.00  0.00     0.184 HD
BRANCH  32  34
HETATM   34  C   UNL     1       7.659  22.710  55.231  1.00  0.00     0.049 A 
HETATM   35  C   UNL     1       7.781  21.390  55.695  1.00  0.00     0.030 A 
HETATM   36  C   UNL     1       8.018  20.328  54.816  1.00  0.00     0.002 A 
HETATM   37  C   UNL     1       8.137  20.570  53.452  1.00  0.00     0.000 A 
HETATM   38  C   UNL     1       8.020  21.870  52.970  1.00  0.00     0.002 A 
HETATM   39  C   UNL     1       7.787  22.929  53.855  1.00  0.00     0.030 A 
ENDBRANCH  32  34
ENDBRANCH   5  32
TORSDOF 8
ENDMDL
MODEL 5
REMARK VINA RESULT:     -10.1      3.215      8.199
REMARK  8 active torsions:
REMARK  status: ('A' for Active; 'I' for Inactive)
REMARK    1  A    between atoms: C_4  and  N_5 
REMARK    2  A    between atoms: N_5  and  C_6 
REMARK    3  A    between atoms: C_8  and  N_9 
REMARK    4  A    between atoms: N_12  and  C_14 
REMARK    5  A    between atoms: C_14  and  C_15 
REMARK       I    between atoms: C_15  and  N_16 
REMARK    6  A    between atoms: N_16  and  C_17 
REMARK    7  A    between atoms: C_26  and  N_27 
REMARK    8  A    between atoms: N_27  and  C_28 
ROOT
HETATM    1  C   UNL     1       7.474  25.096  55.744  1.00  0.00     0.758 A 
HETATM    2  N   UNL     1       6.432  25.198  54.925  1.00  0.00     0.131 NA
HETATM    3  C   UNL     1       5.760  26.336  54.969  1.00  0.00     0.756 A 
HETATM    4  N   UNL     1       6.020  27.303  55.837  1.00  0.00     0.131 NA
HETATM    5  C   UNL     1       7.083  27.134  56.618  1.00  0.00     0.758 A 
HETATM    6  N   UNL     1       7.840  26.048  56.587  1.00  0.00     0.131 NA
ENDROOT
BRANCH   3   7
HETATM    7  N   UNL     1       4.756  26.563  54.029  1.00  0.00    -0.210 N 
HETATM    8  C   UNL     1       4.742  25.623  52.900  1.00  0.00     0.169 C 
HETATM    9  C   UNL     1       5.605  26.151  51.727  1.00  0.00     0.256 C 
HETATM   10  N   UNL     1       5.146  27.564  51.364  1.00  0.00    -0.060 N 
HETATM   11  H   UNL     1       4.136  27.502  51.192  1.00  0.00     0.280 HD
HETATM   12  C   UNL     1       5.314  28.501  52.566  1.00  0.00     0.256 C 
HETATM   13  C   UNL     1       4.450  27.970  53.728  1.00  0.00     0.169 C 
BRANCH  10  14
HETATM   14  C   UNL     1       5.735  28.108  50.060  1.00  0.00     0.337 C 
BRANCH  14  15
HETATM   15  C   UNL     1       5.396  29.563  49.709  1.00  0.00     0.249 C 
HETATM   16  N   UNL     1       4.286  29.842  48.965  1.00  0.00    -0.304 N 
HETATM   17  H   UNL     1       4.092  30.813  48.754  1.00  0.00     0.171 HD
HETATM   18  O   UNL     1       6.110  30.495  50.090  1.00  0.00    -0.271 OA
BRANCH  16  19
HETATM   19  C   UNL     1       3.417  28.907  48.483  1.00  0.00     0.172 A 
HETATM   20  S   UNL     1       2.045  28.626  49.450  1.00  0.00    -0.062 SA
HETATM   21  C   UNL     1       1.511  27.461  48.308  1.00  0.00     0.072 A 
HETATM   22  C   UNL     1       2.422  27.376  47.275  1.00  0.00     0.126 A 
HETATM   23  N   UNL     1       3.522  28.213  47.378  1.00  0.00    -0.236 NA
ENDBRANCH  16  19
ENDBRANCH  14  15
ENDBRANCH  10  14
ENDBRANCH   3   7
BRANCH   1  24
HETATM   24  N   UNL     1       8.306  23.982  55.699  1.00  0.00    -0.187 N 
HETATM   25  H   UNL     1       8.884  23.947  56.530  1.00  0.00     0.184 HD
BRANCH  24  26
HETATM   26  C   UNL     1       8.232  22.789  54.971  1.00  0.00     0.049 A 
HETATM   27  C   UNL     1       8.090  21.581  55.671  1.00  0.00     0.030 A 
HETATM   28  C   UNL     1       8.037  20.359  54.998  1.00  0.00     0.002 A 
HETATM   29  C   UNL     1       8.126  20.325  53.610  1.00  0.00     0.000 A 
HETATM   30  C   UNL     1       8.283  21.512  52.899  1.00  0.00     0.002 A 
HETATM   31  C   UNL     1       8.349  22.732  53.578  1.00  0.00     0.030 A 
ENDBRANCH  24  26
ENDBRANCH   1  24
BRANCH   5  32
HETATM   32  N   UNL     1       7.387  28.208  57.450  1.00  0.00    -0.187 N 
HETATM   33  H   UNL     1       6.599  28.426  58.041  1.00  0.00     0.184 HD
BRANCH  32  34
HETATM   34  C   UNL     1       8.485  29.073  57.536  1.00  0.00     0.049 A 
HETATM   35  C   UNL     1       8.506  30.033  58.561  1.00  0.00     0.030 A 
HETATM   36  C   UNL     1       9.558  30.948  58.681  1.00  0.00     0.002 A 
HETATM   37  C   UNL     1      10.611  30.917  57.774  1.00  0.00     0.000 A 
HETATM   38  C   UNL     1      10.611  29.974  56.751  1.00  0.00     0.002 A 
HETATM   39  C   UNL     1       9.554  29.065  56.632  1.00  0.00     0.030 A 
ENDBRANCH  32  34
ENDBRANCH   5  32
TORSDOF 8
ENDMDL
MODEL 6
REMARK VINA RESULT:      -9.3      3.290      8.936
REMARK  8 active torsions:
REMARK  status: ('A' for Active; 'I' for Inactive)
REMARK    1  A    between atoms: C_4  and  N_5 
REMARK    2  A    between atoms: N_5  and  C_6 
REMARK    3  A    between atoms: C_8  and  N_9 
REMARK    4  A    between atoms: N_12  and  C_14 
REMARK    5  A    between atoms: C_14  and  C_15 
REMARK       I    between atoms: C_15  and  N_16 
REMARK    6  A    between atoms: N_16  and  C_17 
REMARK    7  A    between atoms: C_26  and  N_27 
REMARK    8  A    between atoms: N_27  and  C_28 
ROOT
HETATM    1  C   UNL     1       7.529  28.736  56.289  1.00  0.00     0.758 A 
HETATM    2  N   UNL     1       6.411  29.015  55.627  1.00  0.00     0.131 NA
HETATM    3  C   UNL     1       5.724  27.980  55.172  1.00  0.00     0.756 A 
HETATM    4  N   UNL     1       6.146  26.728  55.265  1.00  0.00     0.131 NA
HETATM    5  C   UNL     1       7.269  26.526  55.948  1.00  0.00     0.758 A 
HETATM    6  N   UNL     1       7.977  27.507  56.486  1.00  0.00     0.131 NA
ENDROOT
BRANCH   3   7
HETATM    7  N   UNL     1       4.469  28.200  54.607  1.00  0.00    -0.210 N 
HETATM    8  C   UNL     1       4.073  27.225  53.581  1.00  0.00     0.169 C 
HETATM    9  C   UNL     1       4.507  27.694  52.171  1.00  0.00     0.256 C 
HETATM   10  N   UNL     1       3.971  29.106  51.926  1.00  0.00    -0.060 N 
HETATM   11  H   UNL     1       2.959  29.061  52.099  1.00  0.00     0.280 HD
HETATM   12  C   UNL     1       4.536  30.076  52.969  1.00  0.00     0.256 C 
HETATM   13  C   UNL     1       4.097  29.603  54.370  1.00  0.00     0.169 C 
BRANCH  10  14
HETATM   14  C   UNL     1       4.104  29.593  50.481  1.00  0.00     0.337 C 
BRANCH  14  15
HETATM   15  C   UNL     1       5.483  29.431  49.827  1.00  0.00     0.249 C 
HETATM   16  N   UNL     1       5.690  28.436  48.915  1.00  0.00    -0.304 N 
HETATM   17  H   UNL     1       6.612  28.359  48.504  1.00  0.00     0.171 HD
HETATM   18  O   UNL     1       6.416  30.188  50.109  1.00  0.00    -0.271 OA
BRANCH  16  19
HETATM   19  C   UNL     1       4.746  27.534  48.519  1.00  0.00     0.172 A 
HETATM   20  S   UNL     1       3.709  28.070  47.280  1.00  0.00    -0.062 SA
HETATM   21  C   UNL     1       2.901  26.557  47.338  1.00  0.00     0.072 A 
HETATM   22  C   UNL     1       3.486  25.758  48.299  1.00  0.00     0.126 A 
HETATM   23  N   UNL     1       4.552  26.325  48.980  1.00  0.00    -0.236 NA
ENDBRANCH  16  19
ENDBRANCH  14  15
ENDBRANCH  10  14
ENDBRANCH   3   7
BRANCH   1  24
HETATM   24  N   UNL     1       8.267  29.748  56.896  1.00  0.00    -0.187 N 
HETATM   25  H   UNL     1       8.788  30.264  56.197  1.00  0.00     0.184 HD
BRANCH  24  26
HETATM   26  C   UNL     1       8.139  30.381  58.137  1.00  0.00     0.049 A 
HETATM   27  C   UNL     1       7.009  31.179  58.371  1.00  0.00     0.030 A 
HETATM   28  C   UNL     1       6.841  31.855  59.581  1.00  0.00     0.002 A 
HETATM   29  C   UNL     1       7.805  31.746  60.578  1.00  0.00     0.000 A 
HETATM   30  C   UNL     1       8.940  30.971  60.359  1.00  0.00     0.002 A 
HETATM   31  C   UNL     1       9.111  30.306  59.140  1.00  0.00     0.030 A 
ENDBRANCH  24  26
ENDBRANCH   1  24
BRANCH   5  32
HETATM   32  N   UNL     1       7.634  25.191  56.112  1.00  0.00    -0.187 N 
HETATM   33  H   UNL     1       7.757  24.981  57.091  1.00  0.00     0.184 HD
BRANCH  32  34
HETATM   34  C   UNL     1       7.960  24.170  55.211  1.00  0.00     0.049 A 
HETATM   35  C   UNL     1       8.719  23.082  55.674  1.00  0.00     0.030 A 
HETATM   36  C   UNL     1       9.105  22.046  54.817  1.00  0.00     0.002 A 
HETATM   37  C   UNL     1       8.736  22.080  53.477  1.00  0.00     0.000 A 
HETATM   38  C   UNL     1       7.984  23.147  52.997  1.00  0.00     0.002 A 
HETATM   39  C   UNL     1       7.604  24.184  53.857  1.00  0.00     0.030 A 
ENDBRANCH  32  34
ENDBRANCH   5  32
TORSDOF 8
ENDMDL
MODEL 7
REMARK VINA RESULT:      -9.2      4.169      8.916
REMARK  8 active torsions:
REMARK  status: ('A' for Active; 'I' for Inactive)
REMARK    1  A    between atoms: C_4  and  N_5 
REMARK    2  A    between atoms: N_5  and  C_6 
REMARK    3  A    between atoms: C_8  and  N_9 
REMARK    4  A    between atoms: N_12  and  C_14 
REMARK    5  A    between atoms: C_14  and  C_15 
REMARK       I    between atoms: C_15  and  N_16 
REMARK    6  A    between atoms: N_16  and  C_17 
REMARK    7  A    between atoms: C_26  and  N_27 
REMARK    8  A    between atoms: N_27  and  C_28 
ROOT
HETATM    1  C   UNL     1       5.812  26.055  53.967  1.00  0.00     0.758 A 
HETATM    2  N   UNL     1       5.558  26.598  52.780  1.00  0.00     0.131 NA
HETATM    3  C   UNL     1       5.671  27.913  52.700  1.00  0.00     0.756 A 
HETATM    4  N   UNL     1       5.924  28.688  53.745  1.00  0.00     0.131 NA
HETATM    5  C   UNL     1       6.175  28.073  54.896  1.00  0.00     0.758 A 
HETATM    6  N   UNL     1       6.142  26.757  55.038  1.00  0.00     0.131 NA
ENDROOT
BRANCH   3   7
HETATM    7  N   UNL     1       5.569  28.523  51.451  1.00  0.00    -0.210 N 
HETATM    8  C   UNL     1       4.870  29.816  51.449  1.00  0.00     0.169 C 
HETATM    9  C   UNL     1       3.354  29.628  51.196  1.00  0.00     0.256 C 
HETATM   10  N   UNL     1       3.157  28.814  49.916  1.00  0.00    -0.060 N 
HETATM   11  H   UNL     1       3.683  29.303  49.182  1.00  0.00     0.280 HD
HETATM   12  C   UNL     1       3.812  27.435  50.058  1.00  0.00     0.256 C 
HETATM   13  C   UNL     1       5.322  27.631  50.307  1.00  0.00     0.169 C 
BRANCH  10  14
HETATM   14  C   UNL     1       1.714  28.771  49.407  1.00  0.00     0.337 C 
BRANCH  14  15
HETATM   15  C   UNL     1       1.469  27.990  48.108  1.00  0.00     0.249 C 
HETATM   16  N   UNL     1       1.990  28.448  46.931  1.00  0.00    -0.304 N 
HETATM   17  H   UNL     1       1.810  27.907  46.095  1.00  0.00     0.171 HD
HETATM   18  O   UNL     1       0.809  26.948  48.104  1.00  0.00    -0.271 OA
BRANCH  16  19
HETATM   19  C   UNL     1       2.735  29.583  46.799  1.00  0.00     0.172 A 
HETATM   20  S   UNL     1       1.898  30.931  46.184  1.00  0.00    -0.062 SA
HETATM   21  C   UNL     1       3.345  31.848  46.298  1.00  0.00     0.072 A 
HETATM   22  C   UNL     1       4.356  31.054  46.798  1.00  0.00     0.126 A 
HETATM   23  N   UNL     1       4.002  29.745  47.087  1.00  0.00    -0.236 NA
ENDBRANCH  16  19
ENDBRANCH  14  15
ENDBRANCH  10  14
ENDBRANCH   3   7
BRANCH   1  24
HETATM   24  N   UNL     1       5.822  24.673  54.129  1.00  0.00    -0.187 N 
HETATM   25  H   UNL     1       4.922  24.287  53.873  1.00  0.00     0.184 HD
BRANCH  24  26
HETATM   26  C   UNL     1       6.871  23.749  54.203  1.00  0.00     0.049 A 
HETATM   27  C   UNL     1       7.304  23.323  55.467  1.00  0.00     0.030 A 
HETATM   28  C   UNL     1       8.362  22.423  55.603  1.00  0.00     0.002 A 
HETATM   29  C   UNL     1       9.009  21.935  54.472  1.00  0.00     0.000 A 
HETATM   30  C   UNL     1       8.604  22.358  53.209  1.00  0.00     0.002 A 
HETATM   31  C   UNL     1       7.552  23.270  53.079  1.00  0.00     0.030 A 
ENDBRANCH  24  26
ENDBRANCH   1  24
BRANCH   5  32
HETATM   32  N   UNL     1       6.532  28.910  55.952  1.00  0.00    -0.187 N 
HETATM   33  H   UNL     1       5.713  29.362  56.330  1.00  0.00     0.184 HD
BRANCH  32  34
HETATM   34  C   UNL     1       7.764  29.308  56.484  1.00  0.00     0.049 A 
HETATM   35  C   UNL     1       8.907  29.219  55.672  1.00  0.00     0.030 A 
HETATM   36  C   UNL     1      10.173  29.569  56.154  1.00  0.00     0.002 A 
HETATM   37  C   UNL     1      10.317  30.018  57.462  1.00  0.00     0.000 A 
HETATM   38  C   UNL     1       9.198  30.115  58.284  1.00  0.00     0.002 A 
HETATM   39  C   UNL     1       7.935  29.758  57.798  1.00  0.00     0.030 A 
ENDBRANCH  32  34
ENDBRANCH   5  32
TORSDOF 8
ENDMDL
MODEL 8
REMARK VINA RESULT:      -9.2      2.421      3.247
REMARK  8 active torsions:
REMARK  status: ('A' for Active; 'I' for Inactive)
REMARK    1  A    between atoms: C_4  and  N_5 
REMARK    2  A    between atoms: N_5  and  C_6 
REMARK    3  A    between atoms: C_8  and  N_9 
REMARK    4  A    between atoms: N_12  and  C_14 
REMARK    5  A    between atoms: C_14  and  C_15 
REMARK       I    between atoms: C_15  and  N_16 
REMARK    6  A    between atoms: N_16  and  C_17 
REMARK    7  A    between atoms: C_26  and  N_27 
REMARK    8  A    between atoms: N_27  and  C_28 
ROOT
HETATM    1  C   UNL     1       4.934  27.216  54.245  1.00  0.00     0.758 A 
HETATM    2  N   UNL     1       4.450  28.157  55.049  1.00  0.00     0.131 NA
HETATM    3  C   UNL     1       4.143  29.312  54.483  1.00  0.00     0.756 A 
HETATM    4  N   UNL     1       4.384  29.586  53.209  1.00  0.00     0.131 NA
HETATM    5  C   UNL     1       4.862  28.593  52.466  1.00  0.00     0.758 A 
HETATM    6  N   UNL     1       5.134  27.391  52.949  1.00  0.00     0.131 NA
ENDROOT
BRANCH   3   7
HETATM    7  N   UNL     1       3.489  30.282  55.241  1.00  0.00    -0.210 N 
HETATM    8  C   UNL     1       3.809  31.670  54.878  1.00  0.00     0.169 C 
HETATM    9  C   UNL     1       5.007  32.199  55.705  1.00  0.00     0.256 C 
HETATM   10  N   UNL     1       4.717  31.997  57.193  1.00  0.00    -0.060 N 
HETATM   11  H   UNL     1       3.810  32.444  57.371  1.00  0.00     0.280 HD
HETATM   12  C   UNL     1       4.521  30.507  57.498  1.00  0.00     0.256 C 
HETATM   13  C   UNL     1       3.325  29.989  56.673  1.00  0.00     0.169 C 
BRANCH  10  14
HETATM   14  C   UNL     1       5.697  32.704  58.133  1.00  0.00     0.337 C 
BRANCH  14  15
HETATM   15  C   UNL     1       5.684  32.255  59.601  1.00  0.00     0.249 C 
HETATM   16  N   UNL     1       6.797  31.682  60.146  1.00  0.00    -0.304 N 
HETATM   17  H   UNL     1       6.752  31.399  61.118  1.00  0.00     0.171 HD
HETATM   18  O   UNL     1       4.681  32.404  60.305  1.00  0.00    -0.271 OA
BRANCH  16  19
HETATM   19  C   UNL     1       7.965  31.461  59.478  1.00  0.00     0.172 A 
HETATM   20  S   UNL     1       8.113  29.921  58.768  1.00  0.00    -0.062 SA
HETATM   21  C   UNL     1       9.667  30.365  58.191  1.00  0.00     0.072 A 
HETATM   22  C   UNL     1       9.954  31.656  58.585  1.00  0.00     0.126 A 
HETATM   23  N   UNL     1       8.969  32.288  59.329  1.00  0.00    -0.236 NA
ENDBRANCH  16  19
ENDBRANCH  14  15
ENDBRANCH  10  14
ENDBRANCH   3   7
BRANCH   1  24
HETATM   24  N   UNL     1       5.189  25.935  54.724  1.00  0.00    -0.187 N 
HETATM   25  H   UNL     1       4.332  25.512  55.057  1.00  0.00     0.184 HD
BRANCH  24  26
HETATM   26  C   UNL     1       6.247  25.046  54.498  1.00  0.00     0.049 A 
HETATM   27  C   UNL     1       6.282  24.336  53.289  1.00  0.00     0.030 A 
HETATM   28  C   UNL     1       7.299  23.418  53.020  1.00  0.00     0.002 A 
HETATM   29  C   UNL     1       8.300  23.193  53.960  1.00  0.00     0.000 A 
HETATM   30  C   UNL     1       8.274  23.878  55.172  1.00  0.00     0.002 A 
HETATM   31  C   UNL     1       7.246  24.787  55.443  1.00  0.00     0.030 A 
ENDBRANCH  24  26
ENDBRANCH   1  24
BRANCH   5  32
HETATM   32  N   UNL     1       5.013  28.883  51.111  1.00  0.00    -0.187 N 
HETATM   33  H   UNL     1       5.601  29.694  50.992  1.00  0.00     0.184 HD
BRANCH  32  34
HETATM   34  C   UNL     1       4.437  28.355  49.949  1.00  0.00     0.049 A 
HETATM   35  C   UNL     1       3.055  28.513  49.753  1.00  0.00     0.030 A 
HETATM   36  C   UNL     1       2.413  27.980  48.629  1.00  0.00     0.002 A 
HETATM   37  C   UNL     1       3.147  27.281  47.678  1.00  0.00     0.000 A 
HETATM   38  C   UNL     1       4.517  27.113  47.851  1.00  0.00     0.002 A 
HETATM   39  C   UNL     1       5.154  27.643  48.980  1.00  0.00     0.030 A 
ENDBRANCH  32  34
ENDBRANCH   5  32
TORSDOF 8
ENDMDL
MODEL 9
REMARK VINA RESULT:      -9.2      3.272      6.300
REMARK  8 active torsions:
REMARK  status: ('A' for Active; 'I' for Inactive)
REMARK    1  A    between atoms: C_4  and  N_5 
REMARK    2  A    between atoms: N_5  and  C_6 
REMARK    3  A    between atoms: C_8  and  N_9 
REMARK    4  A    between atoms: N_12  and  C_14 
REMARK    5  A    between atoms: C_14  and  C_15 
REMARK       I    between atoms: C_15  and  N_16 
REMARK    6  A    between atoms: N_16  and  C_17 
REMARK    7  A    between atoms: C_26  and  N_27 
REMARK    8  A    between atoms: N_27  and  C_28 
ROOT
HETATM    1  C   UNL     1       5.470  27.241  55.171  1.00  0.00     0.758 A 
HETATM    2  N   UNL     1       4.583  28.227  55.262  1.00  0.00     0.131 NA
HETATM    3  C   UNL     1       4.896  29.226  56.070  1.00  0.00     0.756 A 
HETATM    4  N   UNL     1       5.976  29.232  56.836  1.00  0.00     0.131 NA
HETATM    5  C   UNL     1       6.821  28.218  56.685  1.00  0.00     0.758 A 
HETATM    6  N   UNL     1       6.606  27.213  55.850  1.00  0.00     0.131 NA
ENDROOT
BRANCH   3   7
HETATM    7  N   UNL     1       4.081  30.357  56.089  1.00  0.00    -0.210 N 
HETATM    8  C   UNL     1       4.782  31.628  55.855  1.00  0.00     0.169 C 
HETATM    9  C   UNL     1       5.253  32.258  57.189  1.00  0.00     0.256 C 
HETATM   10  N   UNL     1       4.058  32.373  58.137  1.00  0.00    -0.060 N 
HETATM   11  H   UNL     1       3.333  32.887  57.623  1.00  0.00     0.280 HD
HETATM   12  C   UNL     1       3.471  30.986  58.422  1.00  0.00     0.256 C 
HETATM   13  C   UNL     1       3.003  30.367  57.089  1.00  0.00     0.169 C 
BRANCH  10  14
HETATM   14  C   UNL     1       4.322  33.210  59.392  1.00  0.00     0.337 C 
BRANCH  14  15
HETATM   15  C   UNL     1       3.101  33.883  60.035  1.00  0.00     0.249 C 
HETATM   16  N   UNL     1       3.075  34.096  61.384  1.00  0.00    -0.304 N 
HETATM   17  H   UNL     1       2.254  34.543  61.774  1.00  0.00     0.171 HD
HETATM   18  O   UNL     1       2.136  34.240  59.355  1.00  0.00    -0.271 OA
BRANCH  16  19
HETATM   19  C   UNL     1       4.073  33.749  62.246  1.00  0.00     0.172 A 
HETATM   20  S   UNL     1       5.252  34.948  62.510  1.00  0.00    -0.062 SA
HETATM   21  C   UNL     1       6.065  33.877  63.577  1.00  0.00     0.072 A 
HETATM   22  C   UNL     1       5.373  32.686  63.650  1.00  0.00     0.126 A 
HETATM   23  N   UNL     1       4.223  32.613  62.880  1.00  0.00    -0.236 NA
ENDBRANCH  16  19
ENDBRANCH  14  15
ENDBRANCH  10  14
ENDBRANCH   3   7
BRANCH   1  24
HETATM   24  N   UNL     1       5.283  26.196  54.271  1.00  0.00    -0.187 N 
HETATM   25  H   UNL     1       4.429  26.340  53.746  1.00  0.00     0.184 HD
BRANCH  24  26
HETATM   26  C   UNL     1       6.171  25.262  53.727  1.00  0.00     0.049 A 
HETATM   27  C   UNL     1       6.434  24.086  54.446  1.00  0.00     0.030 A 
HETATM   28  C   UNL     1       7.331  23.131  53.964  1.00  0.00     0.002 A 
HETATM   29  C   UNL     1       7.983  23.338  52.753  1.00  0.00     0.000 A 
HETATM   30  C   UNL     1       7.747  24.506  52.033  1.00  0.00     0.002 A 
HETATM   31  C   UNL     1       6.858  25.466  52.526  1.00  0.00     0.030 A 
ENDBRANCH  24  26
ENDBRANCH   1  24
BRANCH   5  32
HETATM   32  N   UNL     1       7.994  28.302  57.433  1.00  0.00    -0.187 N 
HETATM   33  H   UNL     1       8.247  27.392  57.787  1.00  0.00     0.184 HD
BRANCH  32  34
HETATM   34  C   UNL     1       8.782  29.377  57.860  1.00  0.00     0.049 A 
HETATM   35  C   UNL     1       8.394  30.078  59.014  1.00  0.00     0.030 A 
HETATM   36  C   UNL     1       9.120  31.182  59.474  1.00  0.00     0.002 A 
HETATM   37  C   UNL     1      10.251  31.604  58.786  1.00  0.00     0.000 A 
HETATM   38  C   UNL     1      10.654  30.925  57.641  1.00  0.00     0.002 A 
HETATM   39  C   UNL     1       9.922  29.824  57.182  1.00  0.00     0.030 A 
ENDBRANCH  32  34
ENDBRANCH   5  32
TORSDOF 8
ENDMDL
MODEL 10
REMARK VINA RESULT:      -9.1      3.840      8.191
REMARK  8 active torsions:
REMARK  status: ('A' for Active; 'I' for Inactive)
REMARK    1  A    between atoms: C_4  and  N_5 
REMARK    2  A    between atoms: N_5  and  C_6 
REMARK    3  A    between atoms: C_8  and  N_9 
REMARK    4  A    between atoms: N_12  and  C_14 
REMARK    5  A    between atoms: C_14  and  C_15 
REMARK       I    between atoms: C_15  and  N_16 
REMARK    6  A    between atoms: N_16  and  C_17 
REMARK    7  A    between atoms: C_26  and  N_27 
REMARK    8  A    between atoms: N_27  and  C_28 
ROOT
HETATM    1  C   UNL     1       6.674  25.563  54.967  1.00  0.00     0.758 A 
HETATM    2  N   UNL     1       5.616  25.809  54.201  1.00  0.00     0.131 NA
HETATM    3  C   UNL     1       5.538  27.022  53.679  1.00  0.00     0.756 A 
HETATM    4  N   UNL     1       6.394  27.993  53.962  1.00  0.00     0.131 NA
HETATM    5  C   UNL     1       7.430  27.670  54.729  1.00  0.00     0.758 A 
HETATM    6  N   UNL     1       7.608  26.460  55.236  1.00  0.00     0.131 NA
ENDROOT
BRANCH   3   7
HETATM    7  N   UNL     1       4.539  27.291  52.746  1.00  0.00    -0.210 N 
HETATM    8  C   UNL     1       4.645  26.535  51.490  1.00  0.00     0.169 C 
HETATM    9  C   UNL     1       5.478  27.313  50.441  1.00  0.00     0.256 C 
HETATM   10  N   UNL     1       4.890  28.715  50.274  1.00  0.00    -0.060 N 
HETATM   11  H   UNL     1       3.895  28.584  50.057  1.00  0.00     0.280 HD
HETATM   12  C   UNL     1       4.936  29.472  51.606  1.00  0.00     0.256 C 
HETATM   13  C   UNL     1       4.102  28.693  52.644  1.00  0.00     0.169 C 
BRANCH  10  14
HETATM   14  C   UNL     1       5.453  29.502  49.087  1.00  0.00     0.337 C 
BRANCH  14  15
HETATM   15  C   UNL     1       4.618  29.487  47.798  1.00  0.00     0.249 C 
HETATM   16  N   UNL     1       4.219  30.665  47.234  1.00  0.00    -0.304 N 
HETATM   17  H   UNL     1       3.671  30.617  46.384  1.00  0.00     0.171 HD
HETATM   18  O   UNL     1       4.300  28.426  47.256  1.00  0.00    -0.271 OA
BRANCH  16  19
HETATM   19  C   UNL     1       4.503  31.903  47.733  1.00  0.00     0.172 A 
HETATM   20  S   UNL     1       3.342  32.535  48.805  1.00  0.00    -0.062 SA
HETATM   21  C   UNL     1       4.302  33.948  48.970  1.00  0.00     0.072 A 
HETATM   22  C   UNL     1       5.437  33.828  48.194  1.00  0.00     0.126 A 
HETATM   23  N   UNL     1       5.551  32.645  47.480  1.00  0.00    -0.236 NA
ENDBRANCH  16  19
ENDBRANCH  14  15
ENDBRANCH  10  14
ENDBRANCH   3   7
BRANCH   1  24
HETATM   24  N   UNL     1       6.901  24.289  55.477  1.00  0.00    -0.187 N 
HETATM   25  H   UNL     1       6.424  24.180  56.364  1.00  0.00     0.184 HD
BRANCH  24  26
HETATM   26  C   UNL     1       7.310  23.097  54.866  1.00  0.00     0.049 A 
HETATM   27  C   UNL     1       7.558  21.978  55.674  1.00  0.00     0.030 A 
HETATM   28  C   UNL     1       7.993  20.771  55.123  1.00  0.00     0.002 A 
HETATM   29  C   UNL     1       8.189  20.666  53.749  1.00  0.00     0.000 A 
HETATM   30  C   UNL     1       7.963  21.771  52.933  1.00  0.00     0.002 A 
HETATM   31  C   UNL     1       7.541  22.981  53.491  1.00  0.00     0.030 A 
ENDBRANCH  24  26
ENDBRANCH   1  24
BRANCH   5  32
HETATM   32  N   UNL     1       8.363  28.686  54.929  1.00  0.00    -0.187 N 
HETATM   33  H   UNL     1       8.799  28.936  54.054  1.00  0.00     0.184 HD
BRANCH  32  34
HETATM   34  C   UNL     1       8.865  29.313  56.076  1.00  0.00     0.049 A 
HETATM   35  C   UNL     1      10.208  29.725  56.083  1.00  0.00     0.030 A 
HETATM   36  C   UNL     1      10.780  30.327  57.209  1.00  0.00     0.002 A 
HETATM   37  C   UNL     1      10.014  30.530  58.351  1.00  0.00     0.000 A 
HETATM   38  C   UNL     1       8.681  30.131  58.366  1.00  0.00     0.002 A 
HETATM   39  C   UNL     1       8.115  29.525  57.239  1.00  0.00     0.030 A 
ENDBRANCH  32  34
ENDBRANCH   5  32
TORSDOF 8
ENDMDL
