MODEL 1
REMARK VINA RESULT:     -11.4      0.000      0.000
REMARK  7 active torsions:
REMARK  status: ('A' for Active; 'I' for Inactive)
REMARK    1  A    between atoms: C_5  and  C_6 
REMARK       I    between atoms: C_6  and  N_7 
REMARK    2  A    between atoms: N_7  and  C_8 
REMARK    3  A    between atoms: C_8  and  C_9 
REMARK    4  A    between atoms: C_9  and  C_10 
REMARK    5  A    between atoms: N_15  and  C_17 
REMARK    6  A    between atoms: C_17  and  C_18 
REMARK    7  A    between atoms: C_21  and  C_22 
ROOT
HETATM    1  C   UNL     1       8.066  31.925  59.675  1.00  0.00     0.131 A 
HETATM    2  N   UNL     1       8.177  31.161  58.536  1.00  0.00    -0.319 N 
HETATM    3  C   UNL     1       9.501  31.208  58.180  1.00  0.00     0.131 A 
HETATM    4  C   UNL     1      10.154  30.420  57.101  1.00  0.00     0.108 C 
HETATM    5  C   UNL     1       9.841  28.937  57.252  1.00  0.00     0.243 C 
HETATM    6  N   UNL     1       8.438  28.554  56.766  1.00  0.00    -0.065 N 
HETATM    7  H   UNL     1       8.588  28.209  55.807  1.00  0.00     0.280 HD
HETATM    8  C   UNL     1       7.426  29.677  56.626  1.00  0.00     0.255 C 
HETATM    9  C   UNL     1       7.105  30.404  57.931  1.00  0.00     0.159 C 
HETATM   10  N   UNL     1      10.134  31.999  59.015  1.00  0.00    -0.135 NA
HETATM   11  N   UNL     1       9.241  32.445  59.947  1.00  0.00    -0.135 NA
ENDROOT
BRANCH   1  12
HETATM   12  C   UNL     1       6.849  32.064  60.522  1.00  0.00     0.100 C 
BRANCH  12  13
HETATM   13  C   UNL     1       7.214  31.864  61.995  1.00  0.00     0.130 C 
BRANCH  13  14
HETATM   14  N   UNL     1       6.843  32.990  62.838  1.00  0.00    -0.360 N 
HETATM   15  C   UNL     1       5.755  32.942  63.677  1.00  0.00     0.223 C 
HETATM   16  O   UNL     1       4.985  31.986  63.716  1.00  0.00    -0.273 OA
HETATM   17  H   UNL     1       7.494  33.766  62.876  1.00  0.00     0.162 HD
BRANCH  15  18
HETATM   18  C   UNL     1       5.604  34.150  64.596  1.00  0.00     0.103 C 
HETATM   19  C   UNL     1       6.171  33.800  65.972  1.00  0.00     0.248 C 
HETATM   20  N   UNL     1       6.009  34.972  66.922  1.00  0.00    -0.074 N 
HETATM   21  C   UNL     1       6.645  34.693  68.261  1.00  0.00     0.269 C 
HETATM   22  H   UNL     1       6.523  35.774  66.530  1.00  0.00     0.279 HD
HETATM   23  C   UNL     1       4.567  35.392  67.077  1.00  0.00     0.234 C 
HETATM   24  C   UNL     1       4.000  35.750  65.712  1.00  0.00     0.029 C 
HETATM   25  C   UNL     1       4.146  34.606  64.710  1.00  0.00     0.017 C 
ENDBRANCH  15  18
ENDBRANCH  13  14
ENDBRANCH  12  13
ENDBRANCH   1  12
BRANCH   6  26
HETATM   26  C   UNL     1       7.879  27.351  57.513  1.00  0.00     0.273 C 
BRANCH  26  27
HETATM   27  C   UNL     1       7.952  26.072  56.729  1.00  0.00    -0.033 A 
HETATM   28  C   UNL     1       7.315  25.962  55.486  1.00  0.00     0.010 A 
HETATM   29  C   UNL     1       7.376  24.768  54.761  1.00  0.00     0.015 A 
HETATM   30  C   UNL     1       8.075  23.657  55.253  1.00  0.00    -0.002 A 
HETATM   31  C   UNL     1       8.711  23.773  56.496  1.00  0.00     0.015 A 
HETATM   32  C   UNL     1       8.648  24.964  57.230  1.00  0.00     0.010 A 
BRANCH  30  33
HETATM   33  C   UNL     1       8.149  22.415  54.487  1.00  0.00     0.085 A 
HETATM   34  O   UNL     1       8.549  21.305  55.179  1.00  0.00    -0.322 OA
HETATM   35  C   UNL     1       8.558  20.263  54.308  1.00  0.00     0.142 A 
HETATM   36  C   UNL     1       8.169  20.679  53.060  1.00  0.00     0.027 A 
HETATM   37  C   UNL     1       7.906  22.067  53.171  1.00  0.00     0.040 A 
ENDBRANCH  30  33
ENDBRANCH  26  27
ENDBRANCH   6  26
TORSDOF 7
ENDMDL
MODEL 2
REMARK VINA RESULT:     -10.8      2.175      3.506
REMARK  7 active torsions:
REMARK  status: ('A' for Active; 'I' for Inactive)
REMARK    1  A    between atoms: C_5  and  C_6 
REMARK       I    between atoms: C_6  and  N_7 
REMARK    2  A    between atoms: N_7  and  C_8 
REMARK    3  A    between atoms: C_8  and  C_9 
REMARK    4  A    between atoms: C_9  and  C_10 
REMARK    5  A    between atoms: N_15  and  C_17 
REMARK    6  A    between atoms: C_17  and  C_18 
REMARK    7  A    between atoms: C_21  and  C_22 
ROOT
HETATM    1  C   UNL     1       7.057  31.140  58.337  1.00  0.00     0.131 A 
HETATM    2  N   UNL     1       6.195  30.207  57.807  1.00  0.00    -0.319 N 
HETATM    3  C   UNL     1       5.019  30.873  57.575  1.00  0.00     0.131 A 
HETATM    4  C   UNL     1       3.824  30.337  56.870  1.00  0.00     0.108 C 
HETATM    5  C   UNL     1       4.215  29.749  55.519  1.00  0.00     0.243 C 
HETATM    6  N   UNL     1       4.856  28.360  55.617  1.00  0.00    -0.065 N 
HETATM    7  H   UNL     1       4.078  27.709  55.439  1.00  0.00     0.280 HD
HETATM    8  C   UNL     1       5.409  27.949  56.971  1.00  0.00     0.255 C 
HETATM    9  C   UNL     1       6.538  28.840  57.488  1.00  0.00     0.159 C 
HETATM   10  N   UNL     1       5.144  32.110  57.995  1.00  0.00    -0.135 NA
HETATM   11  N   UNL     1       6.415  32.277  58.469  1.00  0.00    -0.135 NA
ENDROOT
BRANCH   1  12
HETATM   12  C   UNL     1       8.505  30.933  58.621  1.00  0.00     0.100 C 
BRANCH  12  13
HETATM   13  C   UNL     1       8.676  30.267  59.988  1.00  0.00     0.130 C 
BRANCH  13  14
HETATM   14  N   UNL     1       7.853  30.864  61.027  1.00  0.00    -0.360 N 
HETATM   15  C   UNL     1       8.342  31.826  61.879  1.00  0.00     0.223 C 
HETATM   16  O   UNL     1       9.516  32.186  61.874  1.00  0.00    -0.273 OA
HETATM   17  H   UNL     1       6.865  30.635  61.016  1.00  0.00     0.162 HD
BRANCH  15  18
HETATM   18  C   UNL     1       7.301  32.448  62.803  1.00  0.00     0.103 C 
HETATM   19  C   UNL     1       6.585  33.575  62.057  1.00  0.00     0.248 C 
HETATM   20  N   UNL     1       5.561  34.237  62.959  1.00  0.00    -0.074 N 
HETATM   21  C   UNL     1       4.771  35.290  62.222  1.00  0.00     0.269 C 
HETATM   22  H   UNL     1       4.877  33.523  63.245  1.00  0.00     0.279 HD
HETATM   23  C   UNL     1       6.180  34.798  64.217  1.00  0.00     0.234 C 
HETATM   24  C   UNL     1       6.886  33.680  64.970  1.00  0.00     0.029 C 
HETATM   25  C   UNL     1       7.924  32.970  64.103  1.00  0.00     0.017 C 
ENDBRANCH  15  18
ENDBRANCH  13  14
ENDBRANCH  12  13
ENDBRANCH   1  12
BRANCH   6  26
HETATM   26  C   UNL     1       5.833  28.096  54.481  1.00  0.00     0.273 C 
BRANCH  26  27
HETATM   27  C   UNL     1       6.261  26.660  54.380  1.00  0.00    -0.033 A 
HETATM   28  C   UNL     1       7.370  26.196  55.099  1.00  0.00     0.010 A 
HETATM   29  C   UNL     1       7.773  24.861  54.998  1.00  0.00     0.015 A 
HETATM   30  C   UNL     1       7.081  23.954  54.183  1.00  0.00    -0.002 A 
HETATM   31  C   UNL     1       5.972  24.424  53.467  1.00  0.00     0.015 A 
HETATM   32  C   UNL     1       5.567  25.761  53.559  1.00  0.00     0.010 A 
BRANCH  30  33
HETATM   33  C   UNL     1       7.495  22.556  54.089  1.00  0.00     0.085 A 
HETATM   34  O   UNL     1       7.568  21.870  55.271  1.00  0.00    -0.322 OA
HETATM   35  C   UNL     1       7.967  20.605  54.984  1.00  0.00     0.142 A 
HETATM   36  C   UNL     1       8.154  20.458  53.632  1.00  0.00     0.027 A 
HETATM   37  C   UNL     1       7.853  21.715  53.052  1.00  0.00     0.040 A 
ENDBRANCH  30  33
ENDBRANCH  26  27
ENDBRANCH   6  26
TORSDOF 7
ENDMDL
MODEL 3
REMARK VINA RESULT:     -10.4      3.550      5.967
REMARK  7 active torsions:
REMARK  status: ('A' for Active; 'I' for Inactive)
REMARK    1  A    between atoms: C_5  and  C_6 
REMARK       I    between atoms: C_6  and  N_7 
REMARK    2  A    between atoms: N_7  and  C_8 
REMARK    3  A    between atoms: C_8  and  C_9 
REMARK    4  A    between atoms: C_9  and  C_10 
REMARK    5  A    between atoms: N_15  and  C_17 
REMARK    6  A    between atoms: C_17  and  C_18 
REMARK    7  A    between atoms: C_21  and  C_22 
ROOT
HETATM    1  C   UNL     1       8.179  29.126  56.381  1.00  0.00     0.131 A 
HETATM    2  N   UNL     1       7.675  27.918  56.807  1.00  0.00    -0.319 N 
HETATM    3  C   UNL     1       6.331  28.118  56.996  1.00  0.00     0.131 A 
HETATM    4  C   UNL     1       5.319  27.076  57.312  1.00  0.00     0.108 C 
HETATM    5  C   UNL     1       5.407  25.922  56.320  1.00  0.00     0.243 C 
HETATM    6  N   UNL     1       6.570  24.963  56.597  1.00  0.00    -0.065 N 
HETATM    7  H   UNL     1       6.141  24.194  57.132  1.00  0.00     0.280 HD
HETATM    8  C   UNL     1       7.693  25.477  57.482  1.00  0.00     0.255 C 
HETATM    9  C   UNL     1       8.431  26.692  56.921  1.00  0.00     0.159 C 
HETATM   10  N   UNL     1       6.055  29.380  56.760  1.00  0.00    -0.135 NA
HETATM   11  N   UNL     1       7.206  30.007  56.376  1.00  0.00    -0.135 NA
ENDROOT
BRANCH   1  12
HETATM   12  C   UNL     1       9.569  29.376  55.906  1.00  0.00     0.100 C 
BRANCH  12  13
HETATM   13  C   UNL     1      10.381  30.056  57.012  1.00  0.00     0.130 C 
BRANCH  13  14
HETATM   14  N   UNL     1       9.678  30.127  58.282  1.00  0.00    -0.360 N 
HETATM   15  C   UNL     1       9.549  31.305  58.978  1.00  0.00     0.223 C 
HETATM   16  O   UNL     1      10.080  32.353  58.618  1.00  0.00    -0.273 OA
HETATM   17  H   UNL     1       9.175  29.295  58.573  1.00  0.00     0.162 HD
BRANCH  15  18
HETATM   18  C   UNL     1       8.654  31.225  60.210  1.00  0.00     0.103 C 
HETATM   19  C   UNL     1       7.329  31.927  59.907  1.00  0.00     0.248 C 
HETATM   20  N   UNL     1       6.424  31.892  61.124  1.00  0.00    -0.074 N 
HETATM   21  C   UNL     1       5.073  32.493  60.828  1.00  0.00     0.269 C 
HETATM   22  H   UNL     1       6.247  30.906  61.362  1.00  0.00     0.279 HD
HETATM   23  C   UNL     1       7.059  32.541  62.332  1.00  0.00     0.234 C 
HETATM   24  C   UNL     1       8.373  31.840  62.644  1.00  0.00     0.029 C 
HETATM   25  C   UNL     1       9.321  31.837  61.446  1.00  0.00     0.017 C 
ENDBRANCH  15  18
ENDBRANCH  13  14
ENDBRANCH  12  13
ENDBRANCH   1  12
BRANCH   6  26
HETATM   26  C   UNL     1       7.082  24.296  55.329  1.00  0.00     0.273 C 
BRANCH  26  27
HETATM   27  C   UNL     1       6.599  24.956  54.069  1.00  0.00    -0.033 A 
HETATM   28  C   UNL     1       5.549  24.396  53.330  1.00  0.00     0.010 A 
HETATM   29  C   UNL     1       5.106  25.006  52.152  1.00  0.00     0.015 A 
HETATM   30  C   UNL     1       5.694  26.189  51.683  1.00  0.00    -0.002 A 
HETATM   31  C   UNL     1       6.743  26.745  52.427  1.00  0.00     0.015 A 
HETATM   32  C   UNL     1       7.196  26.136  53.604  1.00  0.00     0.010 A 
BRANCH  30  33
HETATM   33  C   UNL     1       5.221  26.832  50.460  1.00  0.00     0.085 A 
HETATM   34  O   UNL     1       5.601  28.134  50.279  1.00  0.00    -0.322 OA
HETATM   35  C   UNL     1       5.069  28.554  49.103  1.00  0.00     0.142 A 
HETATM   36  C   UNL     1       4.348  27.544  48.516  1.00  0.00     0.027 A 
HETATM   37  C   UNL     1       4.442  26.433  49.390  1.00  0.00     0.040 A 
ENDBRANCH  30  33
ENDBRANCH  26  27
ENDBRANCH   6  26
TORSDOF 7
ENDMDL
MODEL 4
REMARK VINA RESULT:     -10.3      2.319     12.554
REMARK  7 active torsions:
REMARK  status: ('A' for Active; 'I' for Inactive)
REMARK    1  A    between atoms: C_5  and  C_6 
REMARK       I    between atoms: C_6  and  N_7 
REMARK    2  A    between atoms: N_7  and  C_8 
REMARK    3  A    between atoms: C_8  and  C_9 
REMARK    4  A    between atoms: C_9  and  C_10 
REMARK    5  A    between atoms: N_15  and  C_17 
REMARK    6  A    between atoms: C_17  and  C_18 
REMARK    7  A    between atoms: C_21  and  C_22 
ROOT
HETATM    1  C   UNL     1       6.303  28.594  57.328  1.00  0.00     0.131 A 
HETATM    2  N   UNL     1       6.859  29.755  57.814  1.00  0.00    -0.319 N 
HETATM    3  C   UNL     1       5.892  30.718  57.682  1.00  0.00     0.131 A 
HETATM    4  C   UNL     1       5.954  32.110  58.202  1.00  0.00     0.108 C 
HETATM    5  C   UNL     1       6.314  32.115  59.683  1.00  0.00     0.243 C 
HETATM    6  N   UNL     1       7.805  31.883  59.952  1.00  0.00    -0.065 N 
HETATM    7  H   UNL     1       8.191  32.831  60.071  1.00  0.00     0.280 HD
HETATM    8  C   UNL     1       8.621  31.264  58.831  1.00  0.00     0.255 C 
HETATM    9  C   UNL     1       8.166  29.864  58.420  1.00  0.00     0.159 C 
HETATM   10  N   UNL     1       4.843  30.186  57.097  1.00  0.00    -0.135 NA
HETATM   11  N   UNL     1       5.099  28.862  56.877  1.00  0.00    -0.135 NA
ENDROOT
BRANCH   1  12
HETATM   12  C   UNL     1       6.914  27.237  57.390  1.00  0.00     0.100 C 
BRANCH  12  13
HETATM   13  C   UNL     1       7.475  26.856  56.017  1.00  0.00     0.130 C 
BRANCH  13  14
HETATM   14  N   UNL     1       7.335  25.441  55.710  1.00  0.00    -0.360 N 
HETATM   15  C   UNL     1       6.998  24.999  54.453  1.00  0.00     0.223 C 
HETATM   16  O   UNL     1       6.718  25.762  53.532  1.00  0.00    -0.273 OA
HETATM   17  H   UNL     1       7.622  24.787  56.431  1.00  0.00     0.162 HD
BRANCH  15  18
HETATM   18  C   UNL     1       7.046  23.486  54.275  1.00  0.00     0.103 C 
HETATM   19  C   UNL     1       7.651  22.857  55.531  1.00  0.00     0.248 C 
HETATM   20  N   UNL     1       7.741  21.351  55.375  1.00  0.00    -0.074 N 
HETATM   21  C   UNL     1       8.246  20.692  56.635  1.00  0.00     0.269 C 
HETATM   22  H   UNL     1       6.789  20.987  55.230  1.00  0.00     0.279 HD
HETATM   23  C   UNL     1       8.566  20.945  54.176  1.00  0.00     0.234 C 
HETATM   24  C   UNL     1       7.963  21.560  52.922  1.00  0.00     0.029 C 
HETATM   25  C   UNL     1       7.839  23.079  53.029  1.00  0.00     0.017 C 
ENDBRANCH  15  18
ENDBRANCH  13  14
ENDBRANCH  12  13
ENDBRANCH   1  12
BRANCH   6  26
HETATM   26  C   UNL     1       8.049  31.210  61.295  1.00  0.00     0.273 C 
BRANCH  26  27
HETATM   27  C   UNL     1       7.390  31.913  62.447  1.00  0.00    -0.033 A 
HETATM   28  C   UNL     1       8.149  32.685  63.337  1.00  0.00     0.010 A 
HETATM   29  C   UNL     1       7.537  33.333  64.414  1.00  0.00     0.015 A 
HETATM   30  C   UNL     1       6.155  33.232  64.630  1.00  0.00    -0.002 A 
HETATM   31  C   UNL     1       5.402  32.460  63.736  1.00  0.00     0.015 A 
HETATM   32  C   UNL     1       6.009  31.803  62.659  1.00  0.00     0.010 A 
BRANCH  30  33
HETATM   33  C   UNL     1       5.515  33.921  65.748  1.00  0.00     0.085 A 
HETATM   34  O   UNL     1       6.330  34.255  66.795  1.00  0.00    -0.322 OA
HETATM   35  C   UNL     1       5.564  34.877  67.726  1.00  0.00     0.142 A 
HETATM   36  C   UNL     1       4.261  34.954  67.300  1.00  0.00     0.027 A 
HETATM   37  C   UNL     1       4.226  34.336  66.025  1.00  0.00     0.040 A 
ENDBRANCH  30  33
ENDBRANCH  26  27
ENDBRANCH   6  26
TORSDOF 7
ENDMDL
MODEL 5
REMARK VINA RESULT:     -10.0      1.688      2.247
REMARK  7 active torsions:
REMARK  status: ('A' for Active; 'I' for Inactive)
REMARK    1  A    between atoms: C_5  and  C_6 
REMARK       I    between atoms: C_6  and  N_7 
REMARK    2  A    between atoms: N_7  and  C_8 
REMARK    3  A    between atoms: C_8  and  C_9 
REMARK    4  A    between atoms: C_9  and  C_10 
REMARK    5  A    between atoms: N_15  and  C_17 
REMARK    6  A    between atoms: C_17  and  C_18 
REMARK    7  A    between atoms: C_21  and  C_22 
ROOT
HETATM    1  C   UNL     1       5.638  32.081  59.005  1.00  0.00     0.131 A 
HETATM    2  N   UNL     1       6.273  31.252  58.109  1.00  0.00    -0.319 N 
HETATM    3  C   UNL     1       7.582  31.193  58.515  1.00  0.00     0.131 A 
HETATM    4  C   UNL     1       8.640  30.308  57.959  1.00  0.00     0.108 C 
HETATM    5  C   UNL     1       8.171  28.858  57.936  1.00  0.00     0.243 C 
HETATM    6  N   UNL     1       7.215  28.541  56.781  1.00  0.00    -0.065 N 
HETATM    7  H   UNL     1       7.822  28.136  56.054  1.00  0.00     0.280 HD
HETATM    8  C   UNL     1       6.530  29.719  56.110  1.00  0.00     0.255 C 
HETATM    9  C   UNL     1       5.627  30.534  57.035  1.00  0.00     0.159 C 
HETATM   10  N   UNL     1       7.739  31.985  59.550  1.00  0.00    -0.135 NA
HETATM   11  N   UNL     1       6.528  32.538  59.856  1.00  0.00    -0.135 NA
ENDROOT
BRANCH   1  12
HETATM   12  C   UNL     1       4.173  32.344  59.070  1.00  0.00     0.100 C 
BRANCH  12  13
HETATM   13  C   UNL     1       3.652  32.040  60.477  1.00  0.00     0.130 C 
BRANCH  13  14
HETATM   14  N   UNL     1       4.022  33.047  61.458  1.00  0.00    -0.360 N 
HETATM   15  C   UNL     1       4.559  32.711  62.678  1.00  0.00     0.223 C 
HETATM   16  O   UNL     1       4.689  31.548  63.051  1.00  0.00    -0.273 OA
HETATM   17  H   UNL     1       3.986  34.015  61.155  1.00  0.00     0.162 HD
BRANCH  15  18
HETATM   18  C   UNL     1       5.026  33.896  63.517  1.00  0.00     0.103 C 
HETATM   19  C   UNL     1       3.990  34.171  64.608  1.00  0.00     0.248 C 
HETATM   20  N   UNL     1       4.409  35.365  65.444  1.00  0.00    -0.074 N 
HETATM   21  C   UNL     1       3.455  35.604  66.588  1.00  0.00     0.269 C 
HETATM   22  H   UNL     1       5.318  35.148  65.877  1.00  0.00     0.279 HD
HETATM   23  C   UNL     1       4.592  36.614  64.614  1.00  0.00     0.234 C 
HETATM   24  C   UNL     1       5.629  36.349  63.533  1.00  0.00     0.029 C 
HETATM   25  C   UNL     1       5.261  35.147  62.665  1.00  0.00     0.017 C 
ENDBRANCH  15  18
ENDBRANCH  13  14
ENDBRANCH  12  13
ENDBRANCH   1  12
BRANCH   6  26
HETATM   26  C   UNL     1       6.247  27.419  57.127  1.00  0.00     0.273 C 
BRANCH  26  27
HETATM   27  C   UNL     1       6.619  26.097  56.519  1.00  0.00    -0.033 A 
HETATM   28  C   UNL     1       7.546  25.259  57.151  1.00  0.00     0.010 A 
HETATM   29  C   UNL     1       7.898  24.032  56.580  1.00  0.00     0.015 A 
HETATM   30  C   UNL     1       7.333  23.608  55.369  1.00  0.00    -0.002 A 
HETATM   31  C   UNL     1       6.406  24.451  54.742  1.00  0.00     0.015 A 
HETATM   32  C   UNL     1       6.053  25.683  55.305  1.00  0.00     0.010 A 
BRANCH  30  33
HETATM   33  C   UNL     1       7.692  22.320  54.780  1.00  0.00     0.085 A 
HETATM   34  O   UNL     1       7.627  22.243  53.416  1.00  0.00    -0.322 OA
HETATM   35  C   UNL     1       7.989  20.983  53.061  1.00  0.00     0.142 A 
HETATM   36  C   UNL     1       8.290  20.240  54.175  1.00  0.00     0.027 A 
HETATM   37  C   UNL     1       8.098  21.099  55.286  1.00  0.00     0.040 A 
ENDBRANCH  30  33
ENDBRANCH  26  27
ENDBRANCH   6  26
TORSDOF 7
ENDMDL
MODEL 6
REMARK VINA RESULT:      -9.8      2.447      3.435
REMARK  7 active torsions:
REMARK  status: ('A' for Active; 'I' for Inactive)
REMARK    1  A    between atoms: C_5  and  C_6 
REMARK       I    between atoms: C_6  and  N_7 
REMARK    2  A    between atoms: N_7  and  C_8 
REMARK    3  A    between atoms: C_8  and  C_9 
REMARK    4  A    between atoms: C_9  and  C_10 
REMARK    5  A    between atoms: N_15  and  C_17 
REMARK    6  A    between atoms: C_17  and  C_18 
REMARK    7  A    between atoms: C_21  and  C_22 
ROOT
HETATM    1  C   UNL     1       4.935  31.732  57.321  1.00  0.00     0.131 A 
HETATM    2  N   UNL     1       4.713  30.542  56.666  1.00  0.00    -0.319 N 
HETATM    3  C   UNL     1       4.056  30.869  55.507  1.00  0.00     0.131 A 
HETATM    4  C   UNL     1       3.727  29.947  54.388  1.00  0.00     0.108 C 
HETATM    5  C   UNL     1       4.968  29.188  53.934  1.00  0.00     0.243 C 
HETATM    6  N   UNL     1       5.349  28.027  54.859  1.00  0.00    -0.065 N 
HETATM    7  H   UNL     1       4.934  27.199  54.408  1.00  0.00     0.280 HD
HETATM    8  C   UNL     1       4.767  28.043  56.262  1.00  0.00     0.255 C 
HETATM    9  C   UNL     1       5.185  29.249  57.103  1.00  0.00     0.159 C 
HETATM   10  N   UNL     1       3.840  32.164  55.496  1.00  0.00    -0.135 NA
HETATM   11  N   UNL     1       4.388  32.702  56.626  1.00  0.00    -0.135 NA
ENDROOT
BRANCH   1  12
HETATM   12  C   UNL     1       5.744  31.913  58.559  1.00  0.00     0.100 C 
BRANCH  12  13
HETATM   13  C   UNL     1       5.186  33.079  59.379  1.00  0.00     0.130 C 
BRANCH  13  14
HETATM   14  N   UNL     1       5.656  33.091  60.756  1.00  0.00    -0.360 N 
HETATM   15  C   UNL     1       4.917  32.551  61.781  1.00  0.00     0.223 C 
HETATM   16  O   UNL     1       3.787  32.096  61.620  1.00  0.00    -0.273 OA
HETATM   17  H   UNL     1       6.609  33.401  60.910  1.00  0.00     0.162 HD
BRANCH  15  18
HETATM   18  C   UNL     1       5.627  32.516  63.130  1.00  0.00     0.103 C 
HETATM   19  C   UNL     1       4.813  33.324  64.141  1.00  0.00     0.248 C 
HETATM   20  N   UNL     1       5.508  33.335  65.489  1.00  0.00    -0.074 N 
HETATM   21  C   UNL     1       4.682  34.044  66.533  1.00  0.00     0.269 C 
HETATM   22  H   UNL     1       5.593  32.361  65.813  1.00  0.00     0.279 HD
HETATM   23  C   UNL     1       6.903  33.909  65.412  1.00  0.00     0.234 C 
HETATM   24  C   UNL     1       7.721  33.103  64.415  1.00  0.00     0.029 C 
HETATM   25  C   UNL     1       7.061  33.050  63.038  1.00  0.00     0.017 C 
ENDBRANCH  15  18
ENDBRANCH  13  14
ENDBRANCH  12  13
ENDBRANCH   1  12
BRANCH   6  26
HETATM   26  C   UNL     1       6.845  27.750  54.847  1.00  0.00     0.273 C 
BRANCH  26  27
HETATM   27  C   UNL     1       7.185  26.305  54.619  1.00  0.00    -0.033 A 
HETATM   28  C   UNL     1       7.387  25.818  53.320  1.00  0.00     0.010 A 
HETATM   29  C   UNL     1       7.695  24.471  53.108  1.00  0.00     0.015 A 
HETATM   30  C   UNL     1       7.814  23.577  54.181  1.00  0.00    -0.002 A 
HETATM   31  C   UNL     1       7.612  24.070  55.477  1.00  0.00     0.015 A 
HETATM   32  C   UNL     1       7.297  25.416  55.697  1.00  0.00     0.010 A 
BRANCH  30  33
HETATM   33  C   UNL     1       8.150  22.172  53.958  1.00  0.00     0.085 A 
HETATM   34  O   UNL     1       8.495  21.453  55.069  1.00  0.00    -0.322 OA
HETATM   35  C   UNL     1       8.772  20.186  54.664  1.00  0.00     0.142 A 
HETATM   36  C   UNL     1       8.610  20.072  53.306  1.00  0.00     0.027 A 
HETATM   37  C   UNL     1       8.211  21.352  52.847  1.00  0.00     0.040 A 
ENDBRANCH  30  33
ENDBRANCH  26  27
ENDBRANCH   6  26
TORSDOF 7
ENDMDL
MODEL 7
REMARK VINA RESULT:      -9.7      4.706      6.732
REMARK  7 active torsions:
REMARK  status: ('A' for Active; 'I' for Inactive)
REMARK    1  A    between atoms: C_5  and  C_6 
REMARK       I    between atoms: C_6  and  N_7 
REMARK    2  A    between atoms: N_7  and  C_8 
REMARK    3  A    between atoms: C_8  and  C_9 
REMARK    4  A    between atoms: C_9  and  C_10 
REMARK    5  A    between atoms: N_15  and  C_17 
REMARK    6  A    between atoms: C_17  and  C_18 
REMARK    7  A    between atoms: C_21  and  C_22 
ROOT
HETATM    1  C   UNL     1       7.515  27.474  57.328  1.00  0.00     0.131 A 
HETATM    2  N   UNL     1       7.575  26.776  56.143  1.00  0.00    -0.319 N 
HETATM    3  C   UNL     1       7.980  25.508  56.475  1.00  0.00     0.131 A 
HETATM    4  C   UNL     1       8.052  24.337  55.563  1.00  0.00     0.108 C 
HETATM    5  C   UNL     1       6.732  24.146  54.826  1.00  0.00     0.243 C 
HETATM    6  N   UNL     1       6.535  25.119  53.659  1.00  0.00    -0.065 N 
HETATM    7  H   UNL     1       6.832  24.584  52.831  1.00  0.00     0.280 HD
HETATM    8  C   UNL     1       7.398  26.369  53.650  1.00  0.00     0.255 C 
HETATM    9  C   UNL     1       7.185  27.290  54.851  1.00  0.00     0.159 C 
HETATM   10  N   UNL     1       8.210  25.464  57.767  1.00  0.00    -0.135 NA
HETATM   11  N   UNL     1       7.920  26.688  58.299  1.00  0.00    -0.135 NA
ENDROOT
BRANCH   1  12
HETATM   12  C   UNL     1       6.987  28.856  57.504  1.00  0.00     0.100 C 
BRANCH  12  13
HETATM   13  C   UNL     1       8.059  29.746  58.137  1.00  0.00     0.130 C 
BRANCH  13  14
HETATM   14  N   UNL     1       7.774  30.097  59.519  1.00  0.00    -0.360 N 
HETATM   15  C   UNL     1       7.934  31.378  59.992  1.00  0.00     0.223 C 
HETATM   16  O   UNL     1       8.399  32.287  59.309  1.00  0.00    -0.273 OA
HETATM   17  H   UNL     1       7.329  29.385  60.089  1.00  0.00     0.162 HD
BRANCH  15  18
HETATM   18  C   UNL     1       7.445  31.597  61.420  1.00  0.00     0.103 C 
HETATM   19  C   UNL     1       6.125  32.369  61.379  1.00  0.00     0.248 C 
HETATM   20  N   UNL     1       5.624  32.631  62.787  1.00  0.00    -0.074 N 
HETATM   21  C   UNL     1       4.275  33.307  62.778  1.00  0.00     0.269 C 
HETATM   22  H   UNL     1       5.479  31.722  63.249  1.00  0.00     0.279 HD
HETATM   23  C   UNL     1       6.620  33.405  63.617  1.00  0.00     0.234 C 
HETATM   24  C   UNL     1       7.932  32.638  63.669  1.00  0.00     0.029 C 
HETATM   25  C   UNL     1       8.479  32.337  62.275  1.00  0.00     0.017 C 
ENDBRANCH  15  18
ENDBRANCH  13  14
ENDBRANCH  12  13
ENDBRANCH   1  12
BRANCH   6  26
HETATM   26  C   UNL     1       5.065  25.419  53.402  1.00  0.00     0.273 C 
BRANCH  26  27
HETATM   27  C   UNL     1       4.831  26.278  52.193  1.00  0.00    -0.033 A 
HETATM   28  C   UNL     1       4.368  27.593  52.332  1.00  0.00     0.010 A 
HETATM   29  C   UNL     1       4.142  28.388  51.204  1.00  0.00     0.015 A 
HETATM   30  C   UNL     1       4.375  27.897  49.912  1.00  0.00    -0.002 A 
HETATM   31  C   UNL     1       4.839  26.581  49.779  1.00  0.00     0.015 A 
HETATM   32  C   UNL     1       5.061  25.777  50.903  1.00  0.00     0.010 A 
BRANCH  30  33
HETATM   33  C   UNL     1       4.151  28.734  48.736  1.00  0.00     0.085 A 
HETATM   34  O   UNL     1       2.960  28.555  48.087  1.00  0.00    -0.322 OA
HETATM   35  C   UNL     1       2.937  29.409  47.033  1.00  0.00     0.142 A 
HETATM   36  C   UNL     1       4.097  30.143  46.986  1.00  0.00     0.027 A 
HETATM   37  C   UNL     1       4.883  29.708  48.083  1.00  0.00     0.040 A 
ENDBRANCH  30  33
ENDBRANCH  26  27
ENDBRANCH   6  26
TORSDOF 7
ENDMDL
MODEL 8
REMARK VINA RESULT:      -9.6      2.962     12.259
REMARK  7 active torsions:
REMARK  status: ('A' for Active; 'I' for Inactive)
REMARK    1  A    between atoms: C_5  and  C_6 
REMARK       I    between atoms: C_6  and  N_7 
REMARK    2  A    between atoms: N_7  and  C_8 
REMARK    3  A    between atoms: C_8  and  C_9 
REMARK    4  A    between atoms: C_9  and  C_10 
REMARK    5  A    between atoms: N_15  and  C_17 
REMARK    6  A    between atoms: C_17  and  C_18 
REMARK    7  A    between atoms: C_21  and  C_22 
ROOT
HETATM    1  C   UNL     1       6.455  28.408  57.431  1.00  0.00     0.131 A 
HETATM    2  N   UNL     1       6.936  29.600  57.923  1.00  0.00    -0.319 N 
HETATM    3  C   UNL     1       5.936  30.518  57.725  1.00  0.00     0.131 A 
HETATM    4  C   UNL     1       5.913  31.919  58.223  1.00  0.00     0.108 C 
HETATM    5  C   UNL     1       6.196  31.964  59.720  1.00  0.00     0.243 C 
HETATM    6  N   UNL     1       7.679  31.800  60.068  1.00  0.00    -0.065 N 
HETATM    7  H   UNL     1       8.018  32.766  60.188  1.00  0.00     0.280 HD
HETATM    8  C   UNL     1       8.577  31.200  59.000  1.00  0.00     0.255 C 
HETATM    9  C   UNL     1       8.204  29.775  58.592  1.00  0.00     0.159 C 
HETATM   10  N   UNL     1       4.943  29.931  57.098  1.00  0.00    -0.135 NA
HETATM   11  N   UNL     1       5.265  28.617  56.915  1.00  0.00    -0.135 NA
ENDROOT
BRANCH   1  12
HETATM   12  C   UNL     1       7.119  27.080  57.548  1.00  0.00     0.100 C 
BRANCH  12  13
HETATM   13  C   UNL     1       7.567  26.598  56.165  1.00  0.00     0.130 C 
BRANCH  13  14
HETATM   14  N   UNL     1       6.628  26.935  55.106  1.00  0.00    -0.360 N 
HETATM   15  C   UNL     1       5.966  25.970  54.387  1.00  0.00     0.223 C 
HETATM   16  O   UNL     1       6.177  24.768  54.533  1.00  0.00    -0.273 OA
HETATM   17  H   UNL     1       6.386  27.916  55.006  1.00  0.00     0.162 HD
BRANCH  15  18
HETATM   18  C   UNL     1       4.911  26.503  53.424  1.00  0.00     0.103 C 
HETATM   19  C   UNL     1       5.376  26.251  51.989  1.00  0.00     0.248 C 
HETATM   20  N   UNL     1       4.362  26.798  51.002  1.00  0.00    -0.074 N 
HETATM   21  C   UNL     1       4.747  26.480  49.579  1.00  0.00     0.269 C 
HETATM   22  H   UNL     1       3.467  26.316  51.165  1.00  0.00     0.279 HD
HETATM   23  C   UNL     1       4.119  28.277  51.187  1.00  0.00     0.234 C 
HETATM   24  C   UNL     1       3.646  28.532  52.610  1.00  0.00     0.029 C 
HETATM   25  C   UNL     1       4.628  27.992  53.648  1.00  0.00     0.017 C 
ENDBRANCH  15  18
ENDBRANCH  13  14
ENDBRANCH  12  13
ENDBRANCH   1  12
BRANCH   6  26
HETATM   26  C   UNL     1       7.883  31.160  61.433  1.00  0.00     0.273 C 
BRANCH  26  27
HETATM   27  C   UNL     1       7.317  31.968  62.565  1.00  0.00    -0.033 A 
HETATM   28  C   UNL     1       8.155  32.756  63.365  1.00  0.00     0.010 A 
HETATM   29  C   UNL     1       7.629  33.502  64.424  1.00  0.00     0.015 A 
HETATM   30  C   UNL     1       6.257  33.485  64.711  1.00  0.00    -0.002 A 
HETATM   31  C   UNL     1       5.424  32.696  63.907  1.00  0.00     0.015 A 
HETATM   32  C   UNL     1       5.945  31.942  62.849  1.00  0.00     0.010 A 
BRANCH  30  33
HETATM   33  C   UNL     1       5.707  34.276  65.810  1.00  0.00     0.085 A 
HETATM   34  O   UNL     1       6.305  34.109  67.029  1.00  0.00    -0.322 OA
HETATM   35  C   UNL     1       5.662  34.915  67.912  1.00  0.00     0.142 A 
HETATM   36  C   UNL     1       4.656  35.606  67.284  1.00  0.00     0.027 A 
HETATM   37  C   UNL     1       4.681  35.194  65.928  1.00  0.00     0.040 A 
ENDBRANCH  30  33
ENDBRANCH  26  27
ENDBRANCH   6  26
TORSDOF 7
ENDMDL
MODEL 9
REMARK VINA RESULT:      -9.4      2.456      3.117
REMARK  7 active torsions:
REMARK  status: ('A' for Active; 'I' for Inactive)
REMARK    1  A    between atoms: C_5  and  C_6 
REMARK       I    between atoms: C_6  and  N_7 
REMARK    2  A    between atoms: N_7  and  C_8 
REMARK    3  A    between atoms: C_8  and  C_9 
REMARK    4  A    between atoms: C_9  and  C_10 
REMARK    5  A    between atoms: N_15  and  C_17 
REMARK    6  A    between atoms: C_17  and  C_18 
REMARK    7  A    between atoms: C_21  and  C_22 
ROOT
HETATM    1  C   UNL     1       5.294  31.707  58.785  1.00  0.00     0.131 A 
HETATM    2  N   UNL     1       5.999  30.906  57.915  1.00  0.00    -0.319 N 
HETATM    3  C   UNL     1       7.287  30.883  58.387  1.00  0.00     0.131 A 
HETATM    4  C   UNL     1       8.399  30.037  57.880  1.00  0.00     0.108 C 
HETATM    5  C   UNL     1       7.978  28.573  57.821  1.00  0.00     0.243 C 
HETATM    6  N   UNL     1       7.093  28.239  56.616  1.00  0.00    -0.065 N 
HETATM    7  H   UNL     1       7.749  27.860  55.918  1.00  0.00     0.280 HD
HETATM    8  C   UNL     1       6.406  29.401  55.919  1.00  0.00     0.255 C 
HETATM    9  C   UNL     1       5.432  30.179  56.803  1.00  0.00     0.159 C 
HETATM   10  N   UNL     1       7.366  31.670  59.436  1.00  0.00    -0.135 NA
HETATM   11  N   UNL     1       6.124  32.182  59.684  1.00  0.00    -0.135 NA
ENDROOT
BRANCH   1  12
HETATM   12  C   UNL     1       3.820  31.923  58.776  1.00  0.00     0.100 C 
BRANCH  12  13
HETATM   13  C   UNL     1       3.515  33.422  58.723  1.00  0.00     0.130 C 
BRANCH  13  14
HETATM   14  N   UNL     1       3.516  34.057  60.031  1.00  0.00    -0.360 N 
HETATM   15  C   UNL     1       2.372  34.573  60.590  1.00  0.00     0.223 C 
HETATM   16  O   UNL     1       1.296  34.605  59.997  1.00  0.00    -0.273 OA
HETATM   17  H   UNL     1       4.373  33.989  60.571  1.00  0.00     0.162 HD
BRANCH  15  18
HETATM   18  C   UNL     1       2.527  35.062  62.026  1.00  0.00     0.103 C 
HETATM   19  C   UNL     1       3.654  36.095  62.079  1.00  0.00     0.248 C 
HETATM   20  N   UNL     1       3.856  36.581  63.502  1.00  0.00    -0.074 N 
HETATM   21  C   UNL     1       4.897  37.671  63.572  1.00  0.00     0.269 C 
HETATM   22  H   UNL     1       2.977  37.012  63.820  1.00  0.00     0.279 HD
HETATM   23  C   UNL     1       4.178  35.455  64.455  1.00  0.00     0.234 C 
HETATM   24  C   UNL     1       3.055  34.429  64.414  1.00  0.00     0.029 C 
HETATM   25  C   UNL     1       2.801  33.911  62.999  1.00  0.00     0.017 C 
ENDBRANCH  15  18
ENDBRANCH  13  14
ENDBRANCH  12  13
ENDBRANCH   1  12
BRANCH   6  26
HETATM   26  C   UNL     1       6.144  27.084  56.902  1.00  0.00     0.273 C 
BRANCH  26  27
HETATM   27  C   UNL     1       6.585  25.782  56.299  1.00  0.00    -0.033 A 
HETATM   28  C   UNL     1       7.420  24.913  57.013  1.00  0.00     0.010 A 
HETATM   29  C   UNL     1       7.837  23.704  56.447  1.00  0.00     0.015 A 
HETATM   30  C   UNL     1       7.430  23.329  55.159  1.00  0.00    -0.002 A 
HETATM   31  C   UNL     1       6.594  24.202  54.450  1.00  0.00     0.015 A 
HETATM   32  C   UNL     1       6.178  25.416  55.008  1.00  0.00     0.010 A 
BRANCH  30  33
HETATM   33  C   UNL     1       7.856  22.059  54.574  1.00  0.00     0.085 A 
HETATM   34  O   UNL     1       7.673  21.927  53.225  1.00  0.00    -0.322 OA
HETATM   35  C   UNL     1       8.121  20.695  52.872  1.00  0.00     0.142 A 
HETATM   36  C   UNL     1       8.593  20.024  53.972  1.00  0.00     0.027 A 
HETATM   37  C   UNL     1       8.421  20.901  55.072  1.00  0.00     0.040 A 
ENDBRANCH  30  33
ENDBRANCH  26  27
ENDBRANCH   6  26
TORSDOF 7
ENDMDL
MODEL 10
REMARK VINA RESULT:      -9.4      2.777      4.656
REMARK  7 active torsions:
REMARK  status: ('A' for Active; 'I' for Inactive)
REMARK    1  A    between atoms: C_5  and  C_6 
REMARK       I    between atoms: C_6  and  N_7 
REMARK    2  A    between atoms: N_7  and  C_8 
REMARK    3  A    between atoms: C_8  and  C_9 
REMARK    4  A    between atoms: C_9  and  C_10 
REMARK    5  A    between atoms: N_15  and  C_17 
REMARK    6  A    between atoms: C_17  and  C_18 
REMARK    7  A    between atoms: C_21  and  C_22 
ROOT
HETATM    1  C   UNL     1       3.766  32.984  58.990  1.00  0.00     0.131 A 
HETATM    2  N   UNL     1       3.896  32.070  57.969  1.00  0.00    -0.319 N 
HETATM    3  C   UNL     1       4.717  32.660  57.041  1.00  0.00     0.131 A 
HETATM    4  C   UNL     1       5.281  32.016  55.825  1.00  0.00     0.108 C 
HETATM    5  C   UNL     1       5.969  30.703  56.180  1.00  0.00     0.243 C 
HETATM    6  N   UNL     1       4.994  29.545  56.416  1.00  0.00    -0.065 N 
HETATM    7  H   UNL     1       4.971  29.046  55.514  1.00  0.00     0.280 HD
HETATM    8  C   UNL     1       3.546  29.907  56.699  1.00  0.00     0.255 C 
HETATM    9  C   UNL     1       3.342  30.737  57.967  1.00  0.00     0.159 C 
HETATM   10  N   UNL     1       5.011  33.873  57.448  1.00  0.00    -0.135 NA
HETATM   11  N   UNL     1       4.419  34.075  58.663  1.00  0.00    -0.135 NA
ENDROOT
BRANCH   1  12
HETATM   12  C   UNL     1       3.086  32.748  60.295  1.00  0.00     0.100 C 
BRANCH  12  13
HETATM   13  C   UNL     1       3.992  33.202  61.443  1.00  0.00     0.130 C 
BRANCH  13  14
HETATM   14  N   UNL     1       5.360  32.724  61.321  1.00  0.00    -0.360 N 
HETATM   15  C   UNL     1       6.423  33.422  61.843  1.00  0.00     0.223 C 
HETATM   16  O   UNL     1       6.301  34.523  62.374  1.00  0.00    -0.273 OA
HETATM   17  H   UNL     1       5.485  31.790  60.945  1.00  0.00     0.162 HD
BRANCH  15  18
HETATM   18  C   UNL     1       7.763  32.700  61.755  1.00  0.00     0.103 C 
HETATM   19  C   UNL     1       8.128  32.506  60.283  1.00  0.00     0.248 C 
HETATM   20  N   UNL     1       9.445  31.763  60.159  1.00  0.00    -0.074 N 
HETATM   21  C   UNL     1       9.878  31.640  58.719  1.00  0.00     0.269 C 
HETATM   22  H   UNL     1      10.172  32.323  60.624  1.00  0.00     0.279 HD
HETATM   23  C   UNL     1       9.410  30.414  60.838  1.00  0.00     0.234 C 
HETATM   24  C   UNL     1       9.057  30.602  62.306  1.00  0.00     0.029 C 
HETATM   25  C   UNL     1       7.741  31.355  62.490  1.00  0.00     0.017 C 
ENDBRANCH  15  18
ENDBRANCH  13  14
ENDBRANCH  12  13
ENDBRANCH   1  12
BRANCH   6  26
HETATM   26  C   UNL     1       5.544  28.520  57.396  1.00  0.00     0.273 C 
BRANCH  26  27
HETATM   27  C   UNL     1       6.161  27.324  56.730  1.00  0.00    -0.033 A 
HETATM   28  C   UNL     1       7.235  26.651  57.328  1.00  0.00     0.010 A 
HETATM   29  C   UNL     1       7.814  25.543  56.703  1.00  0.00     0.015 A 
HETATM   30  C   UNL     1       7.337  25.074  55.470  1.00  0.00    -0.002 A 
HETATM   31  C   UNL     1       6.263  25.750  54.878  1.00  0.00     0.015 A 
HETATM   32  C   UNL     1       5.682  26.864  55.495  1.00  0.00     0.010 A 
BRANCH  30  33
HETATM   33  C   UNL     1       7.935  23.907  54.826  1.00  0.00     0.085 A 
HETATM   34  O   UNL     1       8.774  23.155  55.602  1.00  0.00    -0.322 OA
HETATM   35  C   UNL     1       9.227  22.129  54.837  1.00  0.00     0.142 A 
HETATM   36  C   UNL     1       8.694  22.203  53.574  1.00  0.00     0.027 A 
HETATM   37  C   UNL     1       7.862  23.350  53.563  1.00  0.00     0.040 A 
ENDBRANCH  30  33
ENDBRANCH  26  27
ENDBRANCH   6  26
TORSDOF 7
ENDMDL
