MODEL 1
REMARK VINA RESULT:      -8.6      0.000      0.000
REMARK  9 active torsions:
REMARK  status: ('A' for Active; 'I' for Inactive)
REMARK    1  A    between atoms: C_2  and  C_3 
REMARK    2  A    between atoms: C_7  and  C_8 
REMARK    3  A    between atoms: C_8  and  C_9 
REMARK       I    between atoms: C_9  and  N_10 
REMARK    4  A    between atoms: N_10  and  C_11 
REMARK    5  A    between atoms: C_11  and  C_12 
REMARK    6  A    between atoms: C_12  and  C_13 
REMARK    7  A    between atoms: C_21  and  C_22 
REMARK    8  A    between atoms: C_32  and  C_33 
REMARK    9  A    between atoms: C_33  and  O_34 
ROOT
HETATM    1  C   UNL     1       7.614  29.914  57.837  1.00  0.00     0.051 C 
HETATM    2  N   UNL     1       6.308  30.280  58.065  1.00  0.00    -0.228 NA
HETATM    3  C   UNL     1       5.456  30.130  57.119  1.00  0.00     0.170 C 
HETATM    4  N   UNL     1       5.688  29.331  55.799  1.00  0.00    -0.318 N 
HETATM    5  C   UNL     1       4.549  29.198  55.191  1.00  0.00     0.011 C 
HETATM    6  C   UNL     1       7.063  28.782  55.645  1.00  0.00     0.166 C 
HETATM    7  S   UNL     1       3.828  30.721  57.266  1.00  0.00    -0.086 SA
HETATM    8  C   UNL     1       3.505  30.237  55.554  1.00  0.00     0.135 C 
HETATM    9  C   UNL     1       8.007  29.347  56.678  1.00  0.00     0.069 C 
ENDROOT
BRANCH   5  10
HETATM   10  C   UNL     1       4.154  27.974  54.403  1.00  0.00     0.156 C 
BRANCH  10  11
HETATM   11  C   UNL     1       4.493  28.244  52.937  1.00  0.00     0.222 C 
HETATM   12  N   UNL     1       4.265  27.228  52.047  1.00  0.00    -0.361 N 
HETATM   13  H   UNL     1       3.836  26.366  52.375  1.00  0.00     0.162 HD
HETATM   14  O   UNL     1       5.019  29.308  52.599  1.00  0.00    -0.273 OA
BRANCH  12  15
HETATM   15  C   UNL     1       5.022  27.139  50.804  1.00  0.00     0.124 C 
BRANCH  15  16
HETATM   16  C   UNL     1       4.446  27.866  49.581  1.00  0.00     0.053 C 
BRANCH  16  17
HETATM   17  C   UNL     1       3.283  27.204  48.847  1.00  0.00     0.189 C 
HETATM   18  N   UNL     1       1.896  27.720  49.181  1.00  0.00    -0.071 N 
HETATM   19  H   UNL     1       1.635  27.267  50.078  1.00  0.00     0.279 HD
HETATM   20  C   UNL     1       1.710  29.203  49.338  1.00  0.00     0.270 C 
HETATM   21  C   UNL     1       1.001  27.177  48.076  1.00  0.00     0.235 C 
HETATM   22  C   UNL     1       1.939  26.824  46.927  1.00  0.00     0.030 C 
HETATM   23  C   UNL     1       3.313  27.337  47.332  1.00  0.00     0.035 C 
ENDBRANCH  16  17
ENDBRANCH  15  16
ENDBRANCH  12  15
ENDBRANCH  10  11
ENDBRANCH   5  10
BRANCH   6  24
HETATM   24  C   UNL     1       7.070  27.252  55.624  1.00  0.00    -0.024 A 
HETATM   25  C   UNL     1       7.447  26.521  54.468  1.00  0.00    -0.053 A 
HETATM   26  C   UNL     1       7.877  27.179  53.178  1.00  0.00     0.049 C 
HETATM   27  C   UNL     1       7.469  25.116  54.513  1.00  0.00     0.014 A 
HETATM   28  C   UNL     1       7.116  24.415  55.670  1.00  0.00    -0.061 A 
HETATM   29  C   UNL     1       7.226  22.917  55.713  1.00  0.00     0.048 C 
HETATM   30  C   UNL     1       6.754  25.133  56.808  1.00  0.00     0.007 A 
HETATM   31  C   UNL     1       6.729  26.530  56.790  1.00  0.00     0.011 A 
ENDBRANCH   6  24
BRANCH   9  32
HETATM   32  C   UNL     1       9.426  29.384  56.253  1.00  0.00     0.293 C 
HETATM   33  O   UNL     1       9.789  29.712  55.141  1.00  0.00    -0.259 OA
BRANCH  32  34
HETATM   34  O   UNL     1      10.201  29.206  57.348  1.00  0.00    -0.323 OA
HETATM   35  C   UNL     1      11.489  29.828  57.305  1.00  0.00     0.213 C 
ENDBRANCH  32  34
ENDBRANCH   9  32
BRANCH   1  36
HETATM   36  C   UNL     1       8.534  30.255  59.007  1.00  0.00     0.056 C 
HETATM   37  C   UNL     1       8.656  31.747  59.310  1.00  0.00     0.011 C 
ENDBRANCH   1  36
TORSDOF 9
ENDMDL
MODEL 2
REMARK VINA RESULT:      -8.5      3.435      8.303
REMARK  9 active torsions:
REMARK  status: ('A' for Active; 'I' for Inactive)
REMARK    1  A    between atoms: C_2  and  C_3 
REMARK    2  A    between atoms: C_7  and  C_8 
REMARK    3  A    between atoms: C_8  and  C_9 
REMARK       I    between atoms: C_9  and  N_10 
REMARK    4  A    between atoms: N_10  and  C_11 
REMARK    5  A    between atoms: C_11  and  C_12 
REMARK    6  A    between atoms: C_12  and  C_13 
REMARK    7  A    between atoms: C_21  and  C_22 
REMARK    8  A    between atoms: C_32  and  C_33 
REMARK    9  A    between atoms: C_33  and  O_34 
ROOT
HETATM    1  C   UNL     1       5.562  25.928  54.366  1.00  0.00     0.051 C 
HETATM    2  N   UNL     1       5.022  26.745  53.400  1.00  0.00    -0.228 NA
HETATM    3  C   UNL     1       4.600  27.905  53.744  1.00  0.00     0.170 C 
HETATM    4  N   UNL     1       4.863  28.603  55.115  1.00  0.00    -0.318 N 
HETATM    5  C   UNL     1       4.488  29.843  55.025  1.00  0.00     0.011 C 
HETATM    6  C   UNL     1       5.610  27.771  56.096  1.00  0.00     0.166 C 
HETATM    7  S   UNL     1       3.754  28.929  52.623  1.00  0.00    -0.086 SA
HETATM    8  C   UNL     1       3.459  30.124  53.947  1.00  0.00     0.135 C 
HETATM    9  C   UNL     1       5.716  26.335  55.643  1.00  0.00     0.069 C 
ENDROOT
BRANCH   5  10
HETATM   10  C   UNL     1       5.192  30.986  55.713  1.00  0.00     0.156 C 
BRANCH  10  11
HETATM   11  C   UNL     1       4.480  31.228  57.044  1.00  0.00     0.222 C 
HETATM   12  N   UNL     1       5.052  32.127  57.904  1.00  0.00    -0.361 N 
HETATM   13  H   UNL     1       5.884  32.634  57.611  1.00  0.00     0.162 HD
HETATM   14  O   UNL     1       3.476  30.577  57.347  1.00  0.00    -0.273 OA
BRANCH  12  15
HETATM   15  C   UNL     1       4.822  32.039  59.340  1.00  0.00     0.124 C 
BRANCH  15  16
HETATM   16  C   UNL     1       5.642  32.975  60.238  1.00  0.00     0.053 C 
BRANCH  16  17
HETATM   17  C   UNL     1       6.405  32.351  61.404  1.00  0.00     0.189 C 
HETATM   18  N   UNL     1       7.722  31.681  61.063  1.00  0.00    -0.071 N 
HETATM   19  H   UNL     1       7.474  30.749  60.679  1.00  0.00     0.279 HD
HETATM   20  C   UNL     1       8.631  32.362  60.079  1.00  0.00     0.270 C 
HETATM   21  C   UNL     1       8.420  31.492  62.403  1.00  0.00     0.235 C 
HETATM   22  C   UNL     1       7.750  32.474  63.356  1.00  0.00     0.030 C 
HETATM   23  C   UNL     1       6.817  33.320  62.501  1.00  0.00     0.035 C 
ENDBRANCH  16  17
ENDBRANCH  15  16
ENDBRANCH  12  15
ENDBRANCH  10  11
ENDBRANCH   5  10
BRANCH   6  24
HETATM   24  C   UNL     1       6.974  28.376  56.439  1.00  0.00    -0.024 A 
HETATM   25  C   UNL     1       7.981  28.553  55.457  1.00  0.00    -0.053 A 
HETATM   26  C   UNL     1       7.798  28.176  54.006  1.00  0.00     0.049 C 
HETATM   27  C   UNL     1       9.205  29.146  55.818  1.00  0.00     0.014 A 
HETATM   28  C   UNL     1       9.460  29.556  57.129  1.00  0.00    -0.061 A 
HETATM   29  C   UNL     1      10.745  30.258  57.469  1.00  0.00     0.048 C 
HETATM   30  C   UNL     1       8.467  29.389  58.093  1.00  0.00     0.007 A 
HETATM   31  C   UNL     1       7.241  28.807  57.757  1.00  0.00     0.011 A 
ENDBRANCH   6  24
BRANCH   9  32
HETATM   32  C   UNL     1       5.845  25.355  56.745  1.00  0.00     0.293 C 
HETATM   33  O   UNL     1       4.937  25.061  57.497  1.00  0.00    -0.259 OA
BRANCH  32  34
HETATM   34  O   UNL     1       7.037  24.727  56.618  1.00  0.00    -0.323 OA
HETATM   35  C   UNL     1       8.098  25.232  57.435  1.00  0.00     0.213 C 
ENDBRANCH  32  34
ENDBRANCH   9  32
BRANCH   1  36
HETATM   36  C   UNL     1       5.916  24.541  53.835  1.00  0.00     0.056 C 
HETATM   37  C   UNL     1       7.148  24.498  52.933  1.00  0.00     0.011 C 
ENDBRANCH   1  36
TORSDOF 9
ENDMDL
MODEL 3
REMARK VINA RESULT:      -7.9      1.699      2.210
REMARK  9 active torsions:
REMARK  status: ('A' for Active; 'I' for Inactive)
REMARK    1  A    between atoms: C_2  and  C_3 
REMARK    2  A    between atoms: C_7  and  C_8 
REMARK    3  A    between atoms: C_8  and  C_9 
REMARK       I    between atoms: C_9  and  N_10 
REMARK    4  A    between atoms: N_10  and  C_11 
REMARK    5  A    between atoms: C_11  and  C_12 
REMARK    6  A    between atoms: C_12  and  C_13 
REMARK    7  A    between atoms: C_21  and  C_22 
REMARK    8  A    between atoms: C_32  and  C_33 
REMARK    9  A    between atoms: C_33  and  O_34 
ROOT
HETATM    1  C   UNL     1       6.516  29.438  55.975  1.00  0.00     0.051 C 
HETATM    2  N   UNL     1       5.227  29.644  55.542  1.00  0.00    -0.228 NA
HETATM    3  C   UNL     1       4.875  29.156  54.410  1.00  0.00     0.170 C 
HETATM    4  N   UNL     1       5.688  28.122  53.569  1.00  0.00    -0.318 N 
HETATM    5  C   UNL     1       4.932  27.684  52.611  1.00  0.00     0.011 C 
HETATM    6  C   UNL     1       7.014  27.767  54.144  1.00  0.00     0.166 C 
HETATM    7  S   UNL     1       3.323  29.511  53.714  1.00  0.00    -0.086 SA
HETATM    8  C   UNL     1       3.793  28.607  52.221  1.00  0.00     0.135 C 
HETATM    9  C   UNL     1       7.394  28.689  55.278  1.00  0.00     0.069 C 
ENDROOT
BRANCH   5  10
HETATM   10  C   UNL     1       4.965  26.267  52.093  1.00  0.00     0.156 C 
BRANCH  10  11
HETATM   11  C   UNL     1       4.970  26.338  50.566  1.00  0.00     0.222 C 
HETATM   12  N   UNL     1       5.779  27.279  49.988  1.00  0.00    -0.361 N 
HETATM   13  H   UNL     1       6.377  27.851  50.580  1.00  0.00     0.162 HD
HETATM   14  O   UNL     1       4.216  25.622  49.901  1.00  0.00    -0.273 OA
BRANCH  12  15
HETATM   15  C   UNL     1       5.478  27.815  48.666  1.00  0.00     0.124 C 
BRANCH  15  16
HETATM   16  C   UNL     1       4.224  28.690  48.535  1.00  0.00     0.053 C 
BRANCH  16  17
HETATM   17  C   UNL     1       3.004  28.081  47.851  1.00  0.00     0.189 C 
HETATM   18  N   UNL     1       1.872  27.643  48.761  1.00  0.00    -0.071 N 
HETATM   19  H   UNL     1       2.159  26.724  49.147  1.00  0.00     0.279 HD
HETATM   20  C   UNL     1       1.502  28.535  49.912  1.00  0.00     0.270 C 
HETATM   21  C   UNL     1       0.683  27.438  47.832  1.00  0.00     0.235 C 
HETATM   22  C   UNL     1       1.011  28.222  46.567  1.00  0.00     0.030 C 
HETATM   23  C   UNL     1       2.286  28.996  46.871  1.00  0.00     0.035 C 
ENDBRANCH  16  17
ENDBRANCH  15  16
ENDBRANCH  12  15
ENDBRANCH  10  11
ENDBRANCH   5  10
BRANCH   6  24
HETATM   24  C   UNL     1       7.090  26.292  54.543  1.00  0.00    -0.024 A 
HETATM   25  C   UNL     1       7.676  25.317  53.695  1.00  0.00    -0.053 A 
HETATM   26  C   UNL     1       8.278  25.646  52.349  1.00  0.00     0.049 C 
HETATM   27  C   UNL     1       7.751  23.980  54.124  1.00  0.00     0.014 A 
HETATM   28  C   UNL     1       7.249  23.581  55.366  1.00  0.00    -0.061 A 
HETATM   29  C   UNL     1       7.414  22.162  55.831  1.00  0.00     0.048 C 
HETATM   30  C   UNL     1       6.680  24.540  56.203  1.00  0.00     0.007 A 
HETATM   31  C   UNL     1       6.599  25.875  55.801  1.00  0.00     0.011 A 
ENDBRANCH   6  24
BRANCH   9  32
HETATM   32  C   UNL     1       8.854  28.843  55.476  1.00  0.00     0.293 C 
HETATM   33  O   UNL     1       9.584  29.423  54.697  1.00  0.00    -0.259 OA
BRANCH  32  34
HETATM   34  O   UNL     1       9.159  28.427  56.728  1.00  0.00    -0.323 OA
HETATM   35  C   UNL     1      10.027  29.285  57.474  1.00  0.00     0.213 C 
ENDBRANCH  32  34
ENDBRANCH   9  32
BRANCH   1  36
HETATM   36  C   UNL     1       6.824  30.171  57.279  1.00  0.00     0.056 C 
HETATM   37  C   UNL     1       5.668  31.002  57.832  1.00  0.00     0.011 C 
ENDBRANCH   1  36
TORSDOF 9
ENDMDL
MODEL 4
REMARK VINA RESULT:      -7.8      4.366      7.410
REMARK  9 active torsions:
REMARK  status: ('A' for Active; 'I' for Inactive)
REMARK    1  A    between atoms: C_2  and  C_3 
REMARK    2  A    between atoms: C_7  and  C_8 
REMARK    3  A    between atoms: C_8  and  C_9 
REMARK       I    between atoms: C_9  and  N_10 
REMARK    4  A    between atoms: N_10  and  C_11 
REMARK    5  A    between atoms: C_11  and  C_12 
REMARK    6  A    between atoms: C_12  and  C_13 
REMARK    7  A    between atoms: C_21  and  C_22 
REMARK    8  A    between atoms: C_32  and  C_33 
REMARK    9  A    between atoms: C_33  and  O_34 
ROOT
HETATM    1  C   UNL     1       5.940  32.879  60.502  1.00  0.00     0.051 C 
HETATM    2  N   UNL     1       7.256  32.571  60.250  1.00  0.00    -0.228 NA
HETATM    3  C   UNL     1       7.518  31.621  59.431  1.00  0.00     0.170 C 
HETATM    4  N   UNL     1       6.493  30.927  58.480  1.00  0.00    -0.318 N 
HETATM    5  C   UNL     1       7.146  30.183  57.642  1.00  0.00     0.011 C 
HETATM    6  C   UNL     1       5.090  31.399  58.637  1.00  0.00     0.166 C 
HETATM    7  S   UNL     1       9.144  31.058  59.187  1.00  0.00    -0.086 SA
HETATM    8  C   UNL     1       8.521  29.746  58.111  1.00  0.00     0.135 C 
HETATM    9  C   UNL     1       4.925  32.256  59.869  1.00  0.00     0.069 C 
ENDROOT
BRANCH   5  10
HETATM   10  C   UNL     1       6.739  29.978  56.204  1.00  0.00     0.156 C 
BRANCH  10  11
HETATM   11  C   UNL     1       7.354  28.658  55.737  1.00  0.00     0.222 C 
HETATM   12  N   UNL     1       6.870  27.510  56.304  1.00  0.00    -0.361 N 
HETATM   13  H   UNL     1       6.096  27.568  56.962  1.00  0.00     0.162 HD
HETATM   14  O   UNL     1       8.296  28.651  54.940  1.00  0.00    -0.273 OA
BRANCH  12  15
HETATM   15  C   UNL     1       7.692  26.309  56.381  1.00  0.00     0.124 C 
BRANCH  15  16
HETATM   16  C   UNL     1       7.078  25.006  55.851  1.00  0.00     0.053 C 
BRANCH  16  17
HETATM   17  C   UNL     1       7.901  24.186  54.861  1.00  0.00     0.189 C 
HETATM   18  N   UNL     1       8.849  23.165  55.460  1.00  0.00    -0.071 N 
HETATM   19  H   UNL     1       9.684  23.699  55.767  1.00  0.00     0.279 HD
HETATM   20  C   UNL     1       8.367  22.347  56.625  1.00  0.00     0.270 C 
HETATM   21  C   UNL     1       9.241  22.266  54.294  1.00  0.00     0.235 C 
HETATM   22  C   UNL     1       8.161  22.473  53.239  1.00  0.00     0.030 C 
HETATM   23  C   UNL     1       7.093  23.338  53.892  1.00  0.00     0.035 C 
ENDBRANCH  16  17
ENDBRANCH  15  16
ENDBRANCH  12  15
ENDBRANCH  10  11
ENDBRANCH   5  10
BRANCH   6  24
HETATM   24  C   UNL     1       4.574  32.091  57.373  1.00  0.00    -0.024 A 
HETATM   25  C   UNL     1       3.587  31.495  56.545  1.00  0.00    -0.053 A 
HETATM   26  C   UNL     1       2.962  30.152  56.838  1.00  0.00     0.049 C 
HETATM   27  C   UNL     1       3.123  32.188  55.413  1.00  0.00     0.014 A 
HETATM   28  C   UNL     1       3.618  33.450  55.073  1.00  0.00    -0.061 A 
HETATM   29  C   UNL     1       3.045  34.201  53.904  1.00  0.00     0.048 C 
HETATM   30  C   UNL     1       4.581  34.039  55.891  1.00  0.00     0.007 A 
HETATM   31  C   UNL     1       5.055  33.372  57.024  1.00  0.00     0.011 A 
ENDBRANCH   6  24
BRANCH   9  32
HETATM   32  C   UNL     1       3.561  32.238  60.446  1.00  0.00     0.293 C 
HETATM   33  O   UNL     1       3.259  31.617  61.445  1.00  0.00    -0.259 OA
BRANCH  32  34
HETATM   34  O   UNL     1       2.818  33.172  59.807  1.00  0.00    -0.323 OA
HETATM   35  C   UNL     1       2.203  34.157  60.643  1.00  0.00     0.213 C 
ENDBRANCH  32  34
ENDBRANCH   9  32
BRANCH   1  36
HETATM   36  C   UNL     1       5.780  33.950  61.579  1.00  0.00     0.056 C 
HETATM   37  C   UNL     1       6.228  33.523  62.975  1.00  0.00     0.011 C 
ENDBRANCH   1  36
TORSDOF 9
ENDMDL
MODEL 5
REMARK VINA RESULT:      -7.6      3.433      8.379
REMARK  9 active torsions:
REMARK  status: ('A' for Active; 'I' for Inactive)
REMARK    1  A    between atoms: C_2  and  C_3 
REMARK    2  A    between atoms: C_7  and  C_8 
REMARK    3  A    between atoms: C_8  and  C_9 
REMARK       I    between atoms: C_9  and  N_10 
REMARK    4  A    between atoms: N_10  and  C_11 
REMARK    5  A    between atoms: C_11  and  C_12 
REMARK    6  A    between atoms: C_12  and  C_13 
REMARK    7  A    between atoms: C_21  and  C_22 
REMARK    8  A    between atoms: C_32  and  C_33 
REMARK    9  A    between atoms: C_33  and  O_34 
ROOT
HETATM    1  C   UNL     1       5.733  26.010  54.368  1.00  0.00     0.051 C 
HETATM    2  N   UNL     1       5.144  26.829  53.433  1.00  0.00    -0.228 NA
HETATM    3  C   UNL     1       4.668  27.955  53.817  1.00  0.00     0.170 C 
HETATM    4  N   UNL     1       4.909  28.621  55.208  1.00  0.00    -0.318 N 
HETATM    5  C   UNL     1       4.473  29.843  55.162  1.00  0.00     0.011 C 
HETATM    6  C   UNL     1       5.705  27.796  56.157  1.00  0.00     0.166 C 
HETATM    7  S   UNL     1       3.763  28.971  52.737  1.00  0.00    -0.086 SA
HETATM    8  C   UNL     1       3.421  30.107  54.101  1.00  0.00     0.135 C 
HETATM    9  C   UNL     1       5.877  26.383  55.656  1.00  0.00     0.069 C 
ENDROOT
BRANCH   5  10
HETATM   10  C   UNL     1       5.126  30.997  55.881  1.00  0.00     0.156 C 
BRANCH  10  11
HETATM   11  C   UNL     1       4.253  31.335  57.090  1.00  0.00     0.222 C 
HETATM   12  N   UNL     1       4.388  32.588  57.626  1.00  0.00    -0.361 N 
HETATM   13  H   UNL     1       5.012  33.256  57.178  1.00  0.00     0.162 HD
HETATM   14  O   UNL     1       3.520  30.480  57.595  1.00  0.00    -0.273 OA
BRANCH  12  15
HETATM   15  C   UNL     1       4.071  32.841  59.026  1.00  0.00     0.124 C 
BRANCH  15  16
HETATM   16  C   UNL     1       4.998  33.794  59.792  1.00  0.00     0.053 C 
BRANCH  16  17
HETATM   17  C   UNL     1       5.529  33.331  61.146  1.00  0.00     0.189 C 
HETATM   18  N   UNL     1       5.593  34.381  62.238  1.00  0.00    -0.071 N 
HETATM   19  H   UNL     1       6.451  34.933  62.050  1.00  0.00     0.279 HD
HETATM   20  C   UNL     1       4.443  35.341  62.367  1.00  0.00     0.270 C 
HETATM   21  C   UNL     1       5.786  33.593  63.526  1.00  0.00     0.235 C 
HETATM   22  C   UNL     1       5.330  32.173  63.209  1.00  0.00     0.030 C 
HETATM   23  C   UNL     1       4.724  32.228  61.814  1.00  0.00     0.035 C 
ENDBRANCH  16  17
ENDBRANCH  15  16
ENDBRANCH  12  15
ENDBRANCH  10  11
ENDBRANCH   5  10
BRANCH   6  24
HETATM   24  C   UNL     1       7.040  28.456  56.509  1.00  0.00    -0.024 A 
HETATM   25  C   UNL     1       8.050  28.666  55.535  1.00  0.00    -0.053 A 
HETATM   26  C   UNL     1       7.897  28.272  54.085  1.00  0.00     0.049 C 
HETATM   27  C   UNL     1       9.246  29.308  55.905  1.00  0.00     0.014 A 
HETATM   28  C   UNL     1       9.471  29.738  57.216  1.00  0.00    -0.061 A 
HETATM   29  C   UNL     1      10.724  30.492  57.563  1.00  0.00     0.048 C 
HETATM   30  C   UNL     1       8.476  29.539  58.171  1.00  0.00     0.007 A 
HETATM   31  C   UNL     1       7.277  28.907  57.827  1.00  0.00     0.011 A 
ENDBRANCH   6  24
BRANCH   9  32
HETATM   32  C   UNL     1       6.065  25.375  56.726  1.00  0.00     0.293 C 
HETATM   33  O   UNL     1       5.156  24.739  57.221  1.00  0.00    -0.259 OA
BRANCH  32  34
HETATM   34  O   UNL     1       7.392  25.157  56.876  1.00  0.00    -0.323 OA
HETATM   35  C   UNL     1       7.807  23.788  56.831  1.00  0.00     0.213 C 
ENDBRANCH  32  34
ENDBRANCH   9  32
BRANCH   1  36
HETATM   36  C   UNL     1       6.149  24.659  53.790  1.00  0.00     0.056 C 
HETATM   37  C   UNL     1       7.500  24.659  53.077  1.00  0.00     0.011 C 
ENDBRANCH   1  36
TORSDOF 9
ENDMDL
MODEL 6
REMARK VINA RESULT:      -7.3      9.444     12.565
REMARK  9 active torsions:
REMARK  status: ('A' for Active; 'I' for Inactive)
REMARK    1  A    between atoms: C_2  and  C_3 
REMARK    2  A    between atoms: C_7  and  C_8 
REMARK    3  A    between atoms: C_8  and  C_9 
REMARK       I    between atoms: C_9  and  N_10 
REMARK    4  A    between atoms: N_10  and  C_11 
REMARK    5  A    between atoms: C_11  and  C_12 
REMARK    6  A    between atoms: C_12  and  C_13 
REMARK    7  A    between atoms: C_21  and  C_22 
REMARK    8  A    between atoms: C_32  and  C_33 
REMARK    9  A    between atoms: C_33  and  O_34 
ROOT
HETATM    1  C   UNL     1       6.691  33.054  62.546  1.00  0.00     0.051 C 
HETATM    2  N   UNL     1       6.032  32.777  61.370  1.00  0.00    -0.228 NA
HETATM    3  C   UNL     1       4.858  33.262  61.197  1.00  0.00     0.170 C 
HETATM    4  N   UNL     1       4.182  34.356  62.081  1.00  0.00    -0.318 N 
HETATM    5  C   UNL     1       3.106  34.763  61.482  1.00  0.00     0.011 C 
HETATM    6  C   UNL     1       4.988  34.780  63.259  1.00  0.00     0.166 C 
HETATM    7  S   UNL     1       3.894  32.825  59.819  1.00  0.00    -0.086 SA
HETATM    8  C   UNL     1       2.513  33.779  60.492  1.00  0.00     0.135 C 
HETATM    9  C   UNL     1       6.166  33.865  63.486  1.00  0.00     0.069 C 
ENDROOT
BRANCH   5  10
HETATM   10  C   UNL     1       2.609  36.187  61.520  1.00  0.00     0.156 C 
BRANCH  10  11
HETATM   11  C   UNL     1       2.594  36.705  60.081  1.00  0.00     0.222 C 
HETATM   12  N   UNL     1       3.805  36.852  59.459  1.00  0.00    -0.361 N 
HETATM   13  H   UNL     1       4.652  36.567  59.946  1.00  0.00     0.162 HD
HETATM   14  O   UNL     1       1.535  37.042  59.545  1.00  0.00    -0.273 OA
BRANCH  12  15
HETATM   15  C   UNL     1       3.977  37.809  58.373  1.00  0.00     0.124 C 
BRANCH  15  16
HETATM   16  C   UNL     1       5.252  38.664  58.389  1.00  0.00     0.053 C 
BRANCH  16  17
HETATM   17  C   UNL     1       5.221  39.967  59.182  1.00  0.00     0.189 C 
HETATM   18  N   UNL     1       5.223  41.248  58.370  1.00  0.00    -0.071 N 
HETATM   19  H   UNL     1       6.210  41.401  58.086  1.00  0.00     0.279 HD
HETATM   20  C   UNL     1       4.371  41.305  57.133  1.00  0.00     0.270 C 
HETATM   21  C   UNL     1       4.819  42.335  59.356  1.00  0.00     0.235 C 
HETATM   22  C   UNL     1       4.132  41.609  60.506  1.00  0.00     0.030 C 
HETATM   23  C   UNL     1       4.001  40.157  60.069  1.00  0.00     0.035 C 
ENDBRANCH  16  17
ENDBRANCH  15  16
ENDBRANCH  12  15
ENDBRANCH  10  11
ENDBRANCH   5  10
BRANCH   6  24
HETATM   24  C   UNL     1       5.400  36.251  63.170  1.00  0.00    -0.024 A 
HETATM   25  C   UNL     1       5.141  37.165  64.224  1.00  0.00    -0.053 A 
HETATM   26  C   UNL     1       4.454  36.772  65.510  1.00  0.00     0.049 C 
HETATM   27  C   UNL     1       5.572  38.499  64.106  1.00  0.00     0.014 A 
HETATM   28  C   UNL     1       6.243  38.953  62.967  1.00  0.00    -0.061 A 
HETATM   29  C   UNL     1       6.762  40.362  62.903  1.00  0.00     0.048 C 
HETATM   30  C   UNL     1       6.505  38.053  61.935  1.00  0.00     0.007 A 
HETATM   31  C   UNL     1       6.091  36.722  62.031  1.00  0.00     0.011 A 
ENDBRANCH   6  24
BRANCH   9  32
HETATM   32  C   UNL     1       6.622  33.796  64.894  1.00  0.00     0.293 C 
HETATM   33  O   UNL     1       7.720  34.159  65.267  1.00  0.00    -0.259 OA
BRANCH  32  34
HETATM   34  O   UNL     1       5.560  33.475  65.669  1.00  0.00    -0.323 OA
HETATM   35  C   UNL     1       5.571  34.014  66.995  1.00  0.00     0.213 C 
ENDBRANCH  32  34
ENDBRANCH   9  32
BRANCH   1  36
HETATM   36  C   UNL     1       8.025  32.320  62.660  1.00  0.00     0.056 C 
HETATM   37  C   UNL     1       8.756  32.114  61.335  1.00  0.00     0.011 C 
ENDBRANCH   1  36
TORSDOF 9
ENDMDL
MODEL 7
REMARK VINA RESULT:      -7.2      3.376      7.572
REMARK  9 active torsions:
REMARK  status: ('A' for Active; 'I' for Inactive)
REMARK    1  A    between atoms: C_2  and  C_3 
REMARK    2  A    between atoms: C_7  and  C_8 
REMARK    3  A    between atoms: C_8  and  C_9 
REMARK       I    between atoms: C_9  and  N_10 
REMARK    4  A    between atoms: N_10  and  C_11 
REMARK    5  A    between atoms: C_11  and  C_12 
REMARK    6  A    between atoms: C_12  and  C_13 
REMARK    7  A    between atoms: C_21  and  C_22 
REMARK    8  A    between atoms: C_32  and  C_33 
REMARK    9  A    between atoms: C_33  and  O_34 
ROOT
HETATM    1  C   UNL     1       4.044  32.580  53.449  1.00  0.00     0.051 C 
HETATM    2  N   UNL     1       4.777  31.979  54.446  1.00  0.00    -0.228 NA
HETATM    3  C   UNL     1       4.602  30.729  54.667  1.00  0.00     0.170 C 
HETATM    4  N   UNL     1       3.818  29.740  53.749  1.00  0.00    -0.318 N 
HETATM    5  C   UNL     1       4.042  28.530  54.160  1.00  0.00     0.011 C 
HETATM    6  C   UNL     1       3.174  30.376  52.567  1.00  0.00     0.166 C 
HETATM    7  S   UNL     1       5.361  29.933  56.013  1.00  0.00    -0.086 SA
HETATM    8  C   UNL     1       4.465  28.415  55.612  1.00  0.00     0.135 C 
HETATM    9  C   UNL     1       3.199  31.882  52.663  1.00  0.00     0.069 C 
ENDROOT
BRANCH   5  10
HETATM   10  C   UNL     1       4.162  27.338  53.242  1.00  0.00     0.156 C 
BRANCH  10  11
HETATM   11  C   UNL     1       5.652  27.061  53.044  1.00  0.00     0.222 C 
HETATM   12  N   UNL     1       6.022  25.759  52.835  1.00  0.00    -0.361 N 
HETATM   13  H   UNL     1       5.303  25.043  52.766  1.00  0.00     0.162 HD
HETATM   14  O   UNL     1       6.480  27.971  53.146  1.00  0.00    -0.273 OA
BRANCH  12  15
HETATM   15  C   UNL     1       7.361  25.297  53.180  1.00  0.00     0.124 C 
BRANCH  15  16
HETATM   16  C   UNL     1       7.625  23.788  53.090  1.00  0.00     0.053 C 
BRANCH  16  17
HETATM   17  C   UNL     1       7.553  22.978  54.382  1.00  0.00     0.189 C 
HETATM   18  N   UNL     1       7.597  21.470  54.231  1.00  0.00    -0.071 N 
HETATM   19  H   UNL     1       6.638  21.184  53.957  1.00  0.00     0.279 HD
HETATM   20  C   UNL     1       8.559  20.884  53.236  1.00  0.00     0.270 C 
HETATM   21  C   UNL     1       7.885  20.947  55.633  1.00  0.00     0.235 C 
HETATM   22  C   UNL     1       8.478  22.126  56.395  1.00  0.00     0.030 C 
HETATM   23  C   UNL     1       8.681  23.231  55.369  1.00  0.00     0.035 C 
ENDBRANCH  16  17
ENDBRANCH  15  16
ENDBRANCH  12  15
ENDBRANCH  10  11
ENDBRANCH   5  10
BRANCH   6  24
HETATM   24  C   UNL     1       3.764  29.866  51.250  1.00  0.00    -0.024 A 
HETATM   25  C   UNL     1       2.969  29.192  50.287  1.00  0.00    -0.053 A 
HETATM   26  C   UNL     1       1.493  28.930  50.469  1.00  0.00     0.049 C 
HETATM   27  C   UNL     1       3.553  28.774  49.077  1.00  0.00     0.014 A 
HETATM   28  C   UNL     1       4.906  28.996  48.802  1.00  0.00    -0.061 A 
HETATM   29  C   UNL     1       5.483  28.610  47.470  1.00  0.00     0.048 C 
HETATM   30  C   UNL     1       5.684  29.666  49.745  1.00  0.00     0.007 A 
HETATM   31  C   UNL     1       5.125  30.095  50.952  1.00  0.00     0.011 A 
ENDBRANCH   6  24
BRANCH   9  32
HETATM   32  C   UNL     1       2.098  32.558  51.937  1.00  0.00     0.293 C 
HETATM   33  O   UNL     1       1.093  32.978  52.475  1.00  0.00    -0.259 OA
BRANCH  32  34
HETATM   34  O   UNL     1       2.509  32.798  50.670  1.00  0.00    -0.323 OA
HETATM   35  C   UNL     1       1.493  32.741  49.665  1.00  0.00     0.213 C 
ENDBRANCH  32  34
ENDBRANCH   9  32
BRANCH   1  36
HETATM   36  C   UNL     1       4.272  34.088  53.377  1.00  0.00     0.056 C 
HETATM   37  C   UNL     1       5.315  34.527  52.351  1.00  0.00     0.011 C 
ENDBRANCH   1  36
TORSDOF 9
ENDMDL
MODEL 8
REMARK VINA RESULT:      -6.9      8.192     11.342
REMARK  9 active torsions:
REMARK  status: ('A' for Active; 'I' for Inactive)
REMARK    1  A    between atoms: C_2  and  C_3 
REMARK    2  A    between atoms: C_7  and  C_8 
REMARK    3  A    between atoms: C_8  and  C_9 
REMARK       I    between atoms: C_9  and  N_10 
REMARK    4  A    between atoms: N_10  and  C_11 
REMARK    5  A    between atoms: C_11  and  C_12 
REMARK    6  A    between atoms: C_12  and  C_13 
REMARK    7  A    between atoms: C_21  and  C_22 
REMARK    8  A    between atoms: C_32  and  C_33 
REMARK    9  A    between atoms: C_33  and  O_34 
ROOT
HETATM    1  C   UNL     1       6.398  33.338  61.886  1.00  0.00     0.051 C 
HETATM    2  N   UNL     1       5.716  33.283  60.693  1.00  0.00    -0.228 NA
HETATM    3  C   UNL     1       4.599  33.905  60.595  1.00  0.00     0.170 C 
HETATM    4  N   UNL     1       4.039  34.942  61.618  1.00  0.00    -0.318 N 
HETATM    5  C   UNL     1       3.013  35.532  61.088  1.00  0.00     0.011 C 
HETATM    6  C   UNL     1       4.882  35.128  62.831  1.00  0.00     0.166 C 
HETATM    7  S   UNL     1       3.597  33.749  59.184  1.00  0.00    -0.086 SA
HETATM    8  C   UNL     1       2.323  34.748  59.987  1.00  0.00     0.135 C 
HETATM    9  C   UNL     1       5.958  34.074  62.928  1.00  0.00     0.069 C 
ENDROOT
BRANCH   5  10
HETATM   10  C   UNL     1       2.668  36.984  61.311  1.00  0.00     0.156 C 
BRANCH  10  11
HETATM   11  C   UNL     1       2.690  37.674  59.947  1.00  0.00     0.222 C 
HETATM   12  N   UNL     1       3.906  37.793  59.328  1.00  0.00    -0.361 N 
HETATM   13  H   UNL     1       4.727  37.378  59.763  1.00  0.00     0.162 HD
HETATM   14  O   UNL     1       1.661  38.164  59.473  1.00  0.00    -0.273 OA
BRANCH  12  15
HETATM   15  C   UNL     1       4.155  38.858  58.365  1.00  0.00     0.124 C 
BRANCH  15  16
HETATM   16  C   UNL     1       4.547  38.437  56.942  1.00  0.00     0.053 C 
BRANCH  16  17
HETATM   17  C   UNL     1       4.597  36.943  56.634  1.00  0.00     0.189 C 
HETATM   18  N   UNL     1       3.308  36.315  56.141  1.00  0.00    -0.071 N 
HETATM   19  H   UNL     1       2.728  36.158  56.987  1.00  0.00     0.279 HD
HETATM   20  C   UNL     1       2.480  37.081  55.147  1.00  0.00     0.270 C 
HETATM   21  C   UNL     1       3.725  34.966  55.571  1.00  0.00     0.235 C 
HETATM   22  C   UNL     1       5.220  35.082  55.299  1.00  0.00     0.030 C 
HETATM   23  C   UNL     1       5.582  36.539  55.548  1.00  0.00     0.035 C 
ENDBRANCH  16  17
ENDBRANCH  15  16
ENDBRANCH  12  15
ENDBRANCH  10  11
ENDBRANCH   5  10
BRANCH   6  24
HETATM   24  C   UNL     1       5.447  36.547  62.924  1.00  0.00    -0.024 A 
HETATM   25  C   UNL     1       5.273  37.346  64.083  1.00  0.00    -0.053 A 
HETATM   26  C   UNL     1       4.534  36.871  65.312  1.00  0.00     0.049 C 
HETATM   27  C   UNL     1       5.841  38.632  64.130  1.00  0.00     0.014 A 
HETATM   28  C   UNL     1       6.568  39.151  63.055  1.00  0.00    -0.061 A 
HETATM   29  C   UNL     1       7.231  40.495  63.165  1.00  0.00     0.048 C 
HETATM   30  C   UNL     1       6.746  38.362  61.919  1.00  0.00     0.007 A 
HETATM   31  C   UNL     1       6.195  37.080  61.851  1.00  0.00     0.011 A 
ENDBRANCH   6  24
BRANCH   9  32
HETATM   32  C   UNL     1       6.402  33.780  64.310  1.00  0.00     0.293 C 
HETATM   33  O   UNL     1       7.438  34.195  64.790  1.00  0.00    -0.259 OA
BRANCH  32  34
HETATM   34  O   UNL     1       5.381  33.179  64.965  1.00  0.00    -0.323 OA
HETATM   35  C   UNL     1       5.015  33.764  66.218  1.00  0.00     0.213 C 
ENDBRANCH  32  34
ENDBRANCH   9  32
BRANCH   1  36
HETATM   36  C   UNL     1       7.648  32.461  61.892  1.00  0.00     0.056 C 
HETATM   37  C   UNL     1       8.474  32.518  60.609  1.00  0.00     0.011 C 
ENDBRANCH   1  36
TORSDOF 9
ENDMDL
MODEL 9
REMARK VINA RESULT:      -6.9      3.917      9.578
REMARK  9 active torsions:
REMARK  status: ('A' for Active; 'I' for Inactive)
REMARK    1  A    between atoms: C_2  and  C_3 
REMARK    2  A    between atoms: C_7  and  C_8 
REMARK    3  A    between atoms: C_8  and  C_9 
REMARK       I    between atoms: C_9  and  N_10 
REMARK    4  A    between atoms: N_10  and  C_11 
REMARK    5  A    between atoms: C_11  and  C_12 
REMARK    6  A    between atoms: C_12  and  C_13 
REMARK    7  A    between atoms: C_21  and  C_22 
REMARK    8  A    between atoms: C_32  and  C_33 
REMARK    9  A    between atoms: C_33  and  O_34 
ROOT
HETATM    1  C   UNL     1       1.930  30.323  46.637  1.00  0.00     0.051 C 
HETATM    2  N   UNL     1       1.896  28.959  46.807  1.00  0.00    -0.228 NA
HETATM    3  C   UNL     1       2.946  28.369  47.245  1.00  0.00     0.170 C 
HETATM    4  N   UNL     1       4.200  29.071  47.854  1.00  0.00    -0.318 N 
HETATM    5  C   UNL     1       4.956  28.166  48.395  1.00  0.00     0.011 C 
HETATM    6  C   UNL     1       4.147  30.558  47.828  1.00  0.00     0.166 C 
HETATM    7  S   UNL     1       3.043  26.636  47.328  1.00  0.00    -0.086 SA
HETATM    8  C   UNL     1       4.769  26.764  47.848  1.00  0.00     0.135 C 
HETATM    9  C   UNL     1       3.008  31.060  46.974  1.00  0.00     0.069 C 
ENDROOT
BRANCH   5  10
HETATM   10  C   UNL     1       5.760  28.384  49.654  1.00  0.00     0.156 C 
BRANCH  10  11
HETATM   11  C   UNL     1       5.142  27.513  50.748  1.00  0.00     0.222 C 
HETATM   12  N   UNL     1       5.819  26.375  51.096  1.00  0.00    -0.361 N 
HETATM   13  H   UNL     1       6.718  26.179  50.662  1.00  0.00     0.162 HD
HETATM   14  O   UNL     1       4.044  27.799  51.233  1.00  0.00    -0.273 OA
BRANCH  12  15
HETATM   15  C   UNL     1       5.117  25.233  51.669  1.00  0.00     0.124 C 
BRANCH  15  16
HETATM   16  C   UNL     1       5.056  25.146  53.200  1.00  0.00     0.053 C 
BRANCH  16  17
HETATM   17  C   UNL     1       6.267  25.642  53.986  1.00  0.00     0.189 C 
HETATM   18  N   UNL     1       6.242  27.099  54.407  1.00  0.00    -0.071 N 
HETATM   19  H   UNL     1       6.521  27.641  53.566  1.00  0.00     0.279 HD
HETATM   20  C   UNL     1       4.949  27.668  54.919  1.00  0.00     0.270 C 
HETATM   21  C   UNL     1       7.339  27.220  55.456  1.00  0.00     0.235 C 
HETATM   22  C   UNL     1       7.589  25.800  55.951  1.00  0.00     0.030 C 
HETATM   23  C   UNL     1       6.514  24.935  55.309  1.00  0.00     0.035 C 
ENDBRANCH  16  17
ENDBRANCH  15  16
ENDBRANCH  12  15
ENDBRANCH  10  11
ENDBRANCH   5  10
BRANCH   6  24
HETATM   24  C   UNL     1       4.127  31.155  49.237  1.00  0.00    -0.024 A 
HETATM   25  C   UNL     1       5.143  32.035  49.690  1.00  0.00    -0.053 A 
HETATM   26  C   UNL     1       6.311  32.463  48.833  1.00  0.00     0.049 C 
HETATM   27  C   UNL     1       5.059  32.583  50.983  1.00  0.00     0.014 A 
HETATM   28  C   UNL     1       4.000  32.272  51.842  1.00  0.00    -0.061 A 
HETATM   29  C   UNL     1       3.895  32.935  53.186  1.00  0.00     0.048 C 
HETATM   30  C   UNL     1       2.998  31.414  51.393  1.00  0.00     0.007 A 
HETATM   31  C   UNL     1       3.058  30.860  50.111  1.00  0.00     0.011 A 
ENDBRANCH   6  24
BRANCH   9  32
HETATM   32  C   UNL     1       3.233  32.399  46.383  1.00  0.00     0.293 C 
HETATM   33  O   UNL     1       3.033  33.441  46.975  1.00  0.00    -0.259 OA
BRANCH  32  34
HETATM   34  O   UNL     1       3.876  32.240  45.203  1.00  0.00    -0.323 OA
HETATM   35  C   UNL     1       3.494  33.141  44.159  1.00  0.00     0.213 C 
ENDBRANCH  32  34
ENDBRANCH   9  32
BRANCH   1  36
HETATM   36  C   UNL     1       0.652  30.871  46.004  1.00  0.00     0.056 C 
HETATM   37  C   UNL     1      -0.566  29.958  46.133  1.00  0.00     0.011 C 
ENDBRANCH   1  36
TORSDOF 9
ENDMDL
MODEL 10
REMARK VINA RESULT:      -6.9      4.146      8.142
REMARK  9 active torsions:
REMARK  status: ('A' for Active; 'I' for Inactive)
REMARK    1  A    between atoms: C_2  and  C_3 
REMARK    2  A    between atoms: C_7  and  C_8 
REMARK    3  A    between atoms: C_8  and  C_9 
REMARK       I    between atoms: C_9  and  N_10 
REMARK    4  A    between atoms: N_10  and  C_11 
REMARK    5  A    between atoms: C_11  and  C_12 
REMARK    6  A    between atoms: C_12  and  C_13 
REMARK    7  A    between atoms: C_21  and  C_22 
REMARK    8  A    between atoms: C_32  and  C_33 
REMARK    9  A    between atoms: C_33  and  O_34 
ROOT
HETATM    1  C   UNL     1       5.771  33.320  48.497  1.00  0.00     0.051 C 
HETATM    2  N   UNL     1       6.162  33.720  49.754  1.00  0.00    -0.228 NA
HETATM    3  C   UNL     1       5.374  33.498  50.741  1.00  0.00     0.170 C 
HETATM    4  N   UNL     1       4.109  32.585  50.712  1.00  0.00    -0.318 N 
HETATM    5  C   UNL     1       3.696  32.414  51.930  1.00  0.00     0.011 C 
HETATM    6  C   UNL     1       3.795  32.009  49.376  1.00  0.00     0.166 C 
HETATM    7  S   UNL     1       5.715  34.119  52.328  1.00  0.00    -0.086 SA
HETATM    8  C   UNL     1       4.122  33.493  52.908  1.00  0.00     0.135 C 
HETATM    9  C   UNL     1       4.619  32.650  48.286  1.00  0.00     0.069 C 
ENDROOT
BRANCH   5  10
HETATM   10  C   UNL     1       3.088  31.131  52.440  1.00  0.00     0.156 C 
BRANCH  10  11
HETATM   11  C   UNL     1       4.141  30.437  53.305  1.00  0.00     0.222 C 
HETATM   12  N   UNL     1       5.028  29.613  52.665  1.00  0.00    -0.361 N 
HETATM   13  H   UNL     1       4.992  29.534  51.652  1.00  0.00     0.162 HD
HETATM   14  O   UNL     1       4.130  30.565  54.532  1.00  0.00    -0.273 OA
BRANCH  12  15
HETATM   15  C   UNL     1       5.674  28.516  53.374  1.00  0.00     0.124 C 
BRANCH  15  16
HETATM   16  C   UNL     1       6.376  27.450  52.522  1.00  0.00     0.053 C 
BRANCH  16  17
HETATM   17  C   UNL     1       6.918  26.215  53.237  1.00  0.00     0.189 C 
HETATM   18  N   UNL     1       5.886  25.253  53.792  1.00  0.00    -0.071 N 
HETATM   19  H   UNL     1       5.560  25.670  54.684  1.00  0.00     0.279 HD
HETATM   20  C   UNL     1       4.677  24.948  52.953  1.00  0.00     0.270 C 
HETATM   21  C   UNL     1       6.665  23.981  54.099  1.00  0.00     0.235 C 
HETATM   22  C   UNL     1       7.942  24.074  53.273  1.00  0.00     0.030 C 
HETATM   23  C   UNL     1       7.780  25.298  52.384  1.00  0.00     0.035 C 
ENDBRANCH  16  17
ENDBRANCH  15  16
ENDBRANCH  12  15
ENDBRANCH  10  11
ENDBRANCH   5  10
BRANCH   6  24
HETATM   24  C   UNL     1       3.908  30.483  49.370  1.00  0.00    -0.024 A 
HETATM   25  C   UNL     1       2.760  29.649  49.367  1.00  0.00    -0.053 A 
HETATM   26  C   UNL     1       1.348  30.184  49.359  1.00  0.00     0.049 C 
HETATM   27  C   UNL     1       2.919  28.252  49.327  1.00  0.00     0.014 A 
HETATM   28  C   UNL     1       4.185  27.660  49.301  1.00  0.00    -0.061 A 
HETATM   29  C   UNL     1       4.323  26.168  49.178  1.00  0.00     0.048 C 
HETATM   30  C   UNL     1       5.313  28.479  49.297  1.00  0.00     0.007 A 
HETATM   31  C   UNL     1       5.180  29.870  49.331  1.00  0.00     0.011 A 
ENDBRANCH   6  24
BRANCH   9  32
HETATM   32  C   UNL     1       3.981  32.633  46.949  1.00  0.00     0.293 C 
HETATM   33  O   UNL     1       3.294  33.538  46.518  1.00  0.00    -0.259 OA
BRANCH  32  34
HETATM   34  O   UNL     1       4.467  31.575  46.260  1.00  0.00    -0.323 OA
HETATM   35  C   UNL     1       4.545  31.739  44.841  1.00  0.00     0.213 C 
ENDBRANCH  32  34
ENDBRANCH   9  32
BRANCH   1  36
HETATM   36  C   UNL     1       6.752  33.749  47.410  1.00  0.00     0.056 C 
HETATM   37  C   UNL     1       7.224  35.199  47.512  1.00  0.00     0.011 C 
ENDBRANCH   1  36
TORSDOF 9
ENDMDL
