MODEL 1
REMARK VINA RESULT:     -10.7      0.000      0.000
REMARK  8 active torsions:
REMARK  status: ('A' for Active; 'I' for Inactive)
REMARK    1  A    between atoms: C_2  and  C_3 
REMARK    2  A    between atoms: C_3  and  C_4 
REMARK    3  A    between atoms: C_7  and  N_8 
REMARK       I    between atoms: N_8  and  C_9 
REMARK    4  A    between atoms: C_9  and  C_10 
REMARK    5  A    between atoms: C_13  and  N_14 
REMARK       I    between atoms: N_14  and  C_15 
REMARK    6  A    between atoms: C_15  and  C_16 
REMARK    7  A    between atoms: C_16  and  C_17 
REMARK    8  A    between atoms: C_19  and  N_20 
ROOT
HETATM    1  C   UNL     1       7.302  31.213  59.590  1.00  0.00     0.032 A 
HETATM    2  C   UNL     1       8.165  30.142  59.329  1.00  0.00     0.019 A 
HETATM    3  C   UNL     1       8.011  29.375  58.164  1.00  0.00     0.030 A 
HETATM    4  C   UNL     1       6.987  29.657  57.259  1.00  0.00     0.034 A 
HETATM    5  C   UNL     1       6.104  30.704  57.540  1.00  0.00     0.030 A 
HETATM    6  C   UNL     1       6.259  31.476  58.695  1.00  0.00     0.019 A 
ENDROOT
BRANCH   4   7
HETATM    7  N   UNL     1       6.771  28.958  56.055  1.00  0.00    -0.327 N 
HETATM    8  C   UNL     1       5.682  28.189  55.701  1.00  0.00     0.223 C 
HETATM    9  O   UNL     1       4.670  28.006  56.370  1.00  0.00    -0.273 OA
HETATM   10  H   UNL     1       7.502  29.078  55.351  1.00  0.00     0.169 HD
BRANCH   8  11
HETATM   11  C   UNL     1       5.815  27.555  54.327  1.00  0.00     0.128 C 
BRANCH  11  12
HETATM   12  C   UNL     1       5.602  26.054  54.426  1.00  0.00     0.158 C 
HETATM   13  S   UNL     1       7.000  25.223  55.244  1.00  0.00    -0.077 SA
HETATM   14  C   UNL     1       6.925  23.914  54.073  1.00  0.00     0.168 C 
HETATM   15  N   UNL     1       6.178  24.142  53.041  1.00  0.00    -0.189 NA
HETATM   16  C   UNL     1       5.601  25.387  53.059  1.00  0.00     0.260 C 
HETATM   17  O   UNL     1       5.102  25.918  52.071  1.00  0.00    -0.270 OA
BRANCH  14  18
HETATM   18  N   UNL     1       7.588  22.734  54.321  1.00  0.00    -0.360 N 
HETATM   19  C   UNL     1       7.925  22.258  55.667  1.00  0.00     0.125 C 
HETATM   20  C   UNL     1       7.735  20.745  55.742  1.00  0.00     0.020 C 
HETATM   21  C   UNL     1       8.536  20.029  54.657  1.00  0.00     0.003 C 
HETATM   22  C   UNL     1       8.226  20.611  53.281  1.00  0.00     0.020 C 
HETATM   23  C   UNL     1       8.408  22.129  53.263  1.00  0.00     0.125 C 
ENDBRANCH  14  18
ENDBRANCH  11  12
ENDBRANCH   8  11
ENDBRANCH   4   7
BRANCH   1  24
HETATM   24  C   UNL     1       7.432  32.110  60.780  1.00  0.00     0.256 C 
HETATM   25  N   UNL     1       6.360  32.118  61.654  1.00  0.00    -0.323 N 
HETATM   26  H   UNL     1       5.551  31.565  61.415  1.00  0.00     0.169 HD
HETATM   27  O   UNL     1       8.480  32.735  60.910  1.00  0.00    -0.267 OA
BRANCH  25  28
HETATM   28  C   UNL     1       6.300  32.747  62.918  1.00  0.00     0.035 A 
HETATM   29  C   UNL     1       7.410  32.980  63.728  1.00  0.00     0.030 A 
HETATM   30  C   UNL     1       7.261  33.549  64.999  1.00  0.00     0.010 A 
HETATM   31  C   UNL     1       6.000  33.917  65.481  1.00  0.00    -0.054 A 
HETATM   32  C   UNL     1       4.887  33.696  64.659  1.00  0.00     0.010 A 
HETATM   33  C   UNL     1       5.036  33.115  63.394  1.00  0.00     0.030 A 
BRANCH  31  34
HETATM   34  C   UNL     1       5.810  34.496  66.873  1.00  0.00     0.014 C 
HETATM   35  C   UNL     1       4.513  33.955  67.484  1.00  0.00     0.015 C 
BRANCH  34  36
HETATM   36  C   UNL     1       6.994  34.244  67.829  1.00  0.00     0.004 C 
HETATM   37  C   UNL     1       6.590  34.257  69.298  1.00  0.00     0.006 C 
ENDBRANCH  34  36
ENDBRANCH  31  34
ENDBRANCH  25  28
ENDBRANCH   1  24
TORSDOF 8
ENDMDL
MODEL 2
REMARK VINA RESULT:     -10.4      3.259     12.430
REMARK  8 active torsions:
REMARK  status: ('A' for Active; 'I' for Inactive)
REMARK    1  A    between atoms: C_2  and  C_3 
REMARK    2  A    between atoms: C_3  and  C_4 
REMARK    3  A    between atoms: C_7  and  N_8 
REMARK       I    between atoms: N_8  and  C_9 
REMARK    4  A    between atoms: C_9  and  C_10 
REMARK    5  A    between atoms: C_13  and  N_14 
REMARK       I    between atoms: N_14  and  C_15 
REMARK    6  A    between atoms: C_15  and  C_16 
REMARK    7  A    between atoms: C_16  and  C_17 
REMARK    8  A    between atoms: C_19  and  N_20 
ROOT
HETATM    1  C   UNL     1       7.158  29.537  57.745  1.00  0.00     0.032 A 
HETATM    2  C   UNL     1       7.625  30.369  58.770  1.00  0.00     0.019 A 
HETATM    3  C   UNL     1       6.922  31.535  59.111  1.00  0.00     0.030 A 
HETATM    4  C   UNL     1       5.761  31.891  58.425  1.00  0.00     0.034 A 
HETATM    5  C   UNL     1       5.317  31.077  57.378  1.00  0.00     0.030 A 
HETATM    6  C   UNL     1       6.008  29.911  57.040  1.00  0.00     0.019 A 
ENDROOT
BRANCH   4   7
HETATM    7  N   UNL     1       4.980  33.027  58.713  1.00  0.00    -0.327 N 
HETATM    8  C   UNL     1       3.726  33.075  59.289  1.00  0.00     0.223 C 
HETATM    9  O   UNL     1       3.074  32.119  59.695  1.00  0.00    -0.273 OA
HETATM   10  H   UNL     1       5.427  33.921  58.502  1.00  0.00     0.169 HD
BRANCH   8  11
HETATM   11  C   UNL     1       3.176  34.485  59.413  1.00  0.00     0.128 C 
BRANCH  11  12
HETATM   12  C   UNL     1       3.442  35.024  60.808  1.00  0.00     0.158 C 
HETATM   13  S   UNL     1       4.963  34.329  61.526  1.00  0.00    -0.077 SA
HETATM   14  C   UNL     1       4.164  34.154  63.082  1.00  0.00     0.168 C 
HETATM   15  N   UNL     1       2.880  34.312  63.062  1.00  0.00    -0.189 NA
HETATM   16  C   UNL     1       2.390  34.567  61.806  1.00  0.00     0.260 C 
HETATM   17  O   UNL     1       1.203  34.463  61.507  1.00  0.00    -0.270 OA
BRANCH  14  18
HETATM   18  N   UNL     1       4.913  33.926  64.214  1.00  0.00    -0.360 N 
HETATM   19  C   UNL     1       6.149  33.137  64.226  1.00  0.00     0.125 C 
HETATM   20  C   UNL     1       7.164  33.782  65.169  1.00  0.00     0.020 C 
HETATM   21  C   UNL     1       6.583  33.969  66.568  1.00  0.00     0.003 C 
HETATM   22  C   UNL     1       5.253  34.715  66.507  1.00  0.00     0.020 C 
HETATM   23  C   UNL     1       4.281  34.045  65.535  1.00  0.00     0.125 C 
ENDBRANCH  14  18
ENDBRANCH  11  12
ENDBRANCH   8  11
ENDBRANCH   4   7
BRANCH   1  24
HETATM   24  C   UNL     1       7.818  28.251  57.357  1.00  0.00     0.256 C 
HETATM   25  N   UNL     1       6.981  27.263  56.873  1.00  0.00    -0.323 N 
HETATM   26  H   UNL     1       5.990  27.449  56.855  1.00  0.00     0.169 HD
HETATM   27  O   UNL     1       9.038  28.184  57.462  1.00  0.00    -0.267 OA
BRANCH  25  28
HETATM   28  C   UNL     1       7.367  26.032  56.295  1.00  0.00     0.035 A 
HETATM   29  C   UNL     1       7.287  25.750  54.933  1.00  0.00     0.030 A 
HETATM   30  C   UNL     1       7.627  24.481  54.445  1.00  0.00     0.010 A 
HETATM   31  C   UNL     1       8.073  23.473  55.306  1.00  0.00    -0.054 A 
HETATM   32  C   UNL     1       8.168  23.764  56.673  1.00  0.00     0.010 A 
HETATM   33  C   UNL     1       7.816  25.028  57.161  1.00  0.00     0.030 A 
BRANCH  31  34
HETATM   34  C   UNL     1       8.406  22.078  54.804  1.00  0.00     0.014 C 
HETATM   35  C   UNL     1       7.713  21.033  55.687  1.00  0.00     0.015 C 
BRANCH  34  36
HETATM   36  C   UNL     1       8.053  21.838  53.321  1.00  0.00     0.004 C 
HETATM   37  C   UNL     1       8.354  20.419  52.856  1.00  0.00     0.006 C 
ENDBRANCH  34  36
ENDBRANCH  31  34
ENDBRANCH  25  28
ENDBRANCH   1  24
TORSDOF 8
ENDMDL
MODEL 3
REMARK VINA RESULT:      -9.4      1.363      1.839
REMARK  8 active torsions:
REMARK  status: ('A' for Active; 'I' for Inactive)
REMARK    1  A    between atoms: C_2  and  C_3 
REMARK    2  A    between atoms: C_3  and  C_4 
REMARK    3  A    between atoms: C_7  and  N_8 
REMARK       I    between atoms: N_8  and  C_9 
REMARK    4  A    between atoms: C_9  and  C_10 
REMARK    5  A    between atoms: C_13  and  N_14 
REMARK       I    between atoms: N_14  and  C_15 
REMARK    6  A    between atoms: C_15  and  C_16 
REMARK    7  A    between atoms: C_16  and  C_17 
REMARK    8  A    between atoms: C_19  and  N_20 
ROOT
HETATM    1  C   UNL     1       6.616  31.316  58.385  1.00  0.00     0.032 A 
HETATM    2  C   UNL     1       5.714  31.667  57.373  1.00  0.00     0.019 A 
HETATM    3  C   UNL     1       5.531  30.826  56.264  1.00  0.00     0.030 A 
HETATM    4  C   UNL     1       6.255  29.640  56.144  1.00  0.00     0.034 A 
HETATM    5  C   UNL     1       7.182  29.310  57.138  1.00  0.00     0.030 A 
HETATM    6  C   UNL     1       7.362  30.139  58.248  1.00  0.00     0.019 A 
ENDROOT
BRANCH   4   7
HETATM    7  N   UNL     1       6.121  28.726  55.081  1.00  0.00    -0.327 N 
HETATM    8  C   UNL     1       7.103  28.255  54.234  1.00  0.00     0.223 C 
HETATM    9  O   UNL     1       8.298  28.525  54.283  1.00  0.00    -0.273 OA
HETATM   10  H   UNL     1       5.181  28.342  54.961  1.00  0.00     0.169 HD
BRANCH   8  11
HETATM   11  C   UNL     1       6.576  27.301  53.176  1.00  0.00     0.128 C 
BRANCH  11  12
HETATM   12  C   UNL     1       6.277  25.948  53.801  1.00  0.00     0.158 C 
HETATM   13  S   UNL     1       7.685  25.320  54.767  1.00  0.00    -0.077 SA
HETATM   14  C   UNL     1       7.422  23.704  54.127  1.00  0.00     0.168 C 
HETATM   15  N   UNL     1       6.602  23.635  53.128  1.00  0.00    -0.189 NA
HETATM   16  C   UNL     1       6.111  24.860  52.751  1.00  0.00     0.260 C 
HETATM   17  O   UNL     1       5.561  25.068  51.673  1.00  0.00    -0.270 OA
BRANCH  14  18
HETATM   18  N   UNL     1       8.027  22.623  54.726  1.00  0.00    -0.360 N 
HETATM   19  C   UNL     1       8.622  22.664  56.066  1.00  0.00     0.125 C 
HETATM   20  C   UNL     1       8.333  21.355  56.799  1.00  0.00     0.020 C 
HETATM   21  C   UNL     1       8.806  20.149  55.991  1.00  0.00     0.003 C 
HETATM   22  C   UNL     1       8.238  20.189  54.575  1.00  0.00     0.020 C 
HETATM   23  C   UNL     1       8.533  21.524  53.893  1.00  0.00     0.125 C 
ENDBRANCH  14  18
ENDBRANCH  11  12
ENDBRANCH   8  11
ENDBRANCH   4   7
BRANCH   1  24
HETATM   24  C   UNL     1       6.829  32.129  59.623  1.00  0.00     0.256 C 
HETATM   25  N   UNL     1       5.708  32.350  60.402  1.00  0.00    -0.323 N 
HETATM   26  H   UNL     1       4.824  31.997  60.070  1.00  0.00     0.169 HD
HETATM   27  O   UNL     1       7.971  32.501  59.869  1.00  0.00    -0.267 OA
BRANCH  25  28
HETATM   28  C   UNL     1       5.671  32.941  61.685  1.00  0.00     0.035 A 
HETATM   29  C   UNL     1       6.098  32.307  62.850  1.00  0.00     0.030 A 
HETATM   30  C   UNL     1       5.967  32.934  64.095  1.00  0.00     0.010 A 
HETATM   31  C   UNL     1       5.424  34.220  64.202  1.00  0.00    -0.054 A 
HETATM   32  C   UNL     1       5.010  34.862  63.028  1.00  0.00     0.010 A 
HETATM   33  C   UNL     1       5.129  34.228  61.785  1.00  0.00     0.030 A 
BRANCH  31  34
HETATM   34  C   UNL     1       5.233  34.902  65.546  1.00  0.00     0.014 C 
HETATM   35  C   UNL     1       4.549  36.259  65.343  1.00  0.00     0.015 C 
BRANCH  34  36
HETATM   36  C   UNL     1       4.450  34.062  66.576  1.00  0.00     0.004 C 
HETATM   37  C   UNL     1       5.020  34.161  67.985  1.00  0.00     0.006 C 
ENDBRANCH  34  36
ENDBRANCH  31  34
ENDBRANCH  25  28
ENDBRANCH   1  24
TORSDOF 8
ENDMDL
MODEL 4
REMARK VINA RESULT:      -9.4      7.155     12.861
REMARK  8 active torsions:
REMARK  status: ('A' for Active; 'I' for Inactive)
REMARK    1  A    between atoms: C_2  and  C_3 
REMARK    2  A    between atoms: C_3  and  C_4 
REMARK    3  A    between atoms: C_7  and  N_8 
REMARK       I    between atoms: N_8  and  C_9 
REMARK    4  A    between atoms: C_9  and  C_10 
REMARK    5  A    between atoms: C_13  and  N_14 
REMARK       I    between atoms: N_14  and  C_15 
REMARK    6  A    between atoms: C_15  and  C_16 
REMARK    7  A    between atoms: C_16  and  C_17 
REMARK    8  A    between atoms: C_19  and  N_20 
ROOT
HETATM    1  C   UNL     1       4.632  29.199  55.572  1.00  0.00     0.032 A 
HETATM    2  C   UNL     1       4.028  29.857  56.650  1.00  0.00     0.019 A 
HETATM    3  C   UNL     1       3.078  30.866  56.422  1.00  0.00     0.030 A 
HETATM    4  C   UNL     1       2.737  31.240  55.123  1.00  0.00     0.034 A 
HETATM    5  C   UNL     1       3.369  30.606  54.048  1.00  0.00     0.030 A 
HETATM    6  C   UNL     1       4.308  29.595  54.269  1.00  0.00     0.019 A 
ENDROOT
BRANCH   4   7
HETATM    7  N   UNL     1       1.781  32.222  54.799  1.00  0.00    -0.327 N 
HETATM    8  C   UNL     1       1.881  33.590  54.954  1.00  0.00     0.223 C 
HETATM    9  O   UNL     1       2.854  34.207  55.372  1.00  0.00    -0.273 OA
HETATM   10  H   UNL     1       0.931  31.866  54.359  1.00  0.00     0.169 HD
BRANCH   8  11
HETATM   11  C   UNL     1       0.629  34.336  54.525  1.00  0.00     0.128 C 
BRANCH  11  12
HETATM   12  C   UNL     1      -0.564  33.395  54.536  1.00  0.00     0.158 C 
HETATM   13  S   UNL     1      -1.596  33.590  53.050  1.00  0.00    -0.077 SA
HETATM   14  C   UNL     1      -3.052  33.465  54.028  1.00  0.00     0.168 C 
HETATM   15  N   UNL     1      -2.865  33.545  55.306  1.00  0.00    -0.189 NA
HETATM   16  C   UNL     1      -1.549  33.735  55.645  1.00  0.00     0.260 C 
HETATM   17  O   UNL     1      -1.182  34.123  56.751  1.00  0.00    -0.270 OA
BRANCH  14  18
HETATM   18  N   UNL     1      -4.267  33.239  53.422  1.00  0.00    -0.360 N 
HETATM   19  C   UNL     1      -4.588  32.019  52.675  1.00  0.00     0.125 C 
HETATM   20  C   UNL     1      -6.033  31.608  52.953  1.00  0.00     0.020 C 
HETATM   21  C   UNL     1      -7.003  32.747  52.648  1.00  0.00     0.003 C 
HETATM   22  C   UNL     1      -6.586  34.023  53.372  1.00  0.00     0.020 C 
HETATM   23  C   UNL     1      -5.128  34.379  53.080  1.00  0.00     0.125 C 
ENDBRANCH  14  18
ENDBRANCH  11  12
ENDBRANCH   8  11
ENDBRANCH   4   7
BRANCH   1  24
HETATM   24  C   UNL     1       5.610  28.079  55.730  1.00  0.00     0.256 C 
HETATM   25  N   UNL     1       5.129  26.811  55.458  1.00  0.00    -0.323 N 
HETATM   26  H   UNL     1       4.153  26.716  55.221  1.00  0.00     0.169 HD
HETATM   27  O   UNL     1       6.760  28.367  56.048  1.00  0.00    -0.267 OA
BRANCH  25  28
HETATM   28  C   UNL     1       5.881  25.617  55.377  1.00  0.00     0.035 A 
HETATM   29  C   UNL     1       6.442  24.971  56.477  1.00  0.00     0.030 A 
HETATM   30  C   UNL     1       7.231  23.827  56.307  1.00  0.00     0.010 A 
HETATM   31  C   UNL     1       7.461  23.290  55.036  1.00  0.00    -0.054 A 
HETATM   32  C   UNL     1       6.883  23.932  53.933  1.00  0.00     0.010 A 
HETATM   33  C   UNL     1       6.105  25.084  54.102  1.00  0.00     0.030 A 
BRANCH  31  34
HETATM   34  C   UNL     1       8.348  22.075  54.825  1.00  0.00     0.014 C 
HETATM   35  C   UNL     1       7.716  20.851  55.499  1.00  0.00     0.015 C 
BRANCH  34  36
HETATM   36  C   UNL     1       8.657  21.766  53.345  1.00  0.00     0.004 C 
HETATM   37  C   UNL     1       8.319  20.334  52.950  1.00  0.00     0.006 C 
ENDBRANCH  34  36
ENDBRANCH  31  34
ENDBRANCH  25  28
ENDBRANCH   1  24
TORSDOF 8
ENDMDL
MODEL 5
REMARK VINA RESULT:      -9.3      4.353     13.460
REMARK  8 active torsions:
REMARK  status: ('A' for Active; 'I' for Inactive)
REMARK    1  A    between atoms: C_2  and  C_3 
REMARK    2  A    between atoms: C_3  and  C_4 
REMARK    3  A    between atoms: C_7  and  N_8 
REMARK       I    between atoms: N_8  and  C_9 
REMARK    4  A    between atoms: C_9  and  C_10 
REMARK    5  A    between atoms: C_13  and  N_14 
REMARK       I    between atoms: N_14  and  C_15 
REMARK    6  A    between atoms: C_15  and  C_16 
REMARK    7  A    between atoms: C_16  and  C_17 
REMARK    8  A    between atoms: C_19  and  N_20 
ROOT
HETATM    1  C   UNL     1       8.091  30.502  59.419  1.00  0.00     0.032 A 
HETATM    2  C   UNL     1       8.836  30.394  60.600  1.00  0.00     0.019 A 
HETATM    3  C   UNL     1       8.504  31.171  61.721  1.00  0.00     0.030 A 
HETATM    4  C   UNL     1       7.440  32.072  61.670  1.00  0.00     0.034 A 
HETATM    5  C   UNL     1       6.721  32.204  60.478  1.00  0.00     0.030 A 
HETATM    6  C   UNL     1       7.042  31.427  59.362  1.00  0.00     0.019 A 
ENDROOT
BRANCH   4   7
HETATM    7  N   UNL     1       7.021  32.873  62.750  1.00  0.00    -0.327 N 
HETATM    8  C   UNL     1       5.915  32.704  63.557  1.00  0.00     0.223 C 
HETATM    9  O   UNL     1       5.105  31.784  63.500  1.00  0.00    -0.273 OA
HETATM   10  H   UNL     1       7.646  33.649  62.977  1.00  0.00     0.169 HD
BRANCH   8  11
HETATM   11  C   UNL     1       5.762  33.793  64.604  1.00  0.00     0.128 C 
BRANCH  11  12
HETATM   12  C   UNL     1       4.995  34.968  64.022  1.00  0.00     0.158 C 
HETATM   13  S   UNL     1       5.893  35.752  62.648  1.00  0.00    -0.077 SA
HETATM   14  C   UNL     1       5.448  37.344  63.246  1.00  0.00     0.168 C 
HETATM   15  N   UNL     1       4.943  37.362  64.438  1.00  0.00    -0.189 NA
HETATM   16  C   UNL     1       4.876  36.117  65.011  1.00  0.00     0.260 C 
HETATM   17  O   UNL     1       4.710  35.932  66.214  1.00  0.00    -0.270 OA
BRANCH  14  18
HETATM   18  N   UNL     1       5.593  38.446  62.435  1.00  0.00    -0.360 N 
HETATM   19  C   UNL     1       4.476  39.295  62.009  1.00  0.00     0.125 C 
HETATM   20  C   UNL     1       4.912  40.759  62.005  1.00  0.00     0.020 C 
HETATM   21  C   UNL     1       6.158  40.966  61.148  1.00  0.00     0.003 C 
HETATM   22  C   UNL     1       7.268  40.004  61.562  1.00  0.00     0.020 C 
HETATM   23  C   UNL     1       6.776  38.557  61.572  1.00  0.00     0.125 C 
ENDBRANCH  14  18
ENDBRANCH  11  12
ENDBRANCH   8  11
ENDBRANCH   4   7
BRANCH   1  24
HETATM   24  C   UNL     1       8.347  29.672  58.201  1.00  0.00     0.256 C 
HETATM   25  N   UNL     1       7.577  28.531  58.072  1.00  0.00    -0.323 N 
HETATM   26  H   UNL     1       6.936  28.306  58.818  1.00  0.00     0.169 HD
HETATM   27  O   UNL     1       9.182  30.079  57.399  1.00  0.00    -0.267 OA
BRANCH  25  28
HETATM   28  C   UNL     1       7.510  27.674  56.951  1.00  0.00     0.035 A 
HETATM   29  C   UNL     1       7.094  28.077  55.683  1.00  0.00     0.030 A 
HETATM   30  C   UNL     1       6.991  27.153  54.637  1.00  0.00     0.010 A 
HETATM   31  C   UNL     1       7.322  25.807  54.828  1.00  0.00    -0.054 A 
HETATM   32  C   UNL     1       7.756  25.406  56.098  1.00  0.00     0.010 A 
HETATM   33  C   UNL     1       7.845  26.329  57.148  1.00  0.00     0.030 A 
BRANCH  31  34
HETATM   34  C   UNL     1       7.177  24.778  53.719  1.00  0.00     0.014 C 
HETATM   35  C   UNL     1       8.025  25.198  52.512  1.00  0.00     0.015 C 
BRANCH  34  36
HETATM   36  C   UNL     1       7.532  23.338  54.142  1.00  0.00     0.004 C 
HETATM   37  C   UNL     1       7.988  22.468  52.978  1.00  0.00     0.006 C 
ENDBRANCH  34  36
ENDBRANCH  31  34
ENDBRANCH  25  28
ENDBRANCH   1  24
TORSDOF 8
ENDMDL
MODEL 6
REMARK VINA RESULT:      -9.2      3.781     13.640
REMARK  8 active torsions:
REMARK  status: ('A' for Active; 'I' for Inactive)
REMARK    1  A    between atoms: C_2  and  C_3 
REMARK    2  A    between atoms: C_3  and  C_4 
REMARK    3  A    between atoms: C_7  and  N_8 
REMARK       I    between atoms: N_8  and  C_9 
REMARK    4  A    between atoms: C_9  and  C_10 
REMARK    5  A    between atoms: C_13  and  N_14 
REMARK       I    between atoms: N_14  and  C_15 
REMARK    6  A    between atoms: C_15  and  C_16 
REMARK    7  A    between atoms: C_16  and  C_17 
REMARK    8  A    between atoms: C_19  and  N_20 
ROOT
HETATM    1  C   UNL     1       5.648  31.412  58.785  1.00  0.00     0.032 A 
HETATM    2  C   UNL     1       4.403  31.950  59.133  1.00  0.00     0.019 A 
HETATM    3  C   UNL     1       4.262  32.710  60.304  1.00  0.00     0.030 A 
HETATM    4  C   UNL     1       5.352  32.926  61.147  1.00  0.00     0.034 A 
HETATM    5  C   UNL     1       6.586  32.356  60.816  1.00  0.00     0.030 A 
HETATM    6  C   UNL     1       6.734  31.606  59.647  1.00  0.00     0.019 A 
ENDROOT
BRANCH   4   7
HETATM    7  N   UNL     1       5.309  33.692  62.327  1.00  0.00    -0.327 N 
HETATM    8  C   UNL     1       4.322  33.716  63.292  1.00  0.00     0.223 C 
HETATM    9  O   UNL     1       3.305  33.032  63.311  1.00  0.00    -0.273 OA
HETATM   10  H   UNL     1       6.138  34.266  62.498  1.00  0.00     0.169 HD
BRANCH   8  11
HETATM   11  C   UNL     1       4.604  34.699  64.415  1.00  0.00     0.128 C 
BRANCH  11  12
HETATM   12  C   UNL     1       5.155  33.961  65.623  1.00  0.00     0.158 C 
HETATM   13  S   UNL     1       4.811  34.846  67.176  1.00  0.00    -0.077 SA
HETATM   14  C   UNL     1       6.430  34.483  67.758  1.00  0.00     0.168 C 
HETATM   15  N   UNL     1       7.243  34.018  66.866  1.00  0.00    -0.189 NA
HETATM   16  C   UNL     1       6.676  33.919  65.621  1.00  0.00     0.260 C 
HETATM   17  O   UNL     1       7.326  33.785  64.587  1.00  0.00    -0.270 OA
BRANCH  14  18
HETATM   18  N   UNL     1       6.730  34.646  69.091  1.00  0.00    -0.360 N 
HETATM   19  C   UNL     1       5.719  34.837  70.136  1.00  0.00     0.125 C 
HETATM   20  C   UNL     1       6.128  34.078  71.396  1.00  0.00     0.020 C 
HETATM   21  C   UNL     1       7.524  34.483  71.861  1.00  0.00     0.003 C 
HETATM   22  C   UNL     1       8.532  34.356  70.723  1.00  0.00     0.020 C 
HETATM   23  C   UNL     1       8.068  35.113  69.479  1.00  0.00     0.125 C 
ENDBRANCH  14  18
ENDBRANCH  11  12
ENDBRANCH   8  11
ENDBRANCH   4   7
BRANCH   1  24
HETATM   24  C   UNL     1       5.893  30.637  57.529  1.00  0.00     0.256 C 
HETATM   25  N   UNL     1       6.355  29.344  57.695  1.00  0.00    -0.323 N 
HETATM   26  H   UNL     1       6.539  29.024  58.633  1.00  0.00     0.169 HD
HETATM   27  O   UNL     1       5.636  31.186  56.462  1.00  0.00    -0.267 OA
BRANCH  25  28
HETATM   28  C   UNL     1       6.510  28.363  56.689  1.00  0.00     0.035 A 
HETATM   29  C   UNL     1       7.512  28.389  55.721  1.00  0.00     0.030 A 
HETATM   30  C   UNL     1       7.559  27.415  54.716  1.00  0.00     0.010 A 
HETATM   31  C   UNL     1       6.618  26.381  54.668  1.00  0.00    -0.054 A 
HETATM   32  C   UNL     1       5.621  26.348  55.652  1.00  0.00     0.010 A 
HETATM   33  C   UNL     1       5.566  27.329  56.648  1.00  0.00     0.030 A 
BRANCH  31  34
HETATM   34  C   UNL     1       6.625  25.338  53.562  1.00  0.00     0.014 C 
HETATM   35  C   UNL     1       7.788  25.614  52.601  1.00  0.00     0.015 C 
BRANCH  34  36
HETATM   36  C   UNL     1       6.688  23.882  54.067  1.00  0.00     0.004 C 
HETATM   37  C   UNL     1       7.985  23.175  53.696  1.00  0.00     0.006 C 
ENDBRANCH  34  36
ENDBRANCH  31  34
ENDBRANCH  25  28
ENDBRANCH   1  24
TORSDOF 8
ENDMDL
MODEL 7
REMARK VINA RESULT:      -8.7      2.836      4.598
REMARK  8 active torsions:
REMARK  status: ('A' for Active; 'I' for Inactive)
REMARK    1  A    between atoms: C_2  and  C_3 
REMARK    2  A    between atoms: C_3  and  C_4 
REMARK    3  A    between atoms: C_7  and  N_8 
REMARK       I    between atoms: N_8  and  C_9 
REMARK    4  A    between atoms: C_9  and  C_10 
REMARK    5  A    between atoms: C_13  and  N_14 
REMARK       I    between atoms: N_14  and  C_15 
REMARK    6  A    between atoms: C_15  and  C_16 
REMARK    7  A    between atoms: C_16  and  C_17 
REMARK    8  A    between atoms: C_19  and  N_20 
ROOT
HETATM    1  C   UNL     1       5.886  30.823  58.100  1.00  0.00     0.032 A 
HETATM    2  C   UNL     1       7.049  30.045  58.153  1.00  0.00     0.019 A 
HETATM    3  C   UNL     1       7.145  28.862  57.402  1.00  0.00     0.030 A 
HETATM    4  C   UNL     1       6.080  28.436  56.609  1.00  0.00     0.034 A 
HETATM    5  C   UNL     1       4.906  29.195  56.587  1.00  0.00     0.030 A 
HETATM    6  C   UNL     1       4.809  30.378  57.325  1.00  0.00     0.019 A 
ENDROOT
BRANCH   4   7
HETATM    7  N   UNL     1       6.095  27.278  55.808  1.00  0.00    -0.327 N 
HETATM    8  C   UNL     1       5.565  26.037  56.094  1.00  0.00     0.223 C 
HETATM    9  O   UNL     1       4.940  25.726  57.103  1.00  0.00    -0.273 OA
HETATM   10  H   UNL     1       6.519  27.399  54.886  1.00  0.00     0.169 HD
BRANCH   8  11
HETATM   11  C   UNL     1       5.805  25.013  54.998  1.00  0.00     0.128 C 
BRANCH  11  12
HETATM   12  C   UNL     1       6.323  25.704  53.748  1.00  0.00     0.158 C 
HETATM   13  S   UNL     1       5.047  26.737  52.964  1.00  0.00    -0.077 SA
HETATM   14  C   UNL     1       5.553  26.180  51.375  1.00  0.00     0.168 C 
HETATM   15  N   UNL     1       6.359  25.168  51.378  1.00  0.00    -0.189 NA
HETATM   16  C   UNL     1       6.644  24.712  52.640  1.00  0.00     0.260 C 
HETATM   17  O   UNL     1       7.137  23.611  52.869  1.00  0.00    -0.270 OA
BRANCH  14  18
HETATM   18  N   UNL     1       5.136  26.853  50.249  1.00  0.00    -0.360 N 
HETATM   19  C   UNL     1       5.051  28.314  50.159  1.00  0.00     0.125 C 
HETATM   20  C   UNL     1       5.504  28.774  48.775  1.00  0.00     0.020 C 
HETATM   21  C   UNL     1       4.710  28.078  47.671  1.00  0.00     0.003 C 
HETATM   22  C   UNL     1       4.747  26.563  47.849  1.00  0.00     0.020 C 
HETATM   23  C   UNL     1       4.308  26.156  49.256  1.00  0.00     0.125 C 
ENDBRANCH  14  18
ENDBRANCH  11  12
ENDBRANCH   8  11
ENDBRANCH   4   7
BRANCH   1  24
HETATM   24  C   UNL     1       5.725  32.121  58.825  1.00  0.00     0.256 C 
HETATM   25  N   UNL     1       5.432  32.030  60.174  1.00  0.00    -0.323 N 
HETATM   26  H   UNL     1       5.299  31.111  60.568  1.00  0.00     0.169 HD
HETATM   27  O   UNL     1       5.899  33.155  58.188  1.00  0.00    -0.267 OA
BRANCH  25  28
HETATM   28  C   UNL     1       5.390  33.091  61.106  1.00  0.00     0.035 A 
HETATM   29  C   UNL     1       4.436  34.107  61.090  1.00  0.00     0.030 A 
HETATM   30  C   UNL     1       4.501  35.162  62.010  1.00  0.00     0.010 A 
HETATM   31  C   UNL     1       5.508  35.213  62.980  1.00  0.00    -0.054 A 
HETATM   32  C   UNL     1       6.456  34.182  63.004  1.00  0.00     0.010 A 
HETATM   33  C   UNL     1       6.399  33.135  62.076  1.00  0.00     0.030 A 
BRANCH  31  34
HETATM   34  C   UNL     1       5.622  36.369  63.959  1.00  0.00     0.014 C 
HETATM   35  C   UNL     1       5.893  37.670  63.193  1.00  0.00     0.015 C 
BRANCH  34  36
HETATM   36  C   UNL     1       4.396  36.541  64.880  1.00  0.00     0.004 C 
HETATM   37  C   UNL     1       4.127  35.321  65.752  1.00  0.00     0.006 C 
ENDBRANCH  34  36
ENDBRANCH  31  34
ENDBRANCH  25  28
ENDBRANCH   1  24
TORSDOF 8
ENDMDL
MODEL 8
REMARK VINA RESULT:      -8.7      3.131     12.415
REMARK  8 active torsions:
REMARK  status: ('A' for Active; 'I' for Inactive)
REMARK    1  A    between atoms: C_2  and  C_3 
REMARK    2  A    between atoms: C_3  and  C_4 
REMARK    3  A    between atoms: C_7  and  N_8 
REMARK       I    between atoms: N_8  and  C_9 
REMARK    4  A    between atoms: C_9  and  C_10 
REMARK    5  A    between atoms: C_13  and  N_14 
REMARK       I    between atoms: N_14  and  C_15 
REMARK    6  A    between atoms: C_15  and  C_16 
REMARK    7  A    between atoms: C_16  and  C_17 
REMARK    8  A    between atoms: C_19  and  N_20 
ROOT
HETATM    1  C   UNL     1       5.095  28.924  55.603  1.00  0.00     0.032 A 
HETATM    2  C   UNL     1       4.767  30.069  54.865  1.00  0.00     0.019 A 
HETATM    3  C   UNL     1       4.380  31.248  55.521  1.00  0.00     0.030 A 
HETATM    4  C   UNL     1       4.300  31.293  56.913  1.00  0.00     0.034 A 
HETATM    5  C   UNL     1       4.592  30.137  57.645  1.00  0.00     0.030 A 
HETATM    6  C   UNL     1       4.986  28.964  56.997  1.00  0.00     0.019 A 
ENDROOT
BRANCH   4   7
HETATM    7  N   UNL     1       3.944  32.435  57.656  1.00  0.00    -0.327 N 
HETATM    8  C   UNL     1       2.969  33.368  57.368  1.00  0.00     0.223 C 
HETATM    9  O   UNL     1       2.197  33.345  56.416  1.00  0.00    -0.273 OA
HETATM   10  H   UNL     1       4.452  32.552  58.534  1.00  0.00     0.169 HD
BRANCH   8  11
HETATM   11  C   UNL     1       2.894  34.492  58.387  1.00  0.00     0.128 C 
BRANCH  11  12
HETATM   12  C   UNL     1       4.185  34.556  59.185  1.00  0.00     0.158 C 
HETATM   13  S   UNL     1       4.267  33.252  60.451  1.00  0.00    -0.077 SA
HETATM   14  C   UNL     1       4.941  34.394  61.604  1.00  0.00     0.168 C 
HETATM   15  N   UNL     1       4.879  35.637  61.248  1.00  0.00    -0.189 NA
HETATM   16  C   UNL     1       4.270  35.817  60.031  1.00  0.00     0.260 C 
HETATM   17  O   UNL     1       3.848  36.901  59.638  1.00  0.00    -0.270 OA
BRANCH  14  18
HETATM   18  N   UNL     1       5.533  33.934  62.758  1.00  0.00    -0.360 N 
HETATM   19  C   UNL     1       6.390  32.745  62.814  1.00  0.00     0.125 C 
HETATM   20  C   UNL     1       7.555  32.993  63.770  1.00  0.00     0.020 C 
HETATM   21  C   UNL     1       7.060  33.416  65.151  1.00  0.00     0.003 C 
HETATM   22  C   UNL     1       6.102  34.598  65.045  1.00  0.00     0.020 C 
HETATM   23  C   UNL     1       4.968  34.310  64.061  1.00  0.00     0.125 C 
ENDBRANCH  14  18
ENDBRANCH  11  12
ENDBRANCH   8  11
ENDBRANCH   4   7
BRANCH   1  24
HETATM   24  C   UNL     1       5.567  27.647  54.983  1.00  0.00     0.256 C 
HETATM   25  N   UNL     1       6.505  26.933  55.707  1.00  0.00    -0.323 N 
HETATM   26  H   UNL     1       6.842  27.334  56.569  1.00  0.00     0.169 HD
HETATM   27  O   UNL     1       5.068  27.315  53.913  1.00  0.00    -0.267 OA
BRANCH  25  28
HETATM   28  C   UNL     1       6.986  25.635  55.424  1.00  0.00     0.035 A 
HETATM   29  C   UNL     1       7.524  25.252  54.196  1.00  0.00     0.030 A 
HETATM   30  C   UNL     1       7.919  23.927  53.971  1.00  0.00     0.010 A 
HETATM   31  C   UNL     1       7.804  22.960  54.976  1.00  0.00    -0.054 A 
HETATM   32  C   UNL     1       7.278  23.351  56.214  1.00  0.00     0.010 A 
HETATM   33  C   UNL     1       6.871  24.672  56.433  1.00  0.00     0.030 A 
BRANCH  31  34
HETATM   34  C   UNL     1       8.186  21.508  54.740  1.00  0.00     0.014 C 
HETATM   35  C   UNL     1       7.701  20.649  55.914  1.00  0.00     0.015 C 
BRANCH  34  36
HETATM   36  C   UNL     1       7.669  20.926  53.408  1.00  0.00     0.004 C 
HETATM   37  C   UNL     1       8.767  20.288  52.567  1.00  0.00     0.006 C 
ENDBRANCH  34  36
ENDBRANCH  31  34
ENDBRANCH  25  28
ENDBRANCH   1  24
TORSDOF 8
ENDMDL
MODEL 9
REMARK VINA RESULT:      -8.6      4.107     12.914
REMARK  8 active torsions:
REMARK  status: ('A' for Active; 'I' for Inactive)
REMARK    1  A    between atoms: C_2  and  C_3 
REMARK    2  A    between atoms: C_3  and  C_4 
REMARK    3  A    between atoms: C_7  and  N_8 
REMARK       I    between atoms: N_8  and  C_9 
REMARK    4  A    between atoms: C_9  and  C_10 
REMARK    5  A    between atoms: C_13  and  N_14 
REMARK       I    between atoms: N_14  and  C_15 
REMARK    6  A    between atoms: C_15  and  C_16 
REMARK    7  A    between atoms: C_16  and  C_17 
REMARK    8  A    between atoms: C_19  and  N_20 
ROOT
HETATM    1  C   UNL     1       6.740  29.214  56.766  1.00  0.00     0.032 A 
HETATM    2  C   UNL     1       6.974  29.953  57.932  1.00  0.00     0.019 A 
HETATM    3  C   UNL     1       6.347  31.195  58.122  1.00  0.00     0.030 A 
HETATM    4  C   UNL     1       5.497  31.718  57.147  1.00  0.00     0.034 A 
HETATM    5  C   UNL     1       5.294  30.994  55.967  1.00  0.00     0.030 A 
HETATM    6  C   UNL     1       5.909  29.754  55.778  1.00  0.00     0.019 A 
ENDROOT
BRANCH   4   7
HETATM    7  N   UNL     1       4.809  32.941  57.261  1.00  0.00    -0.327 N 
HETATM    8  C   UNL     1       3.457  33.175  57.109  1.00  0.00     0.223 C 
HETATM    9  O   UNL     1       2.594  32.335  56.880  1.00  0.00    -0.273 OA
HETATM   10  H   UNL     1       5.389  33.737  57.532  1.00  0.00     0.169 HD
BRANCH   8  11
HETATM   11  C   UNL     1       3.078  34.637  57.271  1.00  0.00     0.128 C 
BRANCH  11  12
HETATM   12  C   UNL     1       4.150  35.365  58.064  1.00  0.00     0.158 C 
HETATM   13  S   UNL     1       3.895  35.203  59.859  1.00  0.00    -0.077 SA
HETATM   14  C   UNL     1       4.318  36.895  60.085  1.00  0.00     0.168 C 
HETATM   15  N   UNL     1       4.378  37.597  59.000  1.00  0.00    -0.189 NA
HETATM   16  C   UNL     1       4.075  36.872  57.874  1.00  0.00     0.260 C 
HETATM   17  O   UNL     1       3.789  37.383  56.795  1.00  0.00    -0.270 OA
BRANCH  14  18
HETATM   18  N   UNL     1       4.611  37.365  61.345  1.00  0.00    -0.360 N 
HETATM   19  C   UNL     1       4.399  36.590  62.572  1.00  0.00     0.125 C 
HETATM   20  C   UNL     1       5.550  36.838  63.544  1.00  0.00     0.020 C 
HETATM   21  C   UNL     1       5.731  38.327  63.824  1.00  0.00     0.003 C 
HETATM   22  C   UNL     1       5.859  39.112  62.522  1.00  0.00     0.020 C 
HETATM   23  C   UNL     1       4.697  38.813  61.574  1.00  0.00     0.125 C 
ENDBRANCH  14  18
ENDBRANCH  11  12
ENDBRANCH   8  11
ENDBRANCH   4   7
BRANCH   1  24
HETATM   24  C   UNL     1       7.326  27.861  56.512  1.00  0.00     0.256 C 
HETATM   25  N   UNL     1       6.479  26.933  55.935  1.00  0.00    -0.323 N 
HETATM   26  H   UNL     1       5.522  27.205  55.768  1.00  0.00     0.169 HD
HETATM   27  O   UNL     1       8.507  27.690  56.795  1.00  0.00    -0.267 OA
BRANCH  25  28
HETATM   28  C   UNL     1       6.827  25.651  55.452  1.00  0.00     0.035 A 
HETATM   29  C   UNL     1       6.928  25.327  54.100  1.00  0.00     0.030 A 
HETATM   30  C   UNL     1       7.213  24.016  53.699  1.00  0.00     0.010 A 
HETATM   31  C   UNL     1       7.424  23.003  54.641  1.00  0.00    -0.054 A 
HETATM   32  C   UNL     1       7.338  23.334  55.999  1.00  0.00     0.010 A 
HETATM   33  C   UNL     1       7.039  24.642  56.399  1.00  0.00     0.030 A 
BRANCH  31  34
HETATM   34  C   UNL     1       7.692  21.565  54.228  1.00  0.00     0.014 C 
HETATM   35  C   UNL     1       8.960  21.504  53.367  1.00  0.00     0.015 C 
BRANCH  34  36
HETATM   36  C   UNL     1       7.804  20.579  55.408  1.00  0.00     0.004 C 
HETATM   37  C   UNL     1       9.232  20.400  55.906  1.00  0.00     0.006 C 
ENDBRANCH  34  36
ENDBRANCH  31  34
ENDBRANCH  25  28
ENDBRANCH   1  24
TORSDOF 8
ENDMDL
MODEL 10
REMARK VINA RESULT:      -8.3      7.542     13.934
REMARK  8 active torsions:
REMARK  status: ('A' for Active; 'I' for Inactive)
REMARK    1  A    between atoms: C_2  and  C_3 
REMARK    2  A    between atoms: C_3  and  C_4 
REMARK    3  A    between atoms: C_7  and  N_8 
REMARK       I    between atoms: N_8  and  C_9 
REMARK    4  A    between atoms: C_9  and  C_10 
REMARK    5  A    between atoms: C_13  and  N_14 
REMARK       I    between atoms: N_14  and  C_15 
REMARK    6  A    between atoms: C_15  and  C_16 
REMARK    7  A    between atoms: C_16  and  C_17 
REMARK    8  A    between atoms: C_19  and  N_20 
ROOT
HETATM    1  C   UNL     1       3.978  29.481  54.148  1.00  0.00     0.032 A 
HETATM    2  C   UNL     1       3.847  29.814  55.502  1.00  0.00     0.019 A 
HETATM    3  C   UNL     1       3.213  31.008  55.880  1.00  0.00     0.030 A 
HETATM    4  C   UNL     1       2.721  31.887  54.916  1.00  0.00     0.034 A 
HETATM    5  C   UNL     1       2.886  31.569  53.563  1.00  0.00     0.030 A 
HETATM    6  C   UNL     1       3.509  30.378  53.182  1.00  0.00     0.019 A 
ENDROOT
BRANCH   4   7
HETATM    7  N   UNL     1       2.052  33.093  55.202  1.00  0.00    -0.327 N 
HETATM    8  C   UNL     1       2.528  34.381  55.072  1.00  0.00     0.223 C 
HETATM    9  O   UNL     1       3.626  34.713  54.639  1.00  0.00    -0.273 OA
HETATM   10  H   UNL     1       1.082  32.985  55.503  1.00  0.00     0.169 HD
BRANCH   8  11
HETATM   11  C   UNL     1       1.529  35.438  55.512  1.00  0.00     0.128 C 
BRANCH  11  12
HETATM   12  C   UNL     1       0.277  35.357  54.655  1.00  0.00     0.158 C 
HETATM   13  S   UNL     1      -0.287  37.002  54.119  1.00  0.00    -0.077 SA
HETATM   14  C   UNL     1      -1.957  36.545  54.426  1.00  0.00     0.168 C 
HETATM   15  N   UNL     1      -2.112  35.445  55.090  1.00  0.00    -0.189 NA
HETATM   16  C   UNL     1      -0.923  34.859  55.445  1.00  0.00     0.260 C 
HETATM   17  O   UNL     1      -0.826  33.990  56.308  1.00  0.00    -0.270 OA
BRANCH  14  18
HETATM   18  N   UNL     1      -2.981  37.311  53.918  1.00  0.00    -0.360 N 
HETATM   19  C   UNL     1      -3.720  36.973  52.697  1.00  0.00     0.125 C 
HETATM   20  C   UNL     1      -5.199  37.310  52.880  1.00  0.00     0.020 C 
HETATM   21  C   UNL     1      -5.391  38.767  53.289  1.00  0.00     0.003 C 
HETATM   22  C   UNL     1      -4.538  39.105  54.509  1.00  0.00     0.020 C 
HETATM   23  C   UNL     1      -3.073  38.730  54.286  1.00  0.00     0.125 C 
ENDBRANCH  14  18
ENDBRANCH  11  12
ENDBRANCH   8  11
ENDBRANCH   4   7
BRANCH   1  24
HETATM   24  C   UNL     1       4.591  28.205  53.665  1.00  0.00     0.256 C 
HETATM   25  N   UNL     1       5.628  27.702  54.431  1.00  0.00    -0.323 N 
HETATM   26  H   UNL     1       5.933  28.242  55.227  1.00  0.00     0.169 HD
HETATM   27  O   UNL     1       4.112  27.687  52.661  1.00  0.00    -0.267 OA
BRANCH  25  28
HETATM   28  C   UNL     1       6.260  26.447  54.284  1.00  0.00     0.035 A 
HETATM   29  C   UNL     1       6.071  25.371  55.149  1.00  0.00     0.030 A 
HETATM   30  C   UNL     1       6.786  24.180  54.975  1.00  0.00     0.010 A 
HETATM   31  C   UNL     1       7.691  24.029  53.919  1.00  0.00    -0.054 A 
HETATM   32  C   UNL     1       7.868  25.106  53.041  1.00  0.00     0.010 A 
HETATM   33  C   UNL     1       7.163  26.302  53.224  1.00  0.00     0.030 A 
BRANCH  31  34
HETATM   34  C   UNL     1       8.509  22.761  53.737  1.00  0.00     0.014 C 
HETATM   35  C   UNL     1       9.198  22.397  55.057  1.00  0.00     0.015 C 
BRANCH  34  36
HETATM   36  C   UNL     1       7.699  21.558  53.211  1.00  0.00     0.004 C 
HETATM   37  C   UNL     1       8.575  20.380  52.803  1.00  0.00     0.006 C 
ENDBRANCH  34  36
ENDBRANCH  31  34
ENDBRANCH  25  28
ENDBRANCH   1  24
TORSDOF 8
ENDMDL
