MODEL 1
REMARK VINA RESULT:     -10.8      0.000      0.000
REMARK  6 active torsions:
REMARK  status: ('A' for Active; 'I' for Inactive)
REMARK    1  A    between atoms: C_7  and  C_8 
REMARK    2  A    between atoms: C_8  and  O_9 
REMARK    3  A    between atoms: O_9  and  C_10 
REMARK    4  A    between atoms: C_10  and  C_11 
REMARK       I    between atoms: C_11  and  N_12 
REMARK    5  A    between atoms: N_12  and  N_13 
REMARK    6  A    between atoms: C_17  and  C_18 
ROOT
HETATM    1  C   UNL     1       8.345  29.033  57.905  1.00  0.00     0.261 C 
HETATM    2  N   UNL     1       8.878  28.020  57.133  1.00  0.00    -0.255 N 
HETATM    3  O   UNL     1       7.150  29.126  58.184  1.00  0.00    -0.269 OA
HETATM    4  H   UNL     1       9.800  28.148  56.712  1.00  0.00     0.191 HD
ENDROOT
BRANCH   1   5
HETATM    5  C   UNL     1       9.390  30.020  58.431  1.00  0.00     0.283 C 
BRANCH   5   6
HETATM    6  O   UNL     1       9.154  30.502  59.755  1.00  0.00    -0.308 OA
BRANCH   6   7
HETATM    7  C   UNL     1       9.074  31.849  59.880  1.00  0.00     0.293 C 
HETATM    8  O   UNL     1       9.616  32.652  59.133  1.00  0.00    -0.259 OA
BRANCH   7   9
HETATM    9  C   UNL     1       8.229  32.240  61.039  1.00  0.00     0.040 A 
HETATM   10  C   UNL     1       8.751  32.049  62.324  1.00  0.00     0.020 A 
HETATM   11  C   UNL     1       8.018  32.393  63.464  1.00  0.00     0.031 A 
HETATM   12  C   UNL     1       6.742  32.934  63.271  1.00  0.00     0.043 A 
HETATM   13  C   UNL     1       6.184  33.134  62.010  1.00  0.00    -0.001 A 
HETATM   14  N   UNL     1       5.819  33.363  64.195  1.00  0.00    -0.359 N 
HETATM   15  C   UNL     1       4.879  33.694  62.202  1.00  0.00    -0.027 A 
HETATM   16  C   UNL     1       6.943  32.783  60.873  1.00  0.00     0.032 A 
HETATM   17  C   UNL     1       3.909  34.074  61.139  1.00  0.00     0.051 C 
HETATM   18  C   UNL     1       4.693  33.833  63.569  1.00  0.00     0.012 A 
HETATM   19  C   UNL     1       3.543  34.373  64.339  1.00  0.00     0.068 C 
HETATM   20  H   UNL     1       5.963  33.342  65.195  1.00  0.00     0.166 HD
ENDBRANCH   7   9
ENDBRANCH   6   7
ENDBRANCH   5   6
ENDBRANCH   1   5
BRANCH   2  21
HETATM   21  N   UNL     1       7.999  27.204  56.447  1.00  0.00    -0.167 N 
HETATM   22  C   UNL     1       7.468  27.511  55.225  1.00  0.00     0.345 A 
HETATM   23  O   UNL     1       7.702  28.481  54.522  1.00  0.00    -0.245 OA
HETATM   24  N   UNL     1       6.623  26.481  54.865  1.00  0.00    -0.319 N 
HETATM   25  C   UNL     1       6.687  25.362  55.795  1.00  0.00     0.141 A 
HETATM   26  H   UNL     1       6.228  26.447  53.935  1.00  0.00     0.166 HD
HETATM   27  C   UNL     1       5.321  25.105  56.437  1.00  0.00     0.055 C 
HETATM   28  C   UNL     1       7.619  25.960  56.881  1.00  0.00     0.279 A 
HETATM   29  O   UNL     1       7.971  25.403  57.915  1.00  0.00    -0.268 OA
BRANCH  25  30
HETATM   30  C   UNL     1       7.241  24.137  55.068  1.00  0.00    -0.021 A 
HETATM   31  C   UNL     1       7.474  22.911  55.715  1.00  0.00     0.010 A 
HETATM   32  C   UNL     1       8.011  21.821  55.023  1.00  0.00     0.001 A 
HETATM   33  C   UNL     1       8.329  21.934  53.672  1.00  0.00     0.000 A 
HETATM   34  C   UNL     1       8.110  23.137  53.011  1.00  0.00     0.001 A 
HETATM   35  C   UNL     1       7.574  24.228  53.700  1.00  0.00     0.010 A 
ENDBRANCH  25  30
ENDBRANCH   2  21
TORSDOF 6
ENDMDL
MODEL 2
REMARK VINA RESULT:     -10.8      0.897      1.586
REMARK  6 active torsions:
REMARK  status: ('A' for Active; 'I' for Inactive)
REMARK    1  A    between atoms: C_7  and  C_8 
REMARK    2  A    between atoms: C_8  and  O_9 
REMARK    3  A    between atoms: O_9  and  C_10 
REMARK    4  A    between atoms: C_10  and  C_11 
REMARK       I    between atoms: C_11  and  N_12 
REMARK    5  A    between atoms: N_12  and  N_13 
REMARK    6  A    between atoms: C_17  and  C_18 
ROOT
HETATM    1  C   UNL     1       8.117  29.125  57.941  1.00  0.00     0.261 C 
HETATM    2  N   UNL     1       8.789  28.156  57.222  1.00  0.00    -0.255 N 
HETATM    3  O   UNL     1       6.899  29.128  58.115  1.00  0.00    -0.269 OA
HETATM    4  H   UNL     1       9.733  28.353  56.882  1.00  0.00     0.191 HD
ENDROOT
BRANCH   1   5
HETATM    5  C   UNL     1       9.037  30.186  58.551  1.00  0.00     0.283 C 
BRANCH   5   6
HETATM    6  O   UNL     1       8.690  30.598  59.875  1.00  0.00    -0.308 OA
BRANCH   6   7
HETATM    7  C   UNL     1       8.585  31.936  60.062  1.00  0.00     0.293 C 
HETATM    8  O   UNL     1       9.328  32.769  59.561  1.00  0.00    -0.259 OA
BRANCH   7   9
HETATM    9  C   UNL     1       7.439  32.276  60.945  1.00  0.00     0.040 A 
HETATM   10  C   UNL     1       6.148  32.151  60.419  1.00  0.00     0.020 A 
HETATM   11  C   UNL     1       5.018  32.451  61.187  1.00  0.00     0.031 A 
HETATM   12  C   UNL     1       5.228  32.882  62.501  1.00  0.00     0.043 A 
HETATM   13  C   UNL     1       6.497  33.026  63.060  1.00  0.00    -0.001 A 
HETATM   14  N   UNL     1       4.317  33.231  63.469  1.00  0.00    -0.359 N 
HETATM   15  C   UNL     1       6.323  33.487  64.406  1.00  0.00    -0.027 A 
HETATM   16  C   UNL     1       7.622  32.716  62.267  1.00  0.00     0.032 A 
HETATM   17  C   UNL     1       7.399  33.783  65.391  1.00  0.00     0.051 C 
HETATM   18  C   UNL     1       4.958  33.591  64.628  1.00  0.00     0.012 A 
HETATM   19  C   UNL     1       4.203  33.998  65.840  1.00  0.00     0.068 C 
HETATM   20  H   UNL     1       3.315  33.213  63.340  1.00  0.00     0.166 HD
ENDBRANCH   7   9
ENDBRANCH   6   7
ENDBRANCH   5   6
ENDBRANCH   1   5
BRANCH   2  21
HETATM   21  N   UNL     1       8.037  27.279  56.466  1.00  0.00    -0.167 N 
HETATM   22  C   UNL     1       7.618  27.535  55.189  1.00  0.00     0.345 A 
HETATM   23  O   UNL     1       7.867  28.507  54.495  1.00  0.00    -0.245 OA
HETATM   24  N   UNL     1       6.878  26.450  54.766  1.00  0.00    -0.319 N 
HETATM   25  C   UNL     1       6.910  25.351  55.720  1.00  0.00     0.141 A 
HETATM   26  H   UNL     1       6.586  26.379  53.801  1.00  0.00     0.166 HD
HETATM   27  C   UNL     1       5.502  25.020  56.223  1.00  0.00     0.055 C 
HETATM   28  C   UNL     1       7.687  26.020  56.884  1.00  0.00     0.279 A 
HETATM   29  O   UNL     1       7.961  25.500  57.961  1.00  0.00    -0.268 OA
BRANCH  25  30
HETATM   30  C   UNL     1       7.609  24.152  55.081  1.00  0.00    -0.021 A 
HETATM   31  C   UNL     1       8.436  23.277  55.807  1.00  0.00     0.010 A 
HETATM   32  C   UNL     1       9.083  22.208  55.180  1.00  0.00     0.001 A 
HETATM   33  C   UNL     1       8.918  21.991  53.814  1.00  0.00     0.000 A 
HETATM   34  C   UNL     1       8.107  22.843  53.074  1.00  0.00     0.001 A 
HETATM   35  C   UNL     1       7.461  23.913  53.698  1.00  0.00     0.010 A 
ENDBRANCH  25  30
ENDBRANCH   2  21
TORSDOF 6
ENDMDL
MODEL 3
REMARK VINA RESULT:     -10.7      1.510      2.000
REMARK  6 active torsions:
REMARK  status: ('A' for Active; 'I' for Inactive)
REMARK    1  A    between atoms: C_7  and  C_8 
REMARK    2  A    between atoms: C_8  and  O_9 
REMARK    3  A    between atoms: O_9  and  C_10 
REMARK    4  A    between atoms: C_10  and  C_11 
REMARK       I    between atoms: C_11  and  N_12 
REMARK    5  A    between atoms: N_12  and  N_13 
REMARK    6  A    between atoms: C_17  and  C_18 
ROOT
HETATM    1  C   UNL     1       7.528  28.140  57.023  1.00  0.00     0.261 C 
HETATM    2  N   UNL     1       6.588  28.172  56.013  1.00  0.00    -0.255 N 
HETATM    3  O   UNL     1       8.548  27.453  56.990  1.00  0.00    -0.269 OA
HETATM    4  H   UNL     1       5.652  28.531  56.214  1.00  0.00     0.191 HD
ENDROOT
BRANCH   1   5
HETATM    5  C   UNL     1       7.211  29.083  58.188  1.00  0.00     0.283 C 
BRANCH   5   6
HETATM    6  O   UNL     1       7.540  30.455  57.962  1.00  0.00    -0.308 OA
BRANCH   6   7
HETATM    7  C   UNL     1       8.703  30.876  58.515  1.00  0.00     0.293 C 
HETATM    8  O   UNL     1       9.777  30.922  57.930  1.00  0.00    -0.259 OA
BRANCH   7   9
HETATM    9  C   UNL     1       8.515  31.293  59.930  1.00  0.00     0.040 A 
HETATM   10  C   UNL     1       9.314  30.681  60.903  1.00  0.00     0.020 A 
HETATM   11  C   UNL     1       9.197  31.020  62.255  1.00  0.00     0.031 A 
HETATM   12  C   UNL     1       8.251  31.992  62.597  1.00  0.00     0.043 A 
HETATM   13  C   UNL     1       7.433  32.619  61.660  1.00  0.00    -0.001 A 
HETATM   14  N   UNL     1       7.933  32.517  63.828  1.00  0.00    -0.359 N 
HETATM   15  C   UNL     1       6.596  33.541  62.369  1.00  0.00    -0.027 A 
HETATM   16  C   UNL     1       7.569  32.264  60.301  1.00  0.00     0.032 A 
HETATM   17  C   UNL     1       5.560  34.434  61.783  1.00  0.00     0.051 C 
HETATM   18  C   UNL     1       6.943  33.459  63.709  1.00  0.00     0.012 A 
HETATM   19  C   UNL     1       6.424  34.194  64.891  1.00  0.00     0.068 C 
HETATM   20  H   UNL     1       8.379  32.248  64.693  1.00  0.00     0.166 HD
ENDBRANCH   7   9
ENDBRANCH   6   7
ENDBRANCH   5   6
ENDBRANCH   1   5
BRANCH   2  21
HETATM   21  N   UNL     1       6.676  27.213  55.023  1.00  0.00    -0.167 N 
HETATM   22  C   UNL     1       7.428  27.352  53.889  1.00  0.00     0.345 A 
HETATM   23  O   UNL     1       8.168  28.273  53.583  1.00  0.00    -0.245 OA
HETATM   24  N   UNL     1       7.254  26.213  53.129  1.00  0.00    -0.319 N 
HETATM   25  C   UNL     1       6.479  25.196  53.825  1.00  0.00     0.141 A 
HETATM   26  H   UNL     1       7.825  26.056  52.310  1.00  0.00     0.166 HD
HETATM   27  C   UNL     1       5.198  24.862  53.056  1.00  0.00     0.055 C 
HETATM   28  C   UNL     1       6.078  25.981  55.101  1.00  0.00     0.279 A 
HETATM   29  O   UNL     1       5.382  25.558  56.019  1.00  0.00    -0.268 OA
BRANCH  25  30
HETATM   30  C   UNL     1       7.361  23.972  54.068  1.00  0.00    -0.021 A 
HETATM   31  C   UNL     1       8.174  23.836  55.207  1.00  0.00     0.010 A 
HETATM   32  C   UNL     1       8.992  22.714  55.379  1.00  0.00     0.001 A 
HETATM   33  C   UNL     1       9.016  21.708  54.417  1.00  0.00     0.000 A 
HETATM   34  C   UNL     1       8.223  21.822  53.281  1.00  0.00     0.001 A 
HETATM   35  C   UNL     1       7.406  22.941  53.106  1.00  0.00     0.010 A 
ENDBRANCH  25  30
ENDBRANCH   2  21
TORSDOF 6
ENDMDL
MODEL 4
REMARK VINA RESULT:     -10.2      1.340      2.181
REMARK  6 active torsions:
REMARK  status: ('A' for Active; 'I' for Inactive)
REMARK    1  A    between atoms: C_7  and  C_8 
REMARK    2  A    between atoms: C_8  and  O_9 
REMARK    3  A    between atoms: O_9  and  C_10 
REMARK    4  A    between atoms: C_10  and  C_11 
REMARK       I    between atoms: C_11  and  N_12 
REMARK    5  A    between atoms: N_12  and  N_13 
REMARK    6  A    between atoms: C_17  and  C_18 
ROOT
HETATM    1  C   UNL     1       6.799  28.952  57.245  1.00  0.00     0.261 C 
HETATM    2  N   UNL     1       7.577  27.854  56.939  1.00  0.00    -0.255 N 
HETATM    3  O   UNL     1       5.709  29.187  56.724  1.00  0.00    -0.269 OA
HETATM    4  H   UNL     1       8.569  27.862  57.187  1.00  0.00     0.191 HD
ENDROOT
BRANCH   1   5
HETATM    5  C   UNL     1       7.395  29.843  58.339  1.00  0.00     0.283 C 
BRANCH   5   6
HETATM    6  O   UNL     1       7.037  31.224  58.256  1.00  0.00    -0.308 OA
BRANCH   6   7
HETATM    7  C   UNL     1       7.614  32.033  59.177  1.00  0.00     0.293 C 
HETATM    8  O   UNL     1       8.755  32.469  59.105  1.00  0.00    -0.259 OA
BRANCH   7   9
HETATM    9  C   UNL     1       6.680  32.344  60.291  1.00  0.00     0.040 A 
HETATM   10  C   UNL     1       5.307  32.308  60.024  1.00  0.00     0.020 A 
HETATM   11  C   UNL     1       4.365  32.588  61.019  1.00  0.00     0.031 A 
HETATM   12  C   UNL     1       4.849  32.906  62.292  1.00  0.00     0.043 A 
HETATM   13  C   UNL     1       6.208  32.959  62.598  1.00  0.00    -0.001 A 
HETATM   14  N   UNL     1       4.163  33.211  63.444  1.00  0.00    -0.359 N 
HETATM   15  C   UNL     1       6.323  33.318  63.981  1.00  0.00    -0.027 A 
HETATM   16  C   UNL     1       7.140  32.671  61.579  1.00  0.00     0.032 A 
HETATM   17  C   UNL     1       7.584  33.495  64.752  1.00  0.00     0.051 C 
HETATM   18  C   UNL     1       5.035  33.454  64.475  1.00  0.00     0.012 A 
HETATM   19  C   UNL     1       4.551  33.791  65.839  1.00  0.00     0.068 C 
HETATM   20  H   UNL     1       3.155  33.240  63.515  1.00  0.00     0.166 HD
ENDBRANCH   7   9
ENDBRANCH   6   7
ENDBRANCH   5   6
ENDBRANCH   1   5
BRANCH   2  21
HETATM   21  N   UNL     1       7.230  27.109  55.830  1.00  0.00    -0.167 N 
HETATM   22  C   UNL     1       7.675  27.370  54.563  1.00  0.00     0.345 A 
HETATM   23  O   UNL     1       8.466  28.228  54.204  1.00  0.00    -0.245 OA
HETATM   24  N   UNL     1       7.106  26.439  53.718  1.00  0.00    -0.319 N 
HETATM   25  C   UNL     1       6.366  25.415  54.442  1.00  0.00     0.141 A 
HETATM   26  H   UNL     1       7.408  26.374  52.756  1.00  0.00     0.166 HD
HETATM   27  C   UNL     1       4.890  25.413  54.031  1.00  0.00     0.055 C 
HETATM   28  C   UNL     1       6.458  25.976  55.885  1.00  0.00     0.279 A 
HETATM   29  O   UNL     1       5.958  25.475  56.887  1.00  0.00    -0.268 OA
BRANCH  25  30
HETATM   30  C   UNL     1       7.043  24.062  54.228  1.00  0.00    -0.021 A 
HETATM   31  C   UNL     1       7.436  23.600  52.960  1.00  0.00     0.010 A 
HETATM   32  C   UNL     1       8.026  22.342  52.801  1.00  0.00     0.001 A 
HETATM   33  C   UNL     1       8.232  21.519  53.904  1.00  0.00     0.000 A 
HETATM   34  C   UNL     1       7.849  21.952  55.168  1.00  0.00     0.001 A 
HETATM   35  C   UNL     1       7.260  23.208  55.330  1.00  0.00     0.010 A 
ENDBRANCH  25  30
ENDBRANCH   2  21
TORSDOF 6
ENDMDL
MODEL 5
REMARK VINA RESULT:      -9.9      5.852      9.277
REMARK  6 active torsions:
REMARK  status: ('A' for Active; 'I' for Inactive)
REMARK    1  A    between atoms: C_7  and  C_8 
REMARK    2  A    between atoms: C_8  and  O_9 
REMARK    3  A    between atoms: O_9  and  C_10 
REMARK    4  A    between atoms: C_10  and  C_11 
REMARK       I    between atoms: C_11  and  N_12 
REMARK    5  A    between atoms: N_12  and  N_13 
REMARK    6  A    between atoms: C_17  and  C_18 
ROOT
HETATM    1  C   UNL     1       5.045  27.885  54.651  1.00  0.00     0.261 C 
HETATM    2  N   UNL     1       4.620  26.989  53.691  1.00  0.00    -0.255 N 
HETATM    3  O   UNL     1       5.367  29.048  54.408  1.00  0.00    -0.269 OA
HETATM    4  H   UNL     1       4.638  25.989  53.901  1.00  0.00     0.191 HD
ENDROOT
BRANCH   1   5
HETATM    5  C   UNL     1       5.037  27.315  56.072  1.00  0.00     0.283 C 
BRANCH   5   6
HETATM    6  O   UNL     1       6.170  27.664  56.870  1.00  0.00    -0.308 OA
BRANCH   6   7
HETATM    7  C   UNL     1       7.378  27.438  56.301  1.00  0.00     0.293 C 
HETATM    8  O   UNL     1       8.101  28.307  55.832  1.00  0.00    -0.259 OA
BRANCH   7   9
HETATM    9  C   UNL     1       7.732  25.994  56.326  1.00  0.00     0.040 A 
HETATM   10  C   UNL     1       8.193  25.455  57.533  1.00  0.00     0.020 A 
HETATM   11  C   UNL     1       8.545  24.106  57.638  1.00  0.00     0.031 A 
HETATM   12  C   UNL     1       8.420  23.316  56.490  1.00  0.00     0.043 A 
HETATM   13  C   UNL     1       7.973  23.816  55.269  1.00  0.00    -0.001 A 
HETATM   14  N   UNL     1       8.682  21.978  56.309  1.00  0.00    -0.359 N 
HETATM   15  C   UNL     1       7.981  22.731  54.332  1.00  0.00    -0.027 A 
HETATM   16  C   UNL     1       7.620  25.180  55.186  1.00  0.00     0.032 A 
HETATM   17  C   UNL     1       7.583  22.790  52.899  1.00  0.00     0.051 C 
HETATM   18  C   UNL     1       8.414  21.605  55.016  1.00  0.00     0.012 A 
HETATM   19  C   UNL     1       8.598  20.204  54.557  1.00  0.00     0.068 C 
HETATM   20  H   UNL     1       9.015  21.361  57.036  1.00  0.00     0.166 HD
ENDBRANCH   7   9
ENDBRANCH   6   7
ENDBRANCH   5   6
ENDBRANCH   1   5
BRANCH   2  21
HETATM   21  N   UNL     1       4.787  27.339  52.366  1.00  0.00    -0.167 N 
HETATM   22  C   UNL     1       5.795  26.867  51.572  1.00  0.00     0.345 A 
HETATM   23  O   UNL     1       6.655  26.047  51.852  1.00  0.00    -0.245 OA
HETATM   24  N   UNL     1       5.656  27.447  50.327  1.00  0.00    -0.319 N 
HETATM   25  C   UNL     1       4.431  28.227  50.214  1.00  0.00     0.141 A 
HETATM   26  H   UNL     1       6.223  27.132  49.552  1.00  0.00     0.166 HD
HETATM   27  C   UNL     1       4.742  29.695  49.910  1.00  0.00     0.055 C 
HETATM   28  C   UNL     1       3.915  28.142  51.675  1.00  0.00     0.279 A 
HETATM   29  O   UNL     1       2.899  28.671  52.113  1.00  0.00    -0.268 OA
BRANCH  25  30
HETATM   30  C   UNL     1       3.521  27.584  49.168  1.00  0.00    -0.021 A 
HETATM   31  C   UNL     1       3.716  26.275  48.694  1.00  0.00     0.010 A 
HETATM   32  C   UNL     1       2.880  25.731  47.713  1.00  0.00     0.001 A 
HETATM   33  C   UNL     1       1.836  26.485  47.184  1.00  0.00     0.000 A 
HETATM   34  C   UNL     1       1.625  27.782  47.636  1.00  0.00     0.001 A 
HETATM   35  C   UNL     1       2.458  28.328  48.614  1.00  0.00     0.010 A 
ENDBRANCH  25  30
ENDBRANCH   2  21
TORSDOF 6
ENDMDL
MODEL 6
REMARK VINA RESULT:      -9.8      7.163     11.329
REMARK  6 active torsions:
REMARK  status: ('A' for Active; 'I' for Inactive)
REMARK    1  A    between atoms: C_7  and  C_8 
REMARK    2  A    between atoms: C_8  and  O_9 
REMARK    3  A    between atoms: O_9  and  C_10 
REMARK    4  A    between atoms: C_10  and  C_11 
REMARK       I    between atoms: C_11  and  N_12 
REMARK    5  A    between atoms: N_12  and  N_13 
REMARK    6  A    between atoms: C_17  and  C_18 
ROOT
HETATM    1  C   UNL     1       5.038  27.067  50.623  1.00  0.00     0.261 C 
HETATM    2  N   UNL     1       3.924  26.773  49.863  1.00  0.00    -0.255 N 
HETATM    3  O   UNL     1       5.561  28.180  50.669  1.00  0.00    -0.269 OA
HETATM    4  H   UNL     1       3.712  25.796  49.649  1.00  0.00     0.191 HD
ENDROOT
BRANCH   1   5
HETATM    5  C   UNL     1       5.548  25.885  51.452  1.00  0.00     0.283 C 
BRANCH   5   6
HETATM    6  O   UNL     1       4.791  25.601  52.630  1.00  0.00    -0.308 OA
BRANCH   6   7
HETATM    7  C   UNL     1       5.252  26.167  53.771  1.00  0.00     0.293 C 
HETATM    8  O   UNL     1       5.028  27.320  54.117  1.00  0.00    -0.259 OA
BRANCH   7   9
HETATM    9  C   UNL     1       6.059  25.208  54.570  1.00  0.00     0.040 A 
HETATM   10  C   UNL     1       6.296  25.513  55.915  1.00  0.00     0.020 A 
HETATM   11  C   UNL     1       7.045  24.661  56.732  1.00  0.00     0.031 A 
HETATM   12  C   UNL     1       7.549  23.491  56.153  1.00  0.00     0.043 A 
HETATM   13  C   UNL     1       7.341  23.154  54.817  1.00  0.00    -0.001 A 
HETATM   14  N   UNL     1       8.298  22.483  56.712  1.00  0.00    -0.359 N 
HETATM   15  C   UNL     1       8.002  21.904  54.582  1.00  0.00    -0.027 A 
HETATM   16  C   UNL     1       6.580  24.028  54.011  1.00  0.00     0.032 A 
HETATM   17  C   UNL     1       8.053  21.153  53.298  1.00  0.00     0.051 C 
HETATM   18  C   UNL     1       8.574  21.513  55.782  1.00  0.00     0.012 A 
HETATM   19  C   UNL     1       9.358  20.301  56.132  1.00  0.00     0.068 C 
HETATM   20  H   UNL     1       8.593  22.463  57.679  1.00  0.00     0.166 HD
ENDBRANCH   7   9
ENDBRANCH   6   7
ENDBRANCH   5   6
ENDBRANCH   1   5
BRANCH   2  21
HETATM   21  N   UNL     1       3.516  27.706  48.930  1.00  0.00    -0.167 N 
HETATM   22  C   UNL     1       4.046  27.813  47.674  1.00  0.00     0.345 A 
HETATM   23  O   UNL     1       4.890  27.105  47.148  1.00  0.00    -0.245 OA
HETATM   24  N   UNL     1       3.413  28.863  47.040  1.00  0.00    -0.319 N 
HETATM   25  C   UNL     1       2.312  29.401  47.827  1.00  0.00     0.141 A 
HETATM   26  H   UNL     1       3.564  29.028  46.055  1.00  0.00     0.166 HD
HETATM   27  C   UNL     1       2.548  30.877  48.162  1.00  0.00     0.055 C 
HETATM   28  C   UNL     1       2.482  28.583  49.134  1.00  0.00     0.279 A 
HETATM   29  O   UNL     1       1.793  28.686  50.143  1.00  0.00    -0.268 OA
BRANCH  25  30
HETATM   30  C   UNL     1       1.000  29.165  47.080  1.00  0.00    -0.021 A 
HETATM   31  C   UNL     1       0.620  27.902  46.592  1.00  0.00     0.010 A 
HETATM   32  C   UNL     1      -0.575  27.731  45.886  1.00  0.00     0.001 A 
HETATM   33  C   UNL     1      -1.414  28.817  45.652  1.00  0.00     0.000 A 
HETATM   34  C   UNL     1      -1.059  30.076  46.124  1.00  0.00     0.001 A 
HETATM   35  C   UNL     1       0.134  30.250  46.828  1.00  0.00     0.010 A 
ENDBRANCH  25  30
ENDBRANCH   2  21
TORSDOF 6
ENDMDL
MODEL 7
REMARK VINA RESULT:      -9.8      2.123      3.621
REMARK  6 active torsions:
REMARK  status: ('A' for Active; 'I' for Inactive)
REMARK    1  A    between atoms: C_7  and  C_8 
REMARK    2  A    between atoms: C_8  and  O_9 
REMARK    3  A    between atoms: O_9  and  C_10 
REMARK    4  A    between atoms: C_10  and  C_11 
REMARK       I    between atoms: C_11  and  N_12 
REMARK    5  A    between atoms: N_12  and  N_13 
REMARK    6  A    between atoms: C_17  and  C_18 
ROOT
HETATM    1  C   UNL     1       5.547  28.731  56.613  1.00  0.00     0.261 C 
HETATM    2  N   UNL     1       5.330  27.618  55.827  1.00  0.00    -0.255 N 
HETATM    3  O   UNL     1       6.458  28.823  57.435  1.00  0.00    -0.269 OA
HETATM    4  H   UNL     1       4.418  27.492  55.382  1.00  0.00     0.191 HD
ENDROOT
BRANCH   1   5
HETATM    5  C   UNL     1       4.570  29.878  56.338  1.00  0.00     0.283 C 
BRANCH   5   6
HETATM    6  O   UNL     1       4.917  31.126  56.941  1.00  0.00    -0.308 OA
BRANCH   6   7
HETATM    7  C   UNL     1       3.927  31.733  57.640  1.00  0.00     0.293 C 
HETATM    8  O   UNL     1       2.816  31.988  57.195  1.00  0.00    -0.259 OA
BRANCH   7   9
HETATM    9  C   UNL     1       4.351  32.043  59.031  1.00  0.00     0.040 A 
HETATM   10  C   UNL     1       3.352  32.297  59.978  1.00  0.00     0.020 A 
HETATM   11  C   UNL     1       3.670  32.595  61.306  1.00  0.00     0.031 A 
HETATM   12  C   UNL     1       5.025  32.631  61.652  1.00  0.00     0.043 A 
HETATM   13  C   UNL     1       6.050  32.391  60.739  1.00  0.00    -0.001 A 
HETATM   14  N   UNL     1       5.618  32.885  62.867  1.00  0.00    -0.359 N 
HETATM   15  C   UNL     1       7.291  32.518  61.443  1.00  0.00    -0.027 A 
HETATM   16  C   UNL     1       5.706  32.090  59.404  1.00  0.00     0.032 A 
HETATM   17  C   UNL     1       8.657  32.349  60.875  1.00  0.00     0.051 C 
HETATM   18  C   UNL     1       6.983  32.812  62.762  1.00  0.00     0.012 A 
HETATM   19  C   UNL     1       7.866  33.030  63.937  1.00  0.00     0.068 C 
HETATM   20  H   UNL     1       5.109  33.086  63.717  1.00  0.00     0.166 HD
ENDBRANCH   7   9
ENDBRANCH   6   7
ENDBRANCH   5   6
ENDBRANCH   1   5
BRANCH   2  21
HETATM   21  N   UNL     1       6.021  26.464  56.141  1.00  0.00    -0.167 N 
HETATM   22  C   UNL     1       5.523  25.466  56.932  1.00  0.00     0.345 A 
HETATM   23  O   UNL     1       4.413  25.383  57.433  1.00  0.00    -0.245 OA
HETATM   24  N   UNL     1       6.496  24.493  57.042  1.00  0.00    -0.319 N 
HETATM   25  C   UNL     1       7.641  24.756  56.182  1.00  0.00     0.141 A 
HETATM   26  H   UNL     1       6.282  23.606  57.477  1.00  0.00     0.166 HD
HETATM   27  C   UNL     1       8.922  24.909  57.007  1.00  0.00     0.055 C 
HETATM   28  C   UNL     1       7.258  26.156  55.634  1.00  0.00     0.279 A 
HETATM   29  O   UNL     1       7.928  26.838  54.865  1.00  0.00    -0.268 OA
BRANCH  25  30
HETATM   30  C   UNL     1       7.742  23.654  55.128  1.00  0.00    -0.021 A 
HETATM   31  C   UNL     1       7.730  23.919  53.748  1.00  0.00     0.010 A 
HETATM   32  C   UNL     1       7.794  22.880  52.813  1.00  0.00     0.001 A 
HETATM   33  C   UNL     1       7.867  21.556  53.239  1.00  0.00     0.000 A 
HETATM   34  C   UNL     1       7.877  21.269  54.599  1.00  0.00     0.001 A 
HETATM   35  C   UNL     1       7.813  22.305  55.534  1.00  0.00     0.010 A 
ENDBRANCH  25  30
ENDBRANCH   2  21
TORSDOF 6
ENDMDL
MODEL 8
REMARK VINA RESULT:      -9.6      1.871      2.334
REMARK  6 active torsions:
REMARK  status: ('A' for Active; 'I' for Inactive)
REMARK    1  A    between atoms: C_7  and  C_8 
REMARK    2  A    between atoms: C_8  and  O_9 
REMARK    3  A    between atoms: O_9  and  C_10 
REMARK    4  A    between atoms: C_10  and  C_11 
REMARK       I    between atoms: C_11  and  N_12 
REMARK    5  A    between atoms: N_12  and  N_13 
REMARK    6  A    between atoms: C_17  and  C_18 
ROOT
HETATM    1  C   UNL     1       6.040  30.053  57.605  1.00  0.00     0.261 C 
HETATM    2  N   UNL     1       6.848  29.239  56.838  1.00  0.00    -0.255 N 
HETATM    3  O   UNL     1       4.944  29.711  58.047  1.00  0.00    -0.269 OA
HETATM    4  H   UNL     1       7.593  29.660  56.279  1.00  0.00     0.191 HD
ENDROOT
BRANCH   1   5
HETATM    5  C   UNL     1       6.654  31.424  57.903  1.00  0.00     0.283 C 
BRANCH   5   6
HETATM    6  O   UNL     1       6.896  31.691  59.286  1.00  0.00    -0.308 OA
BRANCH   6   7
HETATM    7  C   UNL     1       6.014  32.529  59.882  1.00  0.00     0.293 C 
HETATM    8  O   UNL     1       5.052  33.040  59.325  1.00  0.00    -0.259 OA
BRANCH   7   9
HETATM    9  C   UNL     1       6.348  32.744  61.315  1.00  0.00     0.040 A 
HETATM   10  C   UNL     1       7.621  32.363  61.754  1.00  0.00     0.020 A 
HETATM   11  C   UNL     1       8.011  32.533  63.086  1.00  0.00     0.031 A 
HETATM   12  C   UNL     1       7.080  33.100  63.963  1.00  0.00     0.043 A 
HETATM   13  C   UNL     1       5.801  33.487  63.567  1.00  0.00    -0.001 A 
HETATM   14  N   UNL     1       7.193  33.388  65.302  1.00  0.00    -0.359 N 
HETATM   15  C   UNL     1       5.135  34.014  64.721  1.00  0.00    -0.027 A 
HETATM   16  C   UNL     1       5.429  33.307  62.217  1.00  0.00     0.032 A 
HETATM   17  C   UNL     1       3.748  34.550  64.781  1.00  0.00     0.051 C 
HETATM   18  C   UNL     1       6.034  33.948  65.775  1.00  0.00     0.012 A 
HETATM   19  C   UNL     1       5.896  34.369  67.193  1.00  0.00     0.068 C 
HETATM   20  H   UNL     1       8.024  33.217  65.852  1.00  0.00     0.166 HD
ENDBRANCH   7   9
ENDBRANCH   6   7
ENDBRANCH   5   6
ENDBRANCH   1   5
BRANCH   2  21
HETATM   21  N   UNL     1       6.301  28.070  56.346  1.00  0.00    -0.167 N 
HETATM   22  C   UNL     1       5.416  28.020  55.304  1.00  0.00     0.345 A 
HETATM   23  O   UNL     1       5.011  28.941  54.613  1.00  0.00    -0.245 OA
HETATM   24  N   UNL     1       5.072  26.697  55.110  1.00  0.00    -0.319 N 
HETATM   25  C   UNL     1       5.854  25.794  55.942  1.00  0.00     0.141 A 
HETATM   26  H   UNL     1       4.528  26.426  54.302  1.00  0.00     0.166 HD
HETATM   27  C   UNL     1       4.949  24.993  56.882  1.00  0.00     0.055 C 
HETATM   28  C   UNL     1       6.641  26.821  56.798  1.00  0.00     0.279 A 
HETATM   29  O   UNL     1       7.441  26.554  57.689  1.00  0.00    -0.268 OA
BRANCH  25  30
HETATM   30  C   UNL     1       6.714  24.904  55.046  1.00  0.00    -0.021 A 
HETATM   31  C   UNL     1       7.112  25.287  53.753  1.00  0.00     0.010 A 
HETATM   32  C   UNL     1       7.874  24.432  52.950  1.00  0.00     0.001 A 
HETATM   33  C   UNL     1       8.252  23.178  53.421  1.00  0.00     0.000 A 
HETATM   34  C   UNL     1       7.868  22.776  54.695  1.00  0.00     0.001 A 
HETATM   35  C   UNL     1       7.107  23.627  55.498  1.00  0.00     0.010 A 
ENDBRANCH  25  30
ENDBRANCH   2  21
TORSDOF 6
ENDMDL
MODEL 9
REMARK VINA RESULT:      -9.5      2.827      4.570
REMARK  6 active torsions:
REMARK  status: ('A' for Active; 'I' for Inactive)
REMARK    1  A    between atoms: C_7  and  C_8 
REMARK    2  A    between atoms: C_8  and  O_9 
REMARK    3  A    between atoms: O_9  and  C_10 
REMARK    4  A    between atoms: C_10  and  C_11 
REMARK       I    between atoms: C_11  and  N_12 
REMARK    5  A    between atoms: N_12  and  N_13 
REMARK    6  A    between atoms: C_17  and  C_18 
ROOT
HETATM    1  C   UNL     1       4.555  29.027  53.687  1.00  0.00     0.261 C 
HETATM    2  N   UNL     1       5.011  28.000  54.489  1.00  0.00    -0.255 N 
HETATM    3  O   UNL     1       4.771  29.101  52.478  1.00  0.00    -0.269 OA
HETATM    4  H   UNL     1       5.041  28.135  55.501  1.00  0.00     0.191 HD
ENDROOT
BRANCH   1   5
HETATM    5  C   UNL     1       3.704  30.059  54.433  1.00  0.00     0.283 C 
BRANCH   5   6
HETATM    6  O   UNL     1       4.438  30.961  55.263  1.00  0.00    -0.308 OA
BRANCH   6   7
HETATM    7  C   UNL     1       4.137  30.915  56.584  1.00  0.00     0.293 C 
HETATM    8  O   UNL     1       3.004  30.971  57.043  1.00  0.00    -0.259 OA
BRANCH   7   9
HETATM    9  C   UNL     1       5.360  30.773  57.417  1.00  0.00     0.040 A 
HETATM   10  C   UNL     1       6.272  29.767  57.076  1.00  0.00     0.020 A 
HETATM   11  C   UNL     1       7.445  29.571  57.810  1.00  0.00     0.031 A 
HETATM   12  C   UNL     1       7.673  30.417  58.900  1.00  0.00     0.043 A 
HETATM   13  C   UNL     1       6.788  31.426  59.277  1.00  0.00    -0.001 A 
HETATM   14  N   UNL     1       8.730  30.457  59.778  1.00  0.00    -0.359 N 
HETATM   15  C   UNL     1       7.343  32.076  60.427  1.00  0.00    -0.027 A 
HETATM   16  C   UNL     1       5.611  31.608  58.520  1.00  0.00     0.032 A 
HETATM   17  C   UNL     1       6.748  33.215  61.179  1.00  0.00     0.051 C 
HETATM   18  C   UNL     1       8.553  31.457  60.701  1.00  0.00     0.012 A 
HETATM   19  C   UNL     1       9.561  31.727  61.758  1.00  0.00     0.068 C 
HETATM   20  H   UNL     1       9.528  29.839  59.736  1.00  0.00     0.166 HD
ENDBRANCH   7   9
ENDBRANCH   6   7
ENDBRANCH   5   6
ENDBRANCH   1   5
BRANCH   2  21
HETATM   21  N   UNL     1       5.950  27.138  53.957  1.00  0.00    -0.167 N 
HETATM   22  C   UNL     1       7.300  27.348  54.018  1.00  0.00     0.345 A 
HETATM   23  O   UNL     1       7.899  28.255  54.575  1.00  0.00    -0.245 OA
HETATM   24  N   UNL     1       7.917  26.299  53.368  1.00  0.00    -0.319 N 
HETATM   25  C   UNL     1       6.975  25.259  52.976  1.00  0.00     0.141 A 
HETATM   26  H   UNL     1       8.921  26.192  53.412  1.00  0.00     0.166 HD
HETATM   27  C   UNL     1       6.971  25.067  51.457  1.00  0.00     0.055 C 
HETATM   28  C   UNL     1       5.637  25.937  53.374  1.00  0.00     0.279 A 
HETATM   29  O   UNL     1       4.516  25.464  53.221  1.00  0.00    -0.268 OA
BRANCH  25  30
HETATM   30  C   UNL     1       7.301  23.975  53.736  1.00  0.00    -0.021 A 
HETATM   31  C   UNL     1       7.273  23.893  55.139  1.00  0.00     0.010 A 
HETATM   32  C   UNL     1       7.607  22.707  55.801  1.00  0.00     0.001 A 
HETATM   33  C   UNL     1       7.980  21.580  55.074  1.00  0.00     0.000 A 
HETATM   34  C   UNL     1       8.018  21.636  53.686  1.00  0.00     0.001 A 
HETATM   35  C   UNL     1       7.685  22.819  53.023  1.00  0.00     0.010 A 
ENDBRANCH  25  30
ENDBRANCH   2  21
TORSDOF 6
ENDMDL
MODEL 10
REMARK VINA RESULT:      -9.3      6.678     10.443
REMARK  6 active torsions:
REMARK  status: ('A' for Active; 'I' for Inactive)
REMARK    1  A    between atoms: C_7  and  C_8 
REMARK    2  A    between atoms: C_8  and  O_9 
REMARK    3  A    between atoms: O_9  and  C_10 
REMARK    4  A    between atoms: C_10  and  C_11 
REMARK       I    between atoms: C_11  and  N_12 
REMARK    5  A    between atoms: N_12  and  N_13 
REMARK    6  A    between atoms: C_17  and  C_18 
ROOT
HETATM    1  C   UNL     1       5.027  28.722  52.672  1.00  0.00     0.261 C 
HETATM    2  N   UNL     1       4.972  29.970  52.086  1.00  0.00    -0.255 N 
HETATM    3  O   UNL     1       4.883  27.667  52.055  1.00  0.00    -0.269 OA
HETATM    4  H   UNL     1       4.820  30.791  52.676  1.00  0.00     0.191 HD
ENDROOT
BRANCH   1   5
HETATM    5  C   UNL     1       5.334  28.759  54.172  1.00  0.00     0.283 C 
BRANCH   5   6
HETATM    6  O   UNL     1       5.963  27.585  54.690  1.00  0.00    -0.308 OA
BRANCH   6   7
HETATM    7  C   UNL     1       7.253  27.401  54.320  1.00  0.00     0.293 C 
HETATM    8  O   UNL     1       8.097  28.286  54.272  1.00  0.00    -0.259 OA
BRANCH   7   9
HETATM    9  C   UNL     1       7.528  25.978  53.988  1.00  0.00     0.040 A 
HETATM   10  C   UNL     1       7.575  25.619  52.636  1.00  0.00     0.020 A 
HETATM   11  C   UNL     1       7.829  24.302  52.243  1.00  0.00     0.031 A 
HETATM   12  C   UNL     1       8.034  23.356  53.253  1.00  0.00     0.043 A 
HETATM   13  C   UNL     1       7.989  23.671  54.610  1.00  0.00    -0.001 A 
HETATM   14  N   UNL     1       8.307  22.012  53.159  1.00  0.00    -0.359 N 
HETATM   15  C   UNL     1       8.236  22.463  55.340  1.00  0.00    -0.027 A 
HETATM   16  C   UNL     1       7.733  25.008  54.984  1.00  0.00     0.032 A 
HETATM   17  C   UNL     1       8.283  22.312  56.820  1.00  0.00     0.051 C 
HETATM   18  C   UNL     1       8.441  21.458  54.407  1.00  0.00     0.012 A 
HETATM   19  C   UNL     1       8.755  20.017  54.589  1.00  0.00     0.068 C 
HETATM   20  H   UNL     1       8.404  21.511  52.287  1.00  0.00     0.166 HD
ENDBRANCH   7   9
ENDBRANCH   6   7
ENDBRANCH   5   6
ENDBRANCH   1   5
BRANCH   2  21
HETATM   21  N   UNL     1       4.500  30.052  50.790  1.00  0.00    -0.167 N 
HETATM   22  C   UNL     1       5.297  30.263  49.699  1.00  0.00     0.345 A 
HETATM   23  O   UNL     1       6.513  30.354  49.660  1.00  0.00    -0.245 OA
HETATM   24  N   UNL     1       4.481  30.307  48.587  1.00  0.00    -0.319 N 
HETATM   25  C   UNL     1       3.099  29.969  48.900  1.00  0.00     0.141 A 
HETATM   26  H   UNL     1       4.884  30.324  47.660  1.00  0.00     0.166 HD
HETATM   27  C   UNL     1       2.162  31.133  48.567  1.00  0.00     0.055 C 
HETATM   28  C   UNL     1       3.187  29.855  50.444  1.00  0.00     0.279 A 
HETATM   29  O   UNL     1       2.257  29.604  51.203  1.00  0.00    -0.268 OA
BRANCH  25  30
HETATM   30  C   UNL     1       2.723  28.677  48.176  1.00  0.00    -0.021 A 
HETATM   31  C   UNL     1       1.416  28.407  47.734  1.00  0.00     0.010 A 
HETATM   32  C   UNL     1       1.104  27.199  47.101  1.00  0.00     0.001 A 
HETATM   33  C   UNL     1       2.089  26.236  46.900  1.00  0.00     0.000 A 
HETATM   34  C   UNL     1       3.389  26.480  47.331  1.00  0.00     0.001 A 
HETATM   35  C   UNL     1       3.703  27.684  47.963  1.00  0.00     0.010 A 
ENDBRANCH  25  30
ENDBRANCH   2  21
TORSDOF 6
ENDMDL
