MODEL 1
REMARK VINA RESULT:      -8.2      0.000      0.000
REMARK  8 active torsions:
REMARK  status: ('A' for Active; 'I' for Inactive)
REMARK    1  A    between atoms: C_2  and  S_3 
REMARK    2  A    between atoms: S_3  and  C_4 
REMARK    3  A    between atoms: C_7  and  N_8 
REMARK    4  A    between atoms: N_8  and  C_9 
REMARK    5  A    between atoms: C_9  and  N_10 
REMARK       I    between atoms: N_10  and  C_11 
REMARK    6  A    between atoms: C_11  and  C_12 
REMARK    7  A    between atoms: C_21  and  C_22 
REMARK       I    between atoms: C_22  and  N_23 
REMARK    8  A    between atoms: C_25  and  C_26 
REMARK       I    between atoms: C_26  and  N_27 
ROOT
HETATM    1  C   UNL     1       6.258  31.272  58.739  1.00  0.00     0.088 A 
HETATM    2  N   UNL     1       5.330  30.502  58.113  1.00  0.00    -0.335 N 
HETATM    3  H   UNL     1       4.352  30.746  58.029  1.00  0.00     0.168 HD
HETATM    4  C   UNL     1       5.890  29.344  57.661  1.00  0.00     0.125 A 
HETATM    5  C   UNL     1       7.254  29.403  57.952  1.00  0.00     0.094 A 
HETATM    6  C   UNL     1       7.492  30.641  58.686  1.00  0.00     0.084 A 
ENDROOT
BRANCH   4   7
HETATM    7  N   UNL     1       5.170  28.333  57.039  1.00  0.00    -0.318 N 
HETATM    8  H   UNL     1       4.567  27.770  57.645  1.00  0.00     0.170 HD
BRANCH   7   9
HETATM    9  C   UNL     1       5.077  28.037  55.696  1.00  0.00     0.180 C 
HETATM   10  S   UNL     1       4.200  28.815  54.500  1.00  0.00    -0.040 SA
BRANCH   9  11
HETATM   11  N   UNL     1       5.816  26.937  55.290  1.00  0.00    -0.299 N 
HETATM   12  C   UNL     1       5.760  25.634  55.766  1.00  0.00     0.259 C 
HETATM   13  O   UNL     1       5.042  25.272  56.691  1.00  0.00    -0.267 OA
HETATM   14  H   UNL     1       6.466  27.148  54.542  1.00  0.00     0.171 HD
BRANCH  12  15
HETATM   15  C   UNL     1       6.674  24.685  55.091  1.00  0.00     0.054 A 
HETATM   16  C   UNL     1       6.407  24.206  53.803  1.00  0.00     0.049 A 
HETATM   17 CL   UNL     1       5.048  24.727  52.874  1.00  0.00    -0.083 Cl
HETATM   18  C   UNL     1       7.294  23.307  53.204  1.00  0.00     0.025 A 
HETATM   19  C   UNL     1       8.439  22.885  53.884  1.00  0.00     0.002 A 
HETATM   20  C   UNL     1       8.702  23.357  55.168  1.00  0.00     0.001 A 
HETATM   21  C   UNL     1       7.822  24.253  55.776  1.00  0.00     0.019 A 
ENDBRANCH  12  15
ENDBRANCH   9  11
ENDBRANCH   7   9
ENDBRANCH   4   7
BRANCH   5  22
HETATM   22  C   UNL     1       8.225  28.371  57.606  1.00  0.00     0.254 C 
HETATM   23  N   UNL     1       9.385  28.808  57.037  1.00  0.00    -0.366 N 
HETATM   24  H   UNL     1       9.633  29.786  56.972  1.00  0.00     0.159 HD
HETATM   25  H   UNL     1      10.093  28.122  56.813  1.00  0.00     0.159 HD
HETATM   26  O   UNL     1       8.054  27.176  57.825  1.00  0.00    -0.268 OA
ENDBRANCH   5  22
BRANCH   1  27
HETATM   27  S   UNL     1       5.680  32.775  59.384  1.00  0.00    -0.112 SA
BRANCH  27  28
HETATM   28  C   UNL     1       5.764  32.425  61.165  1.00  0.00     0.076 C 
HETATM   29  C   UNL     1       6.770  33.350  61.828  1.00  0.00     0.016 C 
ENDBRANCH  27  28
ENDBRANCH   1  27
BRANCH   6  30
HETATM   30  C   UNL     1       8.727  31.203  59.245  1.00  0.00     0.253 C 
HETATM   31  N   UNL     1       9.248  30.618  60.359  1.00  0.00    -0.366 N 
HETATM   32  H   UNL     1       8.733  29.944  60.919  1.00  0.00     0.159 HD
HETATM   33  H   UNL     1      10.037  31.077  60.790  1.00  0.00     0.159 HD
HETATM   34  O   UNL     1       9.309  32.180  58.782  1.00  0.00    -0.268 OA
ENDBRANCH   6  30
TORSDOF 8
ENDMDL
MODEL 2
REMARK VINA RESULT:      -8.2      4.514      7.666
REMARK  8 active torsions:
REMARK  status: ('A' for Active; 'I' for Inactive)
REMARK    1  A    between atoms: C_2  and  S_3 
REMARK    2  A    between atoms: S_3  and  C_4 
REMARK    3  A    between atoms: C_7  and  N_8 
REMARK    4  A    between atoms: N_8  and  C_9 
REMARK    5  A    between atoms: C_9  and  N_10 
REMARK       I    between atoms: N_10  and  C_11 
REMARK    6  A    between atoms: C_11  and  C_12 
REMARK    7  A    between atoms: C_21  and  C_22 
REMARK       I    between atoms: C_22  and  N_23 
REMARK    8  A    between atoms: C_25  and  C_26 
REMARK       I    between atoms: C_26  and  N_27 
ROOT
HETATM    1  C   UNL     1       7.425  23.539  54.387  1.00  0.00     0.088 A 
HETATM    2  N   UNL     1       6.420  24.089  53.655  1.00  0.00    -0.335 N 
HETATM    3  H   UNL     1       6.250  23.886  52.680  1.00  0.00     0.168 HD
HETATM    4  C   UNL     1       5.710  24.980  54.405  1.00  0.00     0.125 A 
HETATM    5  C   UNL     1       6.243  24.953  55.695  1.00  0.00     0.094 A 
HETATM    6  C   UNL     1       7.383  24.042  55.679  1.00  0.00     0.084 A 
ENDROOT
BRANCH   4   7
HETATM    7  N   UNL     1       4.665  25.745  53.905  1.00  0.00    -0.318 N 
HETATM    8  H   UNL     1       3.723  25.376  54.060  1.00  0.00     0.170 HD
BRANCH   7   9
HETATM    9  C   UNL     1       4.709  26.986  53.308  1.00  0.00     0.180 C 
HETATM   10  S   UNL     1       5.055  28.476  53.989  1.00  0.00    -0.040 SA
BRANCH   9  11
HETATM   11  N   UNL     1       4.422  26.989  51.952  1.00  0.00    -0.299 N 
HETATM   12  C   UNL     1       5.123  26.385  50.917  1.00  0.00     0.259 C 
HETATM   13  O   UNL     1       6.173  25.771  51.068  1.00  0.00    -0.267 OA
HETATM   14  H   UNL     1       3.579  27.504  51.725  1.00  0.00     0.171 HD
BRANCH  12  15
HETATM   15  C   UNL     1       4.527  26.562  49.574  1.00  0.00     0.054 A 
HETATM   16  C   UNL     1       4.692  27.752  48.855  1.00  0.00     0.049 A 
HETATM   17 CL   UNL     1       5.648  29.068  49.430  1.00  0.00    -0.083 Cl
HETATM   18  C   UNL     1       4.108  27.881  47.591  1.00  0.00     0.025 A 
HETATM   19  C   UNL     1       3.362  26.832  47.047  1.00  0.00     0.002 A 
HETATM   20  C   UNL     1       3.193  25.650  47.765  1.00  0.00     0.001 A 
HETATM   21  C   UNL     1       3.770  25.512  49.029  1.00  0.00     0.019 A 
ENDBRANCH  12  15
ENDBRANCH   9  11
ENDBRANCH   7   9
ENDBRANCH   4   7
BRANCH   5  22
HETATM   22  C   UNL     1       5.748  25.741  56.818  1.00  0.00     0.254 C 
HETATM   23  N   UNL     1       4.490  25.439  57.252  1.00  0.00    -0.366 N 
HETATM   24  H   UNL     1       3.970  24.639  56.920  1.00  0.00     0.159 HD
HETATM   25  H   UNL     1       4.128  25.945  58.048  1.00  0.00     0.159 HD
HETATM   26  O   UNL     1       6.406  26.610  57.381  1.00  0.00    -0.268 OA
ENDBRANCH   5  22
BRANCH   1  27
HETATM   27  S   UNL     1       8.426  22.395  53.552  1.00  0.00    -0.112 SA
BRANCH  27  28
HETATM   28  C   UNL     1       7.731  20.834  54.170  1.00  0.00     0.076 C 
HETATM   29  C   UNL     1       8.823  20.002  54.818  1.00  0.00     0.016 C 
ENDBRANCH  27  28
ENDBRANCH   1  27
BRANCH   6  30
HETATM   30  C   UNL     1       8.311  23.646  56.745  1.00  0.00     0.253 C 
HETATM   31  N   UNL     1       9.117  24.605  57.279  1.00  0.00    -0.366 N 
HETATM   32  H   UNL     1       9.238  25.521  56.855  1.00  0.00     0.159 HD
HETATM   33  H   UNL     1       9.818  24.299  57.936  1.00  0.00     0.159 HD
HETATM   34  O   UNL     1       8.418  22.500  57.172  1.00  0.00    -0.268 OA
ENDBRANCH   6  30
TORSDOF 8
ENDMDL
MODEL 3
REMARK VINA RESULT:      -8.2      2.248      3.200
REMARK  8 active torsions:
REMARK  status: ('A' for Active; 'I' for Inactive)
REMARK    1  A    between atoms: C_2  and  S_3 
REMARK    2  A    between atoms: S_3  and  C_4 
REMARK    3  A    between atoms: C_7  and  N_8 
REMARK    4  A    between atoms: N_8  and  C_9 
REMARK    5  A    between atoms: C_9  and  N_10 
REMARK       I    between atoms: N_10  and  C_11 
REMARK    6  A    between atoms: C_11  and  C_12 
REMARK    7  A    between atoms: C_21  and  C_22 
REMARK       I    between atoms: C_22  and  N_23 
REMARK    8  A    between atoms: C_25  and  C_26 
REMARK       I    between atoms: C_26  and  N_27 
ROOT
HETATM    1  C   UNL     1       6.898  30.235  58.192  1.00  0.00     0.088 A 
HETATM    2  N   UNL     1       7.721  29.226  57.801  1.00  0.00    -0.335 N 
HETATM    3  H   UNL     1       8.708  29.183  58.014  1.00  0.00     0.168 HD
HETATM    4  C   UNL     1       7.041  28.313  57.051  1.00  0.00     0.125 A 
HETATM    5  C   UNL     1       5.706  28.721  57.012  1.00  0.00     0.094 A 
HETATM    6  C   UNL     1       5.615  29.991  57.724  1.00  0.00     0.084 A 
ENDROOT
BRANCH   4   7
HETATM    7  N   UNL     1       7.636  27.208  56.459  1.00  0.00    -0.318 N 
HETATM    8  H   UNL     1       8.049  26.522  57.097  1.00  0.00     0.170 HD
BRANCH   7   9
HETATM    9  C   UNL     1       7.669  26.850  55.128  1.00  0.00     0.180 C 
HETATM   10  S   UNL     1       7.571  27.824  53.770  1.00  0.00    -0.040 SA
BRANCH   9  11
HETATM   11  N   UNL     1       7.800  25.491  54.894  1.00  0.00    -0.299 N 
HETATM   12  C   UNL     1       6.992  24.454  55.340  1.00  0.00     0.259 C 
HETATM   13  O   UNL     1       6.027  24.607  56.081  1.00  0.00    -0.267 OA
HETATM   14  H   UNL     1       8.596  25.262  54.310  1.00  0.00     0.171 HD
BRANCH  12  15
HETATM   15  C   UNL     1       7.399  23.106  54.884  1.00  0.00     0.054 A 
HETATM   16  C   UNL     1       7.631  22.835  53.530  1.00  0.00     0.049 A 
HETATM   17 CL   UNL     1       7.536  24.045  52.303  1.00  0.00    -0.083 Cl
HETATM   18  C   UNL     1       8.009  21.546  53.140  1.00  0.00     0.025 A 
HETATM   19  C   UNL     1       8.153  20.534  54.092  1.00  0.00     0.002 A 
HETATM   20  C   UNL     1       7.916  20.802  55.438  1.00  0.00     0.001 A 
HETATM   21  C   UNL     1       7.536  22.085  55.838  1.00  0.00     0.019 A 
ENDBRANCH  12  15
ENDBRANCH   9  11
ENDBRANCH   7   9
ENDBRANCH   4   7
BRANCH   5  22
HETATM   22  C   UNL     1       4.634  28.000  56.334  1.00  0.00     0.254 C 
HETATM   23  N   UNL     1       4.277  26.804  56.883  1.00  0.00    -0.366 N 
HETATM   24  H   UNL     1       4.626  26.481  57.775  1.00  0.00     0.159 HD
HETATM   25  H   UNL     1       3.516  26.293  56.457  1.00  0.00     0.159 HD
HETATM   26  O   UNL     1       4.048  28.429  55.346  1.00  0.00    -0.268 OA
ENDBRANCH   5  22
BRANCH   1  27
HETATM   27  S   UNL     1       7.636  31.483  59.143  1.00  0.00    -0.112 SA
BRANCH  27  28
HETATM   28  C   UNL     1       8.786  30.498  60.149  1.00  0.00     0.076 C 
HETATM   29  C   UNL     1       9.368  31.355  61.259  1.00  0.00     0.016 C 
ENDBRANCH  27  28
ENDBRANCH   1  27
BRANCH   6  30
HETATM   30  C   UNL     1       4.467  30.868  57.981  1.00  0.00     0.253 C 
HETATM   31  N   UNL     1       3.513  30.432  58.850  1.00  0.00    -0.366 N 
HETATM   32  H   UNL     1       3.464  29.471  59.177  1.00  0.00     0.159 HD
HETATM   33  H   UNL     1       2.683  30.998  58.938  1.00  0.00     0.159 HD
HETATM   34  O   UNL     1       4.304  31.962  57.448  1.00  0.00    -0.268 OA
ENDBRANCH   6  30
TORSDOF 8
ENDMDL
MODEL 4
REMARK VINA RESULT:      -8.1      2.142      3.386
REMARK  8 active torsions:
REMARK  status: ('A' for Active; 'I' for Inactive)
REMARK    1  A    between atoms: C_2  and  S_3 
REMARK    2  A    between atoms: S_3  and  C_4 
REMARK    3  A    between atoms: C_7  and  N_8 
REMARK    4  A    between atoms: N_8  and  C_9 
REMARK    5  A    between atoms: C_9  and  N_10 
REMARK       I    between atoms: N_10  and  C_11 
REMARK    6  A    between atoms: C_11  and  C_12 
REMARK    7  A    between atoms: C_21  and  C_22 
REMARK       I    between atoms: C_22  and  N_23 
REMARK    8  A    between atoms: C_25  and  C_26 
REMARK       I    between atoms: C_26  and  N_27 
ROOT
HETATM    1  C   UNL     1       7.415  29.857  57.955  1.00  0.00     0.088 A 
HETATM    2  N   UNL     1       7.085  28.679  57.364  1.00  0.00    -0.335 N 
HETATM    3  H   UNL     1       7.752  27.963  57.110  1.00  0.00     0.168 HD
HETATM    4  C   UNL     1       5.744  28.621  57.122  1.00  0.00     0.125 A 
HETATM    5  C   UNL     1       5.178  29.787  57.641  1.00  0.00     0.094 A 
HETATM    6  C   UNL     1       6.268  30.612  58.153  1.00  0.00     0.084 A 
ENDROOT
BRANCH   4   7
HETATM    7  N   UNL     1       5.125  27.564  56.468  1.00  0.00    -0.318 N 
HETATM    8  H   UNL     1       4.518  26.972  57.041  1.00  0.00     0.170 HD
BRANCH   7   9
HETATM    9  C   UNL     1       5.137  27.251  55.126  1.00  0.00     0.180 C 
HETATM   10  S   UNL     1       4.521  28.118  53.833  1.00  0.00    -0.040 SA
BRANCH   9  11
HETATM   11  N   UNL     1       5.745  26.045  54.815  1.00  0.00    -0.299 N 
HETATM   12  C   UNL     1       7.042  25.633  55.092  1.00  0.00     0.259 C 
HETATM   13  O   UNL     1       7.882  26.338  55.640  1.00  0.00    -0.267 OA
HETATM   14  H   UNL     1       5.131  25.403  54.328  1.00  0.00     0.171 HD
BRANCH  12  15
HETATM   15  C   UNL     1       7.369  24.262  54.641  1.00  0.00     0.054 A 
HETATM   16  C   UNL     1       7.685  23.992  53.304  1.00  0.00     0.049 A 
HETATM   17 CL   UNL     1       7.790  25.223  52.099  1.00  0.00    -0.083 Cl
HETATM   18  C   UNL     1       7.984  22.681  52.917  1.00  0.00     0.025 A 
HETATM   19  C   UNL     1       7.966  21.647  53.856  1.00  0.00     0.002 A 
HETATM   20  C   UNL     1       7.646  21.915  55.185  1.00  0.00     0.001 A 
HETATM   21  C   UNL     1       7.344  23.219  55.581  1.00  0.00     0.019 A 
ENDBRANCH  12  15
ENDBRANCH   9  11
ENDBRANCH   7   9
ENDBRANCH   4   7
BRANCH   5  22
HETATM   22  C   UNL     1       3.755  30.106  57.618  1.00  0.00     0.254 C 
HETATM   23  N   UNL     1       3.182  30.373  58.826  1.00  0.00    -0.366 N 
HETATM   24  H   UNL     1       3.716  30.479  59.678  1.00  0.00     0.159 HD
HETATM   25  H   UNL     1       2.204  30.627  58.842  1.00  0.00     0.159 HD
HETATM   26  O   UNL     1       3.090  30.167  56.589  1.00  0.00    -0.268 OA
ENDBRANCH   5  22
BRANCH   1  27
HETATM   27  S   UNL     1       9.100  30.077  58.306  1.00  0.00    -0.112 SA
BRANCH  27  28
HETATM   28  C   UNL     1       9.842  28.959  57.081  1.00  0.00     0.076 C 
HETATM   29  C   UNL     1      10.154  29.722  55.805  1.00  0.00     0.016 C 
ENDBRANCH  27  28
ENDBRANCH   1  27
BRANCH   6  30
HETATM   30  C   UNL     1       6.255  31.933  58.790  1.00  0.00     0.253 C 
HETATM   31  N   UNL     1       6.469  31.996  60.134  1.00  0.00    -0.366 N 
HETATM   32  H   UNL     1       6.450  31.176  60.733  1.00  0.00     0.159 HD
HETATM   33  H   UNL     1       6.355  32.897  60.573  1.00  0.00     0.159 HD
HETATM   34  O   UNL     1       6.044  32.984  58.191  1.00  0.00    -0.268 OA
ENDBRANCH   6  30
TORSDOF 8
ENDMDL
MODEL 5
REMARK VINA RESULT:      -7.9      3.661      5.252
REMARK  8 active torsions:
REMARK  status: ('A' for Active; 'I' for Inactive)
REMARK    1  A    between atoms: C_2  and  S_3 
REMARK    2  A    between atoms: S_3  and  C_4 
REMARK    3  A    between atoms: C_7  and  N_8 
REMARK    4  A    between atoms: N_8  and  C_9 
REMARK    5  A    between atoms: C_9  and  N_10 
REMARK       I    between atoms: N_10  and  C_11 
REMARK    6  A    between atoms: C_11  and  C_12 
REMARK    7  A    between atoms: C_21  and  C_22 
REMARK       I    between atoms: C_22  and  N_23 
REMARK    8  A    between atoms: C_25  and  C_26 
REMARK       I    between atoms: C_26  and  N_27 
ROOT
HETATM    1  C   UNL     1       4.484  28.890  55.518  1.00  0.00     0.088 A 
HETATM    2  N   UNL     1       4.513  27.583  55.148  1.00  0.00    -0.335 N 
HETATM    3  H   UNL     1       4.813  26.828  55.749  1.00  0.00     0.168 HD
HETATM    4  C   UNL     1       4.127  27.442  53.847  1.00  0.00     0.125 A 
HETATM    5  C   UNL     1       3.773  28.709  53.380  1.00  0.00     0.094 A 
HETATM    6  C   UNL     1       4.037  29.661  54.454  1.00  0.00     0.084 A 
ENDROOT
BRANCH   4   7
HETATM    7  N   UNL     1       4.121  26.228  53.174  1.00  0.00    -0.318 N 
HETATM    8  H   UNL     1       3.263  25.676  53.248  1.00  0.00     0.170 HD
BRANCH   7   9
HETATM    9  C   UNL     1       5.079  25.698  52.337  1.00  0.00     0.180 C 
HETATM   10  S   UNL     1       5.542  26.200  50.808  1.00  0.00    -0.040 SA
BRANCH   9  11
HETATM   11  N   UNL     1       5.744  24.591  52.840  1.00  0.00    -0.299 N 
HETATM   12  C   UNL     1       7.002  24.530  53.426  1.00  0.00     0.259 C 
HETATM   13  O   UNL     1       7.752  25.493  53.541  1.00  0.00    -0.267 OA
HETATM   14  H   UNL     1       5.210  23.734  52.760  1.00  0.00     0.171 HD
BRANCH  12  15
HETATM   15  C   UNL     1       7.410  23.183  53.886  1.00  0.00     0.054 A 
HETATM   16  C   UNL     1       7.474  22.867  55.248  1.00  0.00     0.049 A 
HETATM   17 CL   UNL     1       7.020  23.977  56.489  1.00  0.00    -0.083 Cl
HETATM   18  C   UNL     1       7.870  21.585  55.640  1.00  0.00     0.025 A 
HETATM   19  C   UNL     1       8.202  20.624  54.682  1.00  0.00     0.002 A 
HETATM   20  C   UNL     1       8.144  20.941  53.326  1.00  0.00     0.001 A 
HETATM   21  C   UNL     1       7.752  22.219  52.924  1.00  0.00     0.019 A 
ENDBRANCH  12  15
ENDBRANCH   9  11
ENDBRANCH   7   9
ENDBRANCH   4   7
BRANCH   5  22
HETATM   22  C   UNL     1       3.272  28.994  52.040  1.00  0.00     0.254 C 
HETATM   23  N   UNL     1       1.971  28.660  51.804  1.00  0.00    -0.366 N 
HETATM   24  H   UNL     1       1.339  28.358  52.532  1.00  0.00     0.159 HD
HETATM   25  H   UNL     1       1.584  28.872  50.895  1.00  0.00     0.159 HD
HETATM   26  O   UNL     1       3.945  29.527  51.164  1.00  0.00    -0.268 OA
ENDBRANCH   5  22
BRANCH   1  27
HETATM   27  S   UNL     1       4.969  29.222  57.150  1.00  0.00    -0.112 SA
BRANCH  27  28
HETATM   28  C   UNL     1       6.766  29.389  56.933  1.00  0.00     0.076 C 
HETATM   29  C   UNL     1       7.447  28.063  57.224  1.00  0.00     0.016 C 
ENDBRANCH  27  28
ENDBRANCH   1  27
BRANCH   6  30
HETATM   30  C   UNL     1       3.862  31.117  54.512  1.00  0.00     0.253 C 
HETATM   31  N   UNL     1       4.979  31.895  54.497  1.00  0.00    -0.366 N 
HETATM   32  H   UNL     1       5.914  31.520  54.636  1.00  0.00     0.159 HD
HETATM   33  H   UNL     1       4.848  32.885  54.641  1.00  0.00     0.159 HD
HETATM   34  O   UNL     1       2.771  31.676  54.591  1.00  0.00    -0.268 OA
ENDBRANCH   6  30
TORSDOF 8
ENDMDL
MODEL 6
REMARK VINA RESULT:      -7.8      2.370      3.612
REMARK  8 active torsions:
REMARK  status: ('A' for Active; 'I' for Inactive)
REMARK    1  A    between atoms: C_2  and  S_3 
REMARK    2  A    between atoms: S_3  and  C_4 
REMARK    3  A    between atoms: C_7  and  N_8 
REMARK    4  A    between atoms: N_8  and  C_9 
REMARK    5  A    between atoms: C_9  and  N_10 
REMARK       I    between atoms: N_10  and  C_11 
REMARK    6  A    between atoms: C_11  and  C_12 
REMARK    7  A    between atoms: C_21  and  C_22 
REMARK       I    between atoms: C_22  and  N_23 
REMARK    8  A    between atoms: C_25  and  C_26 
REMARK       I    between atoms: C_26  and  N_27 
ROOT
HETATM    1  C   UNL     1       7.363  29.922  57.738  1.00  0.00     0.088 A 
HETATM    2  N   UNL     1       7.206  28.813  56.970  1.00  0.00    -0.335 N 
HETATM    3  H   UNL     1       7.940  28.145  56.778  1.00  0.00     0.168 HD
HETATM    4  C   UNL     1       5.941  28.754  56.461  1.00  0.00     0.125 A 
HETATM    5  C   UNL     1       5.236  29.841  56.979  1.00  0.00     0.094 A 
HETATM    6  C   UNL     1       6.167  30.625  57.783  1.00  0.00     0.084 A 
ENDROOT
BRANCH   4   7
HETATM    7  N   UNL     1       5.510  27.766  55.587  1.00  0.00    -0.318 N 
HETATM    8  H   UNL     1       4.688  27.231  55.881  1.00  0.00     0.170 HD
BRANCH   7   9
HETATM    9  C   UNL     1       5.974  27.463  54.326  1.00  0.00     0.180 C 
HETATM   10  S   UNL     1       5.821  28.334  52.904  1.00  0.00    -0.040 SA
BRANCH   9  11
HETATM   11  N   UNL     1       6.663  26.263  54.232  1.00  0.00    -0.299 N 
HETATM   12  C   UNL     1       6.481  25.101  54.970  1.00  0.00     0.259 C 
HETATM   13  O   UNL     1       5.672  24.990  55.885  1.00  0.00    -0.267 OA
HETATM   14  H   UNL     1       7.380  26.270  53.517  1.00  0.00     0.171 HD
BRANCH  12  15
HETATM   15  C   UNL     1       7.375  23.981  54.599  1.00  0.00     0.054 A 
HETATM   16  C   UNL     1       8.430  23.586  55.430  1.00  0.00     0.049 A 
HETATM   17 CL   UNL     1       8.733  24.308  56.967  1.00  0.00    -0.083 Cl
HETATM   18  C   UNL     1       9.255  22.526  55.040  1.00  0.00     0.025 A 
HETATM   19  C   UNL     1       9.031  21.866  53.828  1.00  0.00     0.002 A 
HETATM   20  C   UNL     1       7.985  22.263  52.999  1.00  0.00     0.001 A 
HETATM   21  C   UNL     1       7.157  23.322  53.378  1.00  0.00     0.019 A 
ENDBRANCH  12  15
ENDBRANCH   9  11
ENDBRANCH   7   9
ENDBRANCH   4   7
BRANCH   5  22
HETATM   22  C   UNL     1       3.832  30.130  56.706  1.00  0.00     0.254 C 
HETATM   23  N   UNL     1       3.013  30.196  57.795  1.00  0.00    -0.366 N 
HETATM   24  H   UNL     1       3.357  30.181  58.745  1.00  0.00     0.159 HD
HETATM   25  H   UNL     1       2.040  30.425  57.644  1.00  0.00     0.159 HD
HETATM   26  O   UNL     1       3.387  30.336  55.582  1.00  0.00    -0.268 OA
ENDBRANCH   5  22
BRANCH   1  27
HETATM   27  S   UNL     1       8.935  30.137  58.440  1.00  0.00    -0.112 SA
BRANCH  27  28
HETATM   28  C   UNL     1       9.967  29.298  57.201  1.00  0.00     0.076 C 
HETATM   29  C   UNL     1      11.362  29.896  57.200  1.00  0.00     0.016 C 
ENDBRANCH  27  28
ENDBRANCH   1  27
BRANCH   6  30
HETATM   30  C   UNL     1       5.972  31.865  58.544  1.00  0.00     0.253 C 
HETATM   31  N   UNL     1       5.821  31.769  59.894  1.00  0.00    -0.366 N 
HETATM   32  H   UNL     1       5.652  30.885  60.367  1.00  0.00     0.159 HD
HETATM   33  H   UNL     1       5.586  32.616  60.388  1.00  0.00     0.159 HD
HETATM   34  O   UNL     1       5.918  32.982  58.036  1.00  0.00    -0.268 OA
ENDBRANCH   6  30
TORSDOF 8
ENDMDL
MODEL 7
REMARK VINA RESULT:      -7.8      2.359      3.322
REMARK  8 active torsions:
REMARK  status: ('A' for Active; 'I' for Inactive)
REMARK    1  A    between atoms: C_2  and  S_3 
REMARK    2  A    between atoms: S_3  and  C_4 
REMARK    3  A    between atoms: C_7  and  N_8 
REMARK    4  A    between atoms: N_8  and  C_9 
REMARK    5  A    between atoms: C_9  and  N_10 
REMARK       I    between atoms: N_10  and  C_11 
REMARK    6  A    between atoms: C_11  and  C_12 
REMARK    7  A    between atoms: C_21  and  C_22 
REMARK       I    between atoms: C_22  and  N_23 
REMARK    8  A    between atoms: C_25  and  C_26 
REMARK       I    between atoms: C_26  and  N_27 
ROOT
HETATM    1  C   UNL     1       4.710  29.494  56.841  1.00  0.00     0.088 A 
HETATM    2  N   UNL     1       4.352  28.352  56.197  1.00  0.00    -0.335 N 
HETATM    3  H   UNL     1       3.480  28.227  55.702  1.00  0.00     0.168 HD
HETATM    4  C   UNL     1       5.310  27.392  56.351  1.00  0.00     0.125 A 
HETATM    5  C   UNL     1       6.359  27.966  57.072  1.00  0.00     0.094 A 
HETATM    6  C   UNL     1       5.957  29.323  57.425  1.00  0.00     0.084 A 
ENDROOT
BRANCH   4   7
HETATM    7  N   UNL     1       5.190  26.100  55.857  1.00  0.00    -0.318 N 
HETATM    8  H   UNL     1       4.855  25.394  56.519  1.00  0.00     0.170 HD
BRANCH   7   9
HETATM    9  C   UNL     1       5.368  25.646  54.569  1.00  0.00     0.180 C 
HETATM   10  S   UNL     1       4.863  26.331  53.127  1.00  0.00    -0.040 SA
BRANCH   9  11
HETATM   11  N   UNL     1       6.063  24.451  54.464  1.00  0.00    -0.299 N 
HETATM   12  C   UNL     1       7.409  24.209  54.705  1.00  0.00     0.259 C 
HETATM   13  O   UNL     1       8.217  25.078  55.016  1.00  0.00    -0.267 OA
HETATM   14  H   UNL     1       5.479  23.674  54.179  1.00  0.00     0.171 HD
BRANCH  12  15
HETATM   15  C   UNL     1       7.831  22.802  54.523  1.00  0.00     0.054 A 
HETATM   16  C   UNL     1       8.294  22.036  55.599  1.00  0.00     0.049 A 
HETATM   17 CL   UNL     1       8.345  22.630  57.218  1.00  0.00    -0.083 Cl
HETATM   18  C   UNL     1       8.688  20.712  55.384  1.00  0.00     0.025 A 
HETATM   19  C   UNL     1       8.623  20.155  54.104  1.00  0.00     0.002 A 
HETATM   20  C   UNL     1       8.168  20.919  53.032  1.00  0.00     0.001 A 
HETATM   21  C   UNL     1       7.774  22.243  53.236  1.00  0.00     0.019 A 
ENDBRANCH  12  15
ENDBRANCH   9  11
ENDBRANCH   7   9
ENDBRANCH   4   7
BRANCH   5  22
HETATM   22  C   UNL     1       7.598  27.283  57.426  1.00  0.00     0.254 C 
HETATM   23  N   UNL     1       8.744  27.827  56.926  1.00  0.00    -0.366 N 
HETATM   24  H   UNL     1       8.769  28.718  56.450  1.00  0.00     0.159 HD
HETATM   25  H   UNL     1       9.624  27.397  57.177  1.00  0.00     0.159 HD
HETATM   26  O   UNL     1       7.646  26.295  58.151  1.00  0.00    -0.268 OA
ENDBRANCH   5  22
BRANCH   1  27
HETATM   27  S   UNL     1       3.572  30.800  56.745  1.00  0.00    -0.112 SA
BRANCH  27  28
HETATM   28  C   UNL     1       4.430  31.901  55.582  1.00  0.00     0.076 C 
HETATM   29  C   UNL     1       3.807  33.286  55.625  1.00  0.00     0.016 C 
ENDBRANCH  27  28
ENDBRANCH   1  27
BRANCH   6  30
HETATM   30  C   UNL     1       6.658  30.366  58.182  1.00  0.00     0.253 C 
HETATM   31  N   UNL     1       5.954  31.055  59.123  1.00  0.00    -0.366 N 
HETATM   32  H   UNL     1       4.941  31.011  59.194  1.00  0.00     0.159 HD
HETATM   33  H   UNL     1       6.419  31.835  59.562  1.00  0.00     0.159 HD
HETATM   34  O   UNL     1       7.835  30.670  58.007  1.00  0.00    -0.268 OA
ENDBRANCH   6  30
TORSDOF 8
ENDMDL
MODEL 8
REMARK VINA RESULT:      -7.7      2.751      3.641
REMARK  8 active torsions:
REMARK  status: ('A' for Active; 'I' for Inactive)
REMARK    1  A    between atoms: C_2  and  S_3 
REMARK    2  A    between atoms: S_3  and  C_4 
REMARK    3  A    between atoms: C_7  and  N_8 
REMARK    4  A    between atoms: N_8  and  C_9 
REMARK    5  A    between atoms: C_9  and  N_10 
REMARK       I    between atoms: N_10  and  C_11 
REMARK    6  A    between atoms: C_11  and  C_12 
REMARK    7  A    between atoms: C_21  and  C_22 
REMARK       I    between atoms: C_22  and  N_23 
REMARK    8  A    between atoms: C_25  and  C_26 
REMARK       I    between atoms: C_26  and  N_27 
ROOT
HETATM    1  C   UNL     1       5.963  31.457  58.841  1.00  0.00     0.088 A 
HETATM    2  N   UNL     1       6.875  30.952  57.970  1.00  0.00    -0.335 N 
HETATM    3  H   UNL     1       7.875  31.067  58.064  1.00  0.00     0.168 HD
HETATM    4  C   UNL     1       6.254  30.315  56.936  1.00  0.00     0.125 A 
HETATM    5  C   UNL     1       4.882  30.357  57.189  1.00  0.00     0.094 A 
HETATM    6  C   UNL     1       4.685  31.131  58.411  1.00  0.00     0.084 A 
ENDROOT
BRANCH   4   7
HETATM    7  N   UNL     1       6.929  29.757  55.860  1.00  0.00    -0.318 N 
HETATM    8  H   UNL     1       6.526  29.931  54.935  1.00  0.00     0.170 HD
BRANCH   7   9
HETATM    9  C   UNL     1       8.127  29.076  55.848  1.00  0.00     0.180 C 
HETATM   10  S   UNL     1       9.595  29.508  56.527  1.00  0.00    -0.040 SA
BRANCH   9  11
HETATM   11  N   UNL     1       8.101  27.865  55.175  1.00  0.00    -0.299 N 
HETATM   12  C   UNL     1       7.125  26.877  55.206  1.00  0.00     0.259 C 
HETATM   13  O   UNL     1       6.122  26.928  55.908  1.00  0.00    -0.267 OA
HETATM   14  H   UNL     1       8.914  27.718  54.587  1.00  0.00     0.171 HD
BRANCH  12  15
HETATM   15  C   UNL     1       7.395  25.707  54.341  1.00  0.00     0.054 A 
HETATM   16  C   UNL     1       7.570  24.427  54.882  1.00  0.00     0.049 A 
HETATM   17 CL   UNL     1       7.417  24.094  56.568  1.00  0.00    -0.083 Cl
HETATM   18  C   UNL     1       7.829  23.348  54.030  1.00  0.00     0.025 A 
HETATM   19  C   UNL     1       7.915  23.544  52.649  1.00  0.00     0.002 A 
HETATM   20  C   UNL     1       7.747  24.818  52.112  1.00  0.00     0.001 A 
HETATM   21  C   UNL     1       7.490  25.902  52.954  1.00  0.00     0.019 A 
ENDBRANCH  12  15
ENDBRANCH   9  11
ENDBRANCH   7   9
ENDBRANCH   4   7
BRANCH   5  22
HETATM   22  C   UNL     1       3.859  29.759  56.339  1.00  0.00     0.254 C 
HETATM   23  N   UNL     1       3.748  28.401  56.400  1.00  0.00    -0.366 N 
HETATM   24  H   UNL     1       4.241  27.839  57.080  1.00  0.00     0.159 HD
HETATM   25  H   UNL     1       3.028  27.957  55.847  1.00  0.00     0.159 HD
HETATM   26  O   UNL     1       3.106  30.411  55.622  1.00  0.00    -0.268 OA
ENDBRANCH   5  22
BRANCH   1  27
HETATM   27  S   UNL     1       6.614  32.313  60.202  1.00  0.00    -0.112 SA
BRANCH  27  28
HETATM   28  C   UNL     1       8.061  31.281  60.581  1.00  0.00     0.076 C 
HETATM   29  C   UNL     1       9.321  32.128  60.557  1.00  0.00     0.016 C 
ENDBRANCH  27  28
ENDBRANCH   1  27
BRANCH   6  30
HETATM   30  C   UNL     1       3.459  31.499  59.127  1.00  0.00     0.253 C 
HETATM   31  N   UNL     1       2.930  30.592  59.996  1.00  0.00    -0.366 N 
HETATM   32  H   UNL     1       3.232  29.622  60.029  1.00  0.00     0.159 HD
HETATM   33  H   UNL     1       2.035  30.817  60.402  1.00  0.00     0.159 HD
HETATM   34  O   UNL     1       2.869  32.565  58.980  1.00  0.00    -0.268 OA
ENDBRANCH   6  30
TORSDOF 8
ENDMDL
MODEL 9
REMARK VINA RESULT:      -7.6      4.447      6.447
REMARK  8 active torsions:
REMARK  status: ('A' for Active; 'I' for Inactive)
REMARK    1  A    between atoms: C_2  and  S_3 
REMARK    2  A    between atoms: S_3  and  C_4 
REMARK    3  A    between atoms: C_7  and  N_8 
REMARK    4  A    between atoms: N_8  and  C_9 
REMARK    5  A    between atoms: C_9  and  N_10 
REMARK       I    between atoms: N_10  and  C_11 
REMARK    6  A    between atoms: C_11  and  C_12 
REMARK    7  A    between atoms: C_21  and  C_22 
REMARK       I    between atoms: C_22  and  N_23 
REMARK    8  A    between atoms: C_25  and  C_26 
REMARK       I    between atoms: C_26  and  N_27 
ROOT
HETATM    1  C   UNL     1       4.593  29.832  51.730  1.00  0.00     0.088 A 
HETATM    2  N   UNL     1       4.999  29.715  53.022  1.00  0.00    -0.335 N 
HETATM    3  H   UNL     1       5.132  30.496  53.650  1.00  0.00     0.168 HD
HETATM    4  C   UNL     1       5.244  28.410  53.333  1.00  0.00     0.125 A 
HETATM    5  C   UNL     1       4.918  27.648  52.209  1.00  0.00     0.094 A 
HETATM    6  C   UNL     1       4.528  28.574  51.151  1.00  0.00     0.084 A 
ENDROOT
BRANCH   4   7
HETATM    7  N   UNL     1       5.733  27.991  54.563  1.00  0.00    -0.318 N 
HETATM    8  H   UNL     1       5.033  27.758  55.271  1.00  0.00     0.170 HD
BRANCH   7   9
HETATM    9  C   UNL     1       7.037  27.752  54.939  1.00  0.00     0.180 C 
HETATM   10  S   UNL     1       8.154  28.804  55.610  1.00  0.00    -0.040 SA
BRANCH   9  11
HETATM   11  N   UNL     1       7.476  26.454  54.725  1.00  0.00    -0.299 N 
HETATM   12  C   UNL     1       6.846  25.262  55.057  1.00  0.00     0.259 C 
HETATM   13  O   UNL     1       5.779  25.195  55.658  1.00  0.00    -0.267 OA
HETATM   14  H   UNL     1       8.373  26.409  54.258  1.00  0.00     0.171 HD
BRANCH  12  15
HETATM   15  C   UNL     1       7.580  24.039  54.662  1.00  0.00     0.054 A 
HETATM   16  C   UNL     1       8.598  23.511  55.464  1.00  0.00     0.049 A 
HETATM   17 CL   UNL     1       9.033  24.185  56.992  1.00  0.00    -0.083 Cl
HETATM   18  C   UNL     1       9.271  22.356  55.052  1.00  0.00     0.025 A 
HETATM   19  C   UNL     1       8.932  21.733  53.848  1.00  0.00     0.002 A 
HETATM   20  C   UNL     1       7.922  22.262  53.047  1.00  0.00     0.001 A 
HETATM   21  C   UNL     1       7.246  23.416  53.449  1.00  0.00     0.019 A 
ENDBRANCH  12  15
ENDBRANCH   9  11
ENDBRANCH   7   9
ENDBRANCH   4   7
BRANCH   5  22
HETATM   22  C   UNL     1       5.007  26.194  52.134  1.00  0.00     0.254 C 
HETATM   23  N   UNL     1       4.161  25.500  52.948  1.00  0.00    -0.366 N 
HETATM   24  H   UNL     1       3.422  25.940  53.479  1.00  0.00     0.159 HD
HETATM   25  H   UNL     1       4.175  24.491  52.898  1.00  0.00     0.159 HD
HETATM   26  O   UNL     1       5.764  25.599  51.374  1.00  0.00    -0.268 OA
ENDBRANCH   5  22
BRANCH   1  27
HETATM   27  S   UNL     1       4.262  31.447  51.189  1.00  0.00    -0.112 SA
BRANCH  27  28
HETATM   28  C   UNL     1       4.023  32.288  52.782  1.00  0.00     0.076 C 
HETATM   29  C   UNL     1       2.774  33.151  52.729  1.00  0.00     0.016 C 
ENDBRANCH  27  28
ENDBRANCH   1  27
BRANCH   6  30
HETATM   30  C   UNL     1       4.103  28.327  49.768  1.00  0.00     0.253 C 
HETATM   31  N   UNL     1       2.905  27.711  49.569  1.00  0.00    -0.366 N 
HETATM   32  H   UNL     1       2.389  27.255  50.316  1.00  0.00     0.159 HD
HETATM   33  H   UNL     1       2.674  27.458  48.620  1.00  0.00     0.159 HD
HETATM   34  O   UNL     1       4.769  28.626  48.781  1.00  0.00    -0.268 OA
ENDBRANCH   6  30
TORSDOF 8
ENDMDL
MODEL 10
REMARK VINA RESULT:      -7.4      2.790      3.785
REMARK  8 active torsions:
REMARK  status: ('A' for Active; 'I' for Inactive)
REMARK    1  A    between atoms: C_2  and  S_3 
REMARK    2  A    between atoms: S_3  and  C_4 
REMARK    3  A    between atoms: C_7  and  N_8 
REMARK    4  A    between atoms: N_8  and  C_9 
REMARK    5  A    between atoms: C_9  and  N_10 
REMARK       I    between atoms: N_10  and  C_11 
REMARK    6  A    between atoms: C_11  and  C_12 
REMARK    7  A    between atoms: C_21  and  C_22 
REMARK       I    between atoms: C_22  and  N_23 
REMARK    8  A    between atoms: C_25  and  C_26 
REMARK       I    between atoms: C_26  and  N_27 
ROOT
HETATM    1  C   UNL     1       4.239  30.235  57.275  1.00  0.00     0.088 A 
HETATM    2  N   UNL     1       4.778  29.044  57.643  1.00  0.00    -0.335 N 
HETATM    3  H   UNL     1       4.962  28.774  58.600  1.00  0.00     0.168 HD
HETATM    4  C   UNL     1       5.075  28.290  56.546  1.00  0.00     0.125 A 
HETATM    5  C   UNL     1       4.647  29.003  55.425  1.00  0.00     0.094 A 
HETATM    6  C   UNL     1       4.134  30.287  55.893  1.00  0.00     0.084 A 
ENDROOT
BRANCH   4   7
HETATM    7  N   UNL     1       5.696  27.050  56.611  1.00  0.00    -0.318 N 
HETATM    8  H   UNL     1       5.076  26.236  56.647  1.00  0.00     0.170 HD
BRANCH   7   9
HETATM    9  C   UNL     1       7.039  26.750  56.537  1.00  0.00     0.180 C 
HETATM   10  S   UNL     1       8.355  27.660  57.032  1.00  0.00    -0.040 SA
BRANCH   9  11
HETATM   11  N   UNL     1       7.330  25.520  55.968  1.00  0.00    -0.299 N 
HETATM   12  C   UNL     1       6.623  24.827  54.995  1.00  0.00     0.259 C 
HETATM   13  O   UNL     1       5.562  25.212  54.514  1.00  0.00    -0.267 OA
HETATM   14  H   UNL     1       8.181  25.105  56.330  1.00  0.00     0.171 HD
BRANCH  12  15
HETATM   15  C   UNL     1       7.225  23.539  54.585  1.00  0.00     0.054 A 
HETATM   16  C   UNL     1       7.663  23.324  53.273  1.00  0.00     0.049 A 
HETATM   17 CL   UNL     1       7.607  24.546  52.055  1.00  0.00    -0.083 Cl
HETATM   18  C   UNL     1       8.222  22.090  52.925  1.00  0.00     0.025 A 
HETATM   19  C   UNL     1       8.342  21.076  53.878  1.00  0.00     0.002 A 
HETATM   20  C   UNL     1       7.901  21.288  55.183  1.00  0.00     0.001 A 
HETATM   21  C   UNL     1       7.340  22.515  55.539  1.00  0.00     0.019 A 
ENDBRANCH  12  15
ENDBRANCH   9  11
ENDBRANCH   7   9
ENDBRANCH   4   7
BRANCH   5  22
HETATM   22  C   UNL     1       4.751  28.533  54.048  1.00  0.00     0.254 C 
HETATM   23  N   UNL     1       5.917  28.824  53.403  1.00  0.00    -0.366 N 
HETATM   24  H   UNL     1       6.720  29.222  53.870  1.00  0.00     0.159 HD
HETATM   25  H   UNL     1       6.034  28.486  52.458  1.00  0.00     0.159 HD
HETATM   26  O   UNL     1       3.875  27.886  53.484  1.00  0.00    -0.268 OA
ENDBRANCH   5  22
BRANCH   1  27
HETATM   27  S   UNL     1       3.827  31.309  58.573  1.00  0.00    -0.112 SA
BRANCH  27  28
HETATM   28  C   UNL     1       5.240  32.451  58.519  1.00  0.00     0.076 C 
HETATM   29  C   UNL     1       5.986  32.414  59.841  1.00  0.00     0.016 C 
ENDBRANCH  27  28
ENDBRANCH   1  27
BRANCH   6  30
HETATM   30  C   UNL     1       3.572  31.423  55.153  1.00  0.00     0.253 C 
HETATM   31  N   UNL     1       2.217  31.561  55.129  1.00  0.00    -0.366 N 
HETATM   32  H   UNL     1       1.583  30.827  55.433  1.00  0.00     0.159 HD
HETATM   33  H   UNL     1       1.843  32.285  54.534  1.00  0.00     0.159 HD
HETATM   34  O   UNL     1       4.246  32.246  54.540  1.00  0.00    -0.268 OA
ENDBRANCH   6  30
TORSDOF 8
ENDMDL
