MODEL 1
REMARK VINA RESULT:      -8.6      0.000      0.000
REMARK  3 active torsions:
REMARK  status: ('A' for Active; 'I' for Inactive)
REMARK    1  A    between atoms: C_7  and  C_8 
REMARK       I    between atoms: C_8  and  N_9 
REMARK    2  A    between atoms: N_9  and  C_10 
REMARK    3  A    between atoms: C_13  and  C_14 
REMARK       I    between atoms: C_14  and  N_15 
ROOT
HETATM    1  C   UNL     1       8.054  25.769  56.899  1.00  0.00     0.256 C 
HETATM    2  N   UNL     1       8.038  27.054  56.384  1.00  0.00    -0.322 N 
HETATM    3  O   UNL     1       8.209  25.483  58.081  1.00  0.00    -0.267 OA
HETATM    4  H   UNL     1       8.004  27.165  55.381  1.00  0.00     0.169 HD
ENDROOT
BRANCH   2   5
HETATM    5  C   UNL     1       8.100  28.254  57.128  1.00  0.00     0.052 A 
HETATM    6  C   UNL     1       7.009  28.897  57.713  1.00  0.00     0.147 A 
HETATM    7  N   UNL     1       7.087  30.061  58.409  1.00  0.00    -0.253 NA
HETATM    8  C   UNL     1       8.324  30.616  58.523  1.00  0.00     0.124 A 
HETATM    9  C   UNL     1       9.472  30.057  57.981  1.00  0.00     0.039 A 
HETATM   10  C   UNL     1       9.352  28.858  57.278  1.00  0.00     0.033 A 
BRANCH   8  11
HETATM   11  C   UNL     1       8.407  31.905  59.280  1.00  0.00     0.268 C 
HETATM   12  N   UNL     1       7.268  32.264  59.947  1.00  0.00    -0.365 N 
HETATM   13  H   UNL     1       6.452  31.663  59.894  1.00  0.00     0.159 HD
HETATM   14  H   UNL     1       7.243  33.122  60.477  1.00  0.00     0.159 HD
HETATM   15  O   UNL     1       9.420  32.593  59.305  1.00  0.00    -0.266 OA
ENDBRANCH   8  11
ENDBRANCH   2   5
BRANCH   1  16
HETATM   16  C   UNL     1       7.882  24.653  55.918  1.00  0.00     0.034 A 
HETATM   17  C   UNL     1       7.819  23.309  56.300  1.00  0.00     0.041 A 
HETATM   18  C   UNL     1       7.673  22.320  55.325  1.00  0.00     0.035 A 
HETATM   19  C   UNL     1       7.612  22.650  53.971  1.00  0.00     0.030 A 
HETATM   20 CL   UNL     1       7.577  20.669  55.803  1.00  0.00    -0.084 Cl
HETATM   21  C   UNL     1       7.712  23.985  53.571  1.00  0.00    -0.059 A 
HETATM   22  C   UNL     1       7.651  24.361  52.120  1.00  0.00     0.048 C 
HETATM   23  C   UNL     1       7.832  24.981  54.551  1.00  0.00     0.024 A 
ENDBRANCH   1  16
TORSDOF 3
ENDMDL
MODEL 2
REMARK VINA RESULT:      -8.6      4.597      7.102
REMARK  3 active torsions:
REMARK  status: ('A' for Active; 'I' for Inactive)
REMARK    1  A    between atoms: C_7  and  C_8 
REMARK       I    between atoms: C_8  and  N_9 
REMARK    2  A    between atoms: N_9  and  C_10 
REMARK    3  A    between atoms: C_13  and  C_14 
REMARK       I    between atoms: C_14  and  N_15 
ROOT
HETATM    1  C   UNL     1       7.561  31.466  59.990  1.00  0.00     0.256 C 
HETATM    2  N   UNL     1       7.438  30.970  61.277  1.00  0.00    -0.322 N 
HETATM    3  O   UNL     1       7.191  32.575  59.621  1.00  0.00    -0.267 OA
HETATM    4  H   UNL     1       7.685  30.005  61.442  1.00  0.00     0.169 HD
ENDROOT
BRANCH   2   5
HETATM    5  C   UNL     1       6.959  31.677  62.403  1.00  0.00     0.052 A 
HETATM    6  C   UNL     1       5.629  31.724  62.820  1.00  0.00     0.147 A 
HETATM    7  N   UNL     1       5.187  32.425  63.897  1.00  0.00    -0.253 NA
HETATM    8  C   UNL     1       6.126  33.120  64.594  1.00  0.00     0.124 A 
HETATM    9  C   UNL     1       7.473  33.138  64.264  1.00  0.00     0.039 A 
HETATM   10  C   UNL     1       7.890  32.402  63.155  1.00  0.00     0.033 A 
BRANCH   8  11
HETATM   11  C   UNL     1       5.636  33.902  65.772  1.00  0.00     0.268 C 
HETATM   12  N   UNL     1       6.613  34.484  66.533  1.00  0.00    -0.365 N 
HETATM   13  H   UNL     1       7.586  34.358  66.272  1.00  0.00     0.159 HD
HETATM   14  H   UNL     1       6.364  35.025  67.347  1.00  0.00     0.159 HD
HETATM   15  O   UNL     1       4.447  34.017  66.042  1.00  0.00    -0.266 OA
ENDBRANCH   8  11
ENDBRANCH   2   5
BRANCH   1  16
HETATM   16  C   UNL     1       8.183  30.555  58.979  1.00  0.00     0.034 A 
HETATM   17  C   UNL     1       9.529  30.640  58.607  1.00  0.00     0.041 A 
HETATM   18  C   UNL     1      10.035  29.764  57.644  1.00  0.00     0.035 A 
HETATM   19  C   UNL     1       9.214  28.818  57.031  1.00  0.00     0.030 A 
HETATM   20 CL   UNL     1      11.696  29.862  57.204  1.00  0.00    -0.084 Cl
HETATM   21  C   UNL     1       7.859  28.747  57.365  1.00  0.00    -0.059 A 
HETATM   22  C   UNL     1       6.958  27.739  56.714  1.00  0.00     0.048 C 
HETATM   23  C   UNL     1       7.355  29.608  58.351  1.00  0.00     0.024 A 
ENDBRANCH   1  16
TORSDOF 3
ENDMDL
MODEL 3
REMARK VINA RESULT:      -8.3      1.702      2.038
REMARK  3 active torsions:
REMARK  status: ('A' for Active; 'I' for Inactive)
REMARK    1  A    between atoms: C_7  and  C_8 
REMARK       I    between atoms: C_8  and  N_9 
REMARK    2  A    between atoms: N_9  and  C_10 
REMARK    3  A    between atoms: C_13  and  C_14 
REMARK       I    between atoms: C_14  and  N_15 
ROOT
HETATM    1  C   UNL     1       7.946  25.992  56.375  1.00  0.00     0.256 C 
HETATM    2  N   UNL     1       8.058  27.343  56.098  1.00  0.00    -0.322 N 
HETATM    3  O   UNL     1       8.144  25.475  57.469  1.00  0.00    -0.267 OA
HETATM    4  H   UNL     1       7.970  27.642  55.137  1.00  0.00     0.169 HD
ENDROOT
BRANCH   2   5
HETATM    5  C   UNL     1       8.323  28.370  57.033  1.00  0.00     0.052 A 
HETATM    6  C   UNL     1       7.401  28.891  57.940  1.00  0.00     0.147 A 
HETATM    7  N   UNL     1       7.671  29.892  58.819  1.00  0.00    -0.253 NA
HETATM    8  C   UNL     1       8.932  30.402  58.786  1.00  0.00     0.124 A 
HETATM    9  C   UNL     1       9.922  29.954  57.924  1.00  0.00     0.039 A 
HETATM   10  C   UNL     1       9.609  28.922  57.040  1.00  0.00     0.033 A 
BRANCH   8  11
HETATM   11  C   UNL     1       9.225  31.512  59.746  1.00  0.00     0.268 C 
HETATM   12  N   UNL     1       9.440  31.123  61.040  1.00  0.00    -0.365 N 
HETATM   13  H   UNL     1       9.388  30.138  61.276  1.00  0.00     0.159 HD
HETATM   14  H   UNL     1       9.640  31.813  61.748  1.00  0.00     0.159 HD
HETATM   15  O   UNL     1       9.272  32.687  59.404  1.00  0.00    -0.266 OA
ENDBRANCH   8  11
ENDBRANCH   2   5
BRANCH   1  16
HETATM   16  C   UNL     1       7.566  25.104  55.231  1.00  0.00     0.034 A 
HETATM   17  C   UNL     1       6.455  25.347  54.418  1.00  0.00     0.041 A 
HETATM   18  C   UNL     1       6.154  24.465  53.378  1.00  0.00     0.035 A 
HETATM   19  C   UNL     1       6.934  23.332  53.150  1.00  0.00     0.030 A 
HETATM   20 CL   UNL     1       4.796  24.780  52.369  1.00  0.00    -0.084 Cl
HETATM   21  C   UNL     1       8.026  23.055  53.978  1.00  0.00    -0.059 A 
HETATM   22  C   UNL     1       8.875  21.839  53.752  1.00  0.00     0.048 C 
HETATM   23  C   UNL     1       8.344  23.955  55.006  1.00  0.00     0.024 A 
ENDBRANCH   1  16
TORSDOF 3
ENDMDL
MODEL 4
REMARK VINA RESULT:      -7.9      6.167      8.183
REMARK  3 active torsions:
REMARK  status: ('A' for Active; 'I' for Inactive)
REMARK    1  A    between atoms: C_7  and  C_8 
REMARK       I    between atoms: C_8  and  N_9 
REMARK    2  A    between atoms: N_9  and  C_10 
REMARK    3  A    between atoms: C_13  and  C_14 
REMARK       I    between atoms: C_14  and  N_15 
ROOT
HETATM    1  C   UNL     1       5.401  25.200  52.289  1.00  0.00     0.256 C 
HETATM    2  N   UNL     1       6.685  24.710  52.453  1.00  0.00    -0.322 N 
HETATM    3  O   UNL     1       4.414  24.819  52.908  1.00  0.00    -0.267 OA
HETATM    4  H   UNL     1       7.402  25.027  51.816  1.00  0.00     0.169 HD
ENDROOT
BRANCH   2   5
HETATM    5  C   UNL     1       7.103  23.765  53.417  1.00  0.00     0.052 A 
HETATM    6  C   UNL     1       6.992  23.920  54.799  1.00  0.00     0.147 A 
HETATM    7  N   UNL     1       7.417  23.006  55.710  1.00  0.00    -0.253 NA
HETATM    8  C   UNL     1       7.987  21.876  55.213  1.00  0.00     0.124 A 
HETATM    9  C   UNL     1       8.143  21.624  53.857  1.00  0.00     0.039 A 
HETATM   10  C   UNL     1       7.690  22.583  52.952  1.00  0.00     0.033 A 
BRANCH   8  11
HETATM   11  C   UNL     1       8.467  20.875  56.217  1.00  0.00     0.268 C 
HETATM   12  N   UNL     1       9.035  19.746  55.691  1.00  0.00    -0.365 N 
HETATM   13  H   UNL     1       9.096  19.646  54.683  1.00  0.00     0.159 HD
HETATM   14  H   UNL     1       9.379  19.023  56.304  1.00  0.00     0.159 HD
HETATM   15  O   UNL     1       8.362  21.048  57.425  1.00  0.00    -0.266 OA
ENDBRANCH   8  11
ENDBRANCH   2   5
BRANCH   1  16
HETATM   16  C   UNL     1       5.220  26.268  51.257  1.00  0.00     0.034 A 
HETATM   17  C   UNL     1       5.461  27.622  51.515  1.00  0.00     0.041 A 
HETATM   18  C   UNL     1       5.255  28.564  50.506  1.00  0.00     0.035 A 
HETATM   19  C   UNL     1       4.791  28.180  49.248  1.00  0.00     0.030 A 
HETATM   20 CL   UNL     1       5.571  30.226  50.824  1.00  0.00    -0.084 Cl
HETATM   21  C   UNL     1       4.510  26.836  48.986  1.00  0.00    -0.059 A 
HETATM   22  C   UNL     1       4.008  26.402  47.640  1.00  0.00     0.048 C 
HETATM   23  C   UNL     1       4.742  25.885  49.991  1.00  0.00     0.024 A 
ENDBRANCH   1  16
TORSDOF 3
ENDMDL
MODEL 5
REMARK VINA RESULT:      -7.9      3.911      8.151
REMARK  3 active torsions:
REMARK  status: ('A' for Active; 'I' for Inactive)
REMARK    1  A    between atoms: C_7  and  C_8 
REMARK       I    between atoms: C_8  and  N_9 
REMARK    2  A    between atoms: N_9  and  C_10 
REMARK    3  A    between atoms: C_13  and  C_14 
REMARK       I    between atoms: C_14  and  N_15 
ROOT
HETATM    1  C   UNL     1       6.390  25.992  56.763  1.00  0.00     0.256 C 
HETATM    2  N   UNL     1       7.446  25.594  55.963  1.00  0.00    -0.322 N 
HETATM    3  O   UNL     1       5.494  25.260  57.169  1.00  0.00    -0.267 OA
HETATM    4  H   UNL     1       8.069  26.304  55.607  1.00  0.00     0.169 HD
ENDROOT
BRANCH   2   5
HETATM    5  C   UNL     1       7.733  24.272  55.553  1.00  0.00     0.052 A 
HETATM    6  C   UNL     1       8.335  23.295  56.346  1.00  0.00     0.147 A 
HETATM    7  N   UNL     1       8.619  22.034  55.927  1.00  0.00    -0.253 NA
HETATM    8  C   UNL     1       8.286  21.734  54.643  1.00  0.00     0.124 A 
HETATM    9  C   UNL     1       7.683  22.631  53.773  1.00  0.00     0.039 A 
HETATM   10  C   UNL     1       7.402  23.915  54.242  1.00  0.00     0.033 A 
BRANCH   8  11
HETATM   11  C   UNL     1       8.611  20.349  54.178  1.00  0.00     0.268 C 
HETATM   12  N   UNL     1       9.103  19.511  55.141  1.00  0.00    -0.365 N 
HETATM   13  H   UNL     1       9.224  19.859  56.086  1.00  0.00     0.159 HD
HETATM   14  H   UNL     1       9.350  18.561  54.906  1.00  0.00     0.159 HD
HETATM   15  O   UNL     1       8.448  19.984  53.020  1.00  0.00    -0.266 OA
ENDBRANCH   8  11
ENDBRANCH   2   5
BRANCH   1  16
HETATM   16  C   UNL     1       6.346  27.440  57.141  1.00  0.00     0.034 A 
HETATM   17  C   UNL     1       5.204  28.231  56.984  1.00  0.00     0.041 A 
HETATM   18  C   UNL     1       5.243  29.579  57.344  1.00  0.00     0.035 A 
HETATM   19  C   UNL     1       6.412  30.157  57.840  1.00  0.00     0.030 A 
HETATM   20 CL   UNL     1       3.828  30.543  57.166  1.00  0.00    -0.084 Cl
HETATM   21  C   UNL     1       7.572  29.388  57.967  1.00  0.00    -0.059 A 
HETATM   22  C   UNL     1       8.841  29.991  58.494  1.00  0.00     0.048 C 
HETATM   23  C   UNL     1       7.527  28.027  57.630  1.00  0.00     0.024 A 
ENDBRANCH   1  16
TORSDOF 3
ENDMDL
MODEL 6
REMARK VINA RESULT:      -7.9      4.642      7.136
REMARK  3 active torsions:
REMARK  status: ('A' for Active; 'I' for Inactive)
REMARK    1  A    between atoms: C_7  and  C_8 
REMARK       I    between atoms: C_8  and  N_9 
REMARK    2  A    between atoms: N_9  and  C_10 
REMARK    3  A    between atoms: C_13  and  C_14 
REMARK       I    between atoms: C_14  and  N_15 
ROOT
HETATM    1  C   UNL     1       8.103  31.636  60.087  1.00  0.00     0.256 C 
HETATM    2  N   UNL     1       7.370  31.157  61.159  1.00  0.00    -0.322 N 
HETATM    3  O   UNL     1       8.496  32.790  59.957  1.00  0.00    -0.267 OA
HETATM    4  H   UNL     1       7.015  30.213  61.110  1.00  0.00     0.169 HD
ENDROOT
BRANCH   2   5
HETATM    5  C   UNL     1       7.030  31.876  62.327  1.00  0.00     0.052 A 
HETATM    6  C   UNL     1       7.940  32.412  63.238  1.00  0.00     0.147 A 
HETATM    7  N   UNL     1       7.591  33.085  64.366  1.00  0.00    -0.253 NA
HETATM    8  C   UNL     1       6.258  33.227  64.598  1.00  0.00     0.124 A 
HETATM    9  C   UNL     1       5.272  32.734  63.755  1.00  0.00     0.039 A 
HETATM   10  C   UNL     1       5.670  32.053  62.604  1.00  0.00     0.033 A 
BRANCH   8  11
HETATM   11  C   UNL     1       5.874  33.957  65.847  1.00  0.00     0.268 C 
HETATM   12  N   UNL     1       6.874  34.097  66.771  1.00  0.00    -0.365 N 
HETATM   13  H   UNL     1       7.790  33.709  66.572  1.00  0.00     0.159 HD
HETATM   14  H   UNL     1       6.694  34.575  67.640  1.00  0.00     0.159 HD
HETATM   15  O   UNL     1       4.749  34.402  66.034  1.00  0.00    -0.266 OA
ENDBRANCH   8  11
ENDBRANCH   2   5
BRANCH   1  16
HETATM   16  C   UNL     1       8.418  30.655  59.001  1.00  0.00     0.034 A 
HETATM   17  C   UNL     1       7.473  29.761  58.488  1.00  0.00     0.041 A 
HETATM   18  C   UNL     1       7.844  28.864  57.485  1.00  0.00     0.035 A 
HETATM   19  C   UNL     1       9.152  28.829  57.000  1.00  0.00     0.030 A 
HETATM   20 CL   UNL     1       6.671  27.779  56.844  1.00  0.00    -0.084 Cl
HETATM   21  C   UNL     1      10.117  29.691  57.530  1.00  0.00    -0.059 A 
HETATM   22  C   UNL     1      11.530  29.667  57.025  1.00  0.00     0.048 C 
HETATM   23  C   UNL     1       9.738  30.610  58.519  1.00  0.00     0.024 A 
ENDBRANCH   1  16
TORSDOF 3
ENDMDL
MODEL 7
REMARK VINA RESULT:      -7.8      3.863      8.144
REMARK  3 active torsions:
REMARK  status: ('A' for Active; 'I' for Inactive)
REMARK    1  A    between atoms: C_7  and  C_8 
REMARK       I    between atoms: C_8  and  N_9 
REMARK    2  A    between atoms: N_9  and  C_10 
REMARK    3  A    between atoms: C_13  and  C_14 
REMARK       I    between atoms: C_14  and  N_15 
ROOT
HETATM    1  C   UNL     1       6.543  26.091  56.586  1.00  0.00     0.256 C 
HETATM    2  N   UNL     1       7.600  25.656  55.806  1.00  0.00    -0.322 N 
HETATM    3  O   UNL     1       5.575  25.412  56.908  1.00  0.00    -0.267 OA
HETATM    4  H   UNL     1       8.292  26.333  55.520  1.00  0.00     0.169 HD
ENDROOT
BRANCH   2   5
HETATM    5  C   UNL     1       7.800  24.342  55.326  1.00  0.00     0.052 A 
HETATM    6  C   UNL     1       8.251  23.265  56.090  1.00  0.00     0.147 A 
HETATM    7  N   UNL     1       8.455  22.013  55.605  1.00  0.00    -0.253 NA
HETATM    8  C   UNL     1       8.197  21.826  54.283  1.00  0.00     0.124 A 
HETATM    9  C   UNL     1       7.744  22.829  53.437  1.00  0.00     0.039 A 
HETATM   10  C   UNL     1       7.542  24.101  53.973  1.00  0.00     0.033 A 
BRANCH   8  11
HETATM   11  C   UNL     1       8.433  20.449  53.746  1.00  0.00     0.268 C 
HETATM   12  N   UNL     1       8.051  20.255  52.447  1.00  0.00    -0.365 N 
HETATM   13  H   UNL     1       7.637  21.026  51.932  1.00  0.00     0.159 HD
HETATM   14  H   UNL     1       8.174  19.353  52.014  1.00  0.00     0.159 HD
HETATM   15  O   UNL     1       8.934  19.555  54.417  1.00  0.00    -0.266 OA
ENDBRANCH   8  11
ENDBRANCH   2   5
BRANCH   1  16
HETATM   16  C   UNL     1       6.596  27.513  57.051  1.00  0.00     0.034 A 
HETATM   17  C   UNL     1       7.761  28.106  57.549  1.00  0.00     0.041 A 
HETATM   18  C   UNL     1       7.730  29.434  57.979  1.00  0.00     0.035 A 
HETATM   19  C   UNL     1       6.549  30.174  57.941  1.00  0.00     0.030 A 
HETATM   20 CL   UNL     1       9.171  30.164  58.573  1.00  0.00    -0.084 Cl
HETATM   21  C   UNL     1       5.368  29.584  57.481  1.00  0.00    -0.059 A 
HETATM   22  C   UNL     1       4.086  30.361  57.435  1.00  0.00     0.048 C 
HETATM   23  C   UNL     1       5.404  28.258  57.024  1.00  0.00     0.024 A 
ENDBRANCH   1  16
TORSDOF 3
ENDMDL
MODEL 8
REMARK VINA RESULT:      -7.7      5.523      7.037
REMARK  3 active torsions:
REMARK  status: ('A' for Active; 'I' for Inactive)
REMARK    1  A    between atoms: C_7  and  C_8 
REMARK       I    between atoms: C_8  and  N_9 
REMARK    2  A    between atoms: N_9  and  C_10 
REMARK    3  A    between atoms: C_13  and  C_14 
REMARK       I    between atoms: C_14  and  N_15 
ROOT
HETATM    1  C   UNL     1       7.315  25.102  52.529  1.00  0.00     0.256 C 
HETATM    2  N   UNL     1       5.970  25.281  52.255  1.00  0.00    -0.322 N 
HETATM    3  O   UNL     1       8.225  25.796  52.090  1.00  0.00    -0.267 OA
HETATM    4  H   UNL     1       5.318  24.587  52.590  1.00  0.00     0.169 HD
ENDROOT
BRANCH   2   5
HETATM    5  C   UNL     1       5.402  26.340  51.510  1.00  0.00     0.052 A 
HETATM    6  C   UNL     1       5.243  27.649  51.962  1.00  0.00     0.147 A 
HETATM    7  N   UNL     1       4.677  28.648  51.235  1.00  0.00    -0.253 NA
HETATM    8  C   UNL     1       4.243  28.319  49.989  1.00  0.00     0.124 A 
HETATM    9  C   UNL     1       4.355  27.048  49.445  1.00  0.00     0.039 A 
HETATM   10  C   UNL     1       4.946  26.049  50.219  1.00  0.00     0.033 A 
BRANCH   8  11
HETATM   11  C   UNL     1       3.609  29.417  49.194  1.00  0.00     0.268 C 
HETATM   12  N   UNL     1       3.406  29.137  47.870  1.00  0.00    -0.365 N 
HETATM   13  H   UNL     1       3.690  28.233  47.506  1.00  0.00     0.159 HD
HETATM   14  H   UNL     1       2.987  29.827  47.266  1.00  0.00     0.159 HD
HETATM   15  O   UNL     1       3.290  30.492  49.687  1.00  0.00    -0.266 OA
ENDBRANCH   8  11
ENDBRANCH   2   5
BRANCH   1  16
HETATM   16  C   UNL     1       7.668  23.953  53.421  1.00  0.00     0.034 A 
HETATM   17  C   UNL     1       7.852  24.092  54.801  1.00  0.00     0.041 A 
HETATM   18  C   UNL     1       8.196  22.977  55.567  1.00  0.00     0.035 A 
HETATM   19  C   UNL     1       8.380  21.728  54.976  1.00  0.00     0.030 A 
HETATM   20 CL   UNL     1       8.404  23.152  57.267  1.00  0.00    -0.084 Cl
HETATM   21  C   UNL     1       8.236  21.581  53.593  1.00  0.00    -0.059 A 
HETATM   22  C   UNL     1       8.433  20.246  52.936  1.00  0.00     0.048 C 
HETATM   23  C   UNL     1       7.865  22.695  52.826  1.00  0.00     0.024 A 
ENDBRANCH   1  16
TORSDOF 3
ENDMDL
MODEL 9
REMARK VINA RESULT:      -7.7      6.087      8.107
REMARK  3 active torsions:
REMARK  status: ('A' for Active; 'I' for Inactive)
REMARK    1  A    between atoms: C_7  and  C_8 
REMARK       I    between atoms: C_8  and  N_9 
REMARK    2  A    between atoms: N_9  and  C_10 
REMARK    3  A    between atoms: C_13  and  C_14 
REMARK       I    between atoms: C_14  and  N_15 
ROOT
HETATM    1  C   UNL     1       5.340  25.119  52.302  1.00  0.00     0.256 C 
HETATM    2  N   UNL     1       6.645  24.692  52.472  1.00  0.00    -0.322 N 
HETATM    3  O   UNL     1       4.372  24.706  52.932  1.00  0.00    -0.267 OA
HETATM    4  H   UNL     1       7.345  25.028  51.827  1.00  0.00     0.169 HD
ENDROOT
BRANCH   2   5
HETATM    5  C   UNL     1       7.108  23.786  53.454  1.00  0.00     0.052 A 
HETATM    6  C   UNL     1       7.052  23.995  54.832  1.00  0.00     0.147 A 
HETATM    7  N   UNL     1       7.520  23.119  55.760  1.00  0.00    -0.253 NA
HETATM    8  C   UNL     1       8.077  21.973  55.284  1.00  0.00     0.124 A 
HETATM    9  C   UNL     1       8.179  21.669  53.934  1.00  0.00     0.039 A 
HETATM   10  C   UNL     1       7.683  22.591  53.012  1.00  0.00     0.033 A 
BRANCH   8  11
HETATM   11  C   UNL     1       8.603  21.014  56.306  1.00  0.00     0.268 C 
HETATM   12  N   UNL     1       9.420  20.031  55.817  1.00  0.00    -0.365 N 
HETATM   13  H   UNL     1       9.617  20.000  54.822  1.00  0.00     0.159 HD
HETATM   14  H   UNL     1       9.812  19.344  56.443  1.00  0.00     0.159 HD
HETATM   15  O   UNL     1       8.327  21.099  57.496  1.00  0.00    -0.266 OA
ENDBRANCH   8  11
ENDBRANCH   2   5
BRANCH   1  16
HETATM   16  C   UNL     1       5.108  26.157  51.249  1.00  0.00     0.034 A 
HETATM   17  C   UNL     1       4.667  25.844  49.959  1.00  0.00     0.041 A 
HETATM   18  C   UNL     1       4.488  26.865  49.024  1.00  0.00     0.035 A 
HETATM   19  C   UNL     1       4.762  28.193  49.349  1.00  0.00     0.030 A 
HETATM   20 CL   UNL     1       3.927  26.476  47.444  1.00  0.00    -0.084 Cl
HETATM   21  C   UNL     1       5.240  28.517  50.623  1.00  0.00    -0.059 A 
HETATM   22  C   UNL     1       5.544  29.939  50.992  1.00  0.00     0.048 C 
HETATM   23  C   UNL     1       5.395  27.495  51.571  1.00  0.00     0.024 A 
ENDBRANCH   1  16
TORSDOF 3
ENDMDL
MODEL 10
REMARK VINA RESULT:      -7.4      2.895      3.659
REMARK  3 active torsions:
REMARK  status: ('A' for Active; 'I' for Inactive)
REMARK    1  A    between atoms: C_7  and  C_8 
REMARK       I    between atoms: C_8  and  N_9 
REMARK    2  A    between atoms: N_9  and  C_10 
REMARK    3  A    between atoms: C_13  and  C_14 
REMARK       I    between atoms: C_14  and  N_15 
ROOT
HETATM    1  C   UNL     1       7.181  25.006  54.561  1.00  0.00     0.256 C 
HETATM    2  N   UNL     1       6.847  25.674  55.726  1.00  0.00    -0.322 N 
HETATM    3  O   UNL     1       7.155  25.491  53.435  1.00  0.00    -0.267 OA
HETATM    4  H   UNL     1       6.807  25.145  56.585  1.00  0.00     0.169 HD
ENDROOT
BRANCH   2   5
HETATM    5  C   UNL     1       6.515  27.044  55.840  1.00  0.00     0.052 A 
HETATM    6  C   UNL     1       7.399  28.106  55.649  1.00  0.00     0.147 A 
HETATM    7  N   UNL     1       7.063  29.416  55.781  1.00  0.00    -0.253 NA
HETATM    8  C   UNL     1       5.774  29.679  56.125  1.00  0.00     0.124 A 
HETATM    9  C   UNL     1       4.817  28.697  56.336  1.00  0.00     0.039 A 
HETATM   10  C   UNL     1       5.198  27.363  56.186  1.00  0.00     0.033 A 
BRANCH   8  11
HETATM   11  C   UNL     1       5.409  31.122  56.282  1.00  0.00     0.268 C 
HETATM   12  N   UNL     1       5.160  31.791  55.115  1.00  0.00    -0.365 N 
HETATM   13  H   UNL     1       5.238  31.295  54.233  1.00  0.00     0.159 HD
HETATM   14  H   UNL     1       4.911  32.768  55.136  1.00  0.00     0.159 HD
HETATM   15  O   UNL     1       5.335  31.671  57.375  1.00  0.00    -0.266 OA
ENDBRANCH   8  11
ENDBRANCH   2   5
BRANCH   1  16
HETATM   16  C   UNL     1       7.587  23.573  54.706  1.00  0.00     0.034 A 
HETATM   17  C   UNL     1       7.719  22.708  53.614  1.00  0.00     0.041 A 
HETATM   18  C   UNL     1       8.087  21.378  53.828  1.00  0.00     0.035 A 
HETATM   19  C   UNL     1       8.305  20.891  55.117  1.00  0.00     0.030 A 
HETATM   20 CL   UNL     1       8.265  20.323  52.480  1.00  0.00    -0.084 Cl
HETATM   21  C   UNL     1       8.140  21.734  56.220  1.00  0.00    -0.059 A 
HETATM   22  C   UNL     1       8.366  21.230  57.615  1.00  0.00     0.048 C 
HETATM   23  C   UNL     1       7.796  23.077  56.005  1.00  0.00     0.024 A 
ENDBRANCH   1  16
TORSDOF 3
ENDMDL
