MODEL 1
REMARK VINA RESULT:     -10.7      0.000      0.000
REMARK  7 active torsions:
REMARK  status: ('A' for Active; 'I' for Inactive)
REMARK    1  A    between atoms: C_3  and  C_4 
REMARK       I    between atoms: C_4  and  N_5 
REMARK    2  A    between atoms: N_5  and  C_6 
REMARK    3  A    between atoms: C_6  and  C_7 
REMARK    4  A    between atoms: C_7  and  O_8 
REMARK    5  A    between atoms: C_7  and  C_9 
REMARK    6  A    between atoms: C_18  and  N_19 
REMARK       I    between atoms: N_19  and  C_20 
REMARK    7  A    between atoms: C_20  and  C_21 
ROOT
HETATM    1  C   UNL     1      10.845  29.280  56.606  1.00  0.00     0.050 C 
HETATM    2  C   UNL     1       9.568  29.490  57.355  1.00  0.00    -0.037 A 
HETATM    3  C   UNL     1       8.334  28.959  56.998  1.00  0.00     0.080 A 
HETATM    4  S   UNL     1       7.108  29.449  58.095  1.00  0.00    -0.066 SA
HETATM    5  C   UNL     1       8.194  30.289  59.078  1.00  0.00     0.078 A 
HETATM    6  C   UNL     1       9.471  30.258  58.567  1.00  0.00     0.045 A 
ENDROOT
BRANCH   3   7
HETATM    7  C   UNL     1       8.023  28.060  55.888  1.00  0.00     0.259 C 
HETATM    8  N   UNL     1       7.628  26.792  56.248  1.00  0.00    -0.354 N 
HETATM    9  H   UNL     1       7.406  26.624  57.222  1.00  0.00     0.162 HD
HETATM   10  O   UNL     1       8.102  28.389  54.706  1.00  0.00    -0.267 OA
BRANCH   8  11
HETATM   11  C   UNL     1       7.313  25.759  55.281  1.00  0.00     0.159 C 
BRANCH  11  12
HETATM   12  C   UNL     1       7.025  24.391  55.931  1.00  0.00     0.169 C 
BRANCH  12  13
HETATM   13  O   UNL     1       7.692  24.312  57.195  1.00  0.00    -0.389 OA
HETATM   14  H   UNL     1       7.045  24.580  57.871  1.00  0.00     0.210 HD
ENDBRANCH  12  13
BRANCH  12  15
HETATM   15  C   UNL     1       7.404  23.208  55.054  1.00  0.00    -0.028 A 
HETATM   16  C   UNL     1       7.613  21.946  55.636  1.00  0.00     0.013 A 
HETATM   17  C   UNL     1       7.947  20.846  54.843  1.00  0.00     0.043 A 
HETATM   18  C   UNL     1       8.066  21.000  53.468  1.00  0.00     0.116 A 
HETATM   19  F   UNL     1       8.387  19.942  52.710  1.00  0.00    -0.206 F 
HETATM   20  C   UNL     1       7.856  22.234  52.868  1.00  0.00     0.043 A 
HETATM   21  C   UNL     1       7.525  23.335  53.658  1.00  0.00     0.013 A 
ENDBRANCH  12  15
ENDBRANCH  11  12
ENDBRANCH   8  11
ENDBRANCH   3   7
BRANCH   5  22
HETATM   22  N   UNL     1       7.815  30.884  60.268  1.00  0.00    -0.317 N 
HETATM   23  C   UNL     1       8.076  32.179  60.669  1.00  0.00     0.258 C 
HETATM   24  O   UNL     1       8.784  32.998  60.090  1.00  0.00    -0.267 OA
HETATM   25  H   UNL     1       7.290  30.290  60.899  1.00  0.00     0.169 HD
BRANCH  23  26
HETATM   26  C   UNL     1       7.376  32.638  61.911  1.00  0.00     0.054 A 
HETATM   27  C   UNL     1       6.065  33.131  61.980  1.00  0.00     0.049 A 
HETATM   28 CL   UNL     1       4.998  33.222  60.622  1.00  0.00    -0.083 Cl
HETATM   29  C   UNL     1       5.540  33.562  63.208  1.00  0.00     0.025 A 
HETATM   30  C   UNL     1       6.306  33.497  64.372  1.00  0.00     0.002 A 
HETATM   31  C   UNL     1       7.601  32.993  64.320  1.00  0.00     0.001 A 
HETATM   32  C   UNL     1       8.130  32.565  63.100  1.00  0.00     0.019 A 
ENDBRANCH  23  26
ENDBRANCH   5  22
TORSDOF 7
ENDMDL
MODEL 2
REMARK VINA RESULT:     -10.3      4.336     10.639
REMARK  7 active torsions:
REMARK  status: ('A' for Active; 'I' for Inactive)
REMARK    1  A    between atoms: C_3  and  C_4 
REMARK       I    between atoms: C_4  and  N_5 
REMARK    2  A    between atoms: N_5  and  C_6 
REMARK    3  A    between atoms: C_6  and  C_7 
REMARK    4  A    between atoms: C_7  and  O_8 
REMARK    5  A    between atoms: C_7  and  C_9 
REMARK    6  A    between atoms: C_18  and  N_19 
REMARK       I    between atoms: N_19  and  C_20 
REMARK    7  A    between atoms: C_20  and  C_21 
ROOT
HETATM    1  C   UNL     1       4.811  30.135  57.761  1.00  0.00     0.050 C 
HETATM    2  C   UNL     1       6.074  29.411  57.420  1.00  0.00    -0.037 A 
HETATM    3  C   UNL     1       7.348  29.785  57.832  1.00  0.00     0.080 A 
HETATM    4  S   UNL     1       8.539  28.716  57.212  1.00  0.00    -0.066 SA
HETATM    5  C   UNL     1       7.394  27.721  56.471  1.00  0.00     0.078 A 
HETATM    6  C   UNL     1       6.118  28.209  56.632  1.00  0.00     0.045 A 
ENDROOT
BRANCH   3   7
HETATM    7  C   UNL     1       7.726  30.892  58.709  1.00  0.00     0.259 C 
HETATM    8  N   UNL     1       8.701  30.604  59.636  1.00  0.00    -0.354 N 
HETATM    9  H   UNL     1       9.209  29.733  59.535  1.00  0.00     0.162 HD
HETATM   10  O   UNL     1       7.222  32.012  58.643  1.00  0.00    -0.267 OA
BRANCH   8  11
HETATM   11  C   UNL     1       9.175  31.570  60.609  1.00  0.00     0.159 C 
BRANCH  11  12
HETATM   12  C   UNL     1       9.003  31.095  62.065  1.00  0.00     0.169 C 
BRANCH  12  13
HETATM   13  O   UNL     1       8.880  29.668  62.091  1.00  0.00    -0.389 OA
HETATM   14  H   UNL     1       9.621  29.313  61.569  1.00  0.00     0.210 HD
ENDBRANCH  12  13
BRANCH  12  15
HETATM   15  C   UNL     1       7.831  31.743  62.783  1.00  0.00    -0.028 A 
HETATM   16  C   UNL     1       8.067  32.721  63.765  1.00  0.00     0.013 A 
HETATM   17  C   UNL     1       7.000  33.338  64.422  1.00  0.00     0.043 A 
HETATM   18  C   UNL     1       5.696  32.986  64.098  1.00  0.00     0.116 A 
HETATM   19  F   UNL     1       4.675  33.579  64.731  1.00  0.00    -0.206 F 
HETATM   20  C   UNL     1       5.436  32.030  63.126  1.00  0.00     0.043 A 
HETATM   21  C   UNL     1       6.500  31.410  62.470  1.00  0.00     0.013 A 
ENDBRANCH  12  15
ENDBRANCH  11  12
ENDBRANCH   8  11
ENDBRANCH   3   7
BRANCH   5  22
HETATM   22  N   UNL     1       7.734  26.544  55.829  1.00  0.00    -0.317 N 
HETATM   23  C   UNL     1       7.383  25.262  56.204  1.00  0.00     0.258 C 
HETATM   24  O   UNL     1       6.801  24.932  57.232  1.00  0.00    -0.267 OA
HETATM   25  H   UNL     1       8.301  26.655  54.996  1.00  0.00     0.169 HD
BRANCH  23  26
HETATM   26  C   UNL     1       7.704  24.178  55.222  1.00  0.00     0.054 A 
HETATM   27  C   UNL     1       7.001  23.906  54.039  1.00  0.00     0.049 A 
HETATM   28 CL   UNL     1       5.665  24.850  53.476  1.00  0.00    -0.083 Cl
HETATM   29  C   UNL     1       7.388  22.834  53.222  1.00  0.00     0.025 A 
HETATM   30  C   UNL     1       8.476  22.033  53.567  1.00  0.00     0.002 A 
HETATM   31  C   UNL     1       9.192  22.302  54.728  1.00  0.00     0.001 A 
HETATM   32  C   UNL     1       8.810  23.367  55.547  1.00  0.00     0.019 A 
ENDBRANCH  23  26
ENDBRANCH   5  22
TORSDOF 7
ENDMDL
MODEL 3
REMARK VINA RESULT:     -10.1      1.964      2.597
REMARK  7 active torsions:
REMARK  status: ('A' for Active; 'I' for Inactive)
REMARK    1  A    between atoms: C_3  and  C_4 
REMARK       I    between atoms: C_4  and  N_5 
REMARK    2  A    between atoms: N_5  and  C_6 
REMARK    3  A    between atoms: C_6  and  C_7 
REMARK    4  A    between atoms: C_7  and  O_8 
REMARK    5  A    between atoms: C_7  and  C_9 
REMARK    6  A    between atoms: C_18  and  N_19 
REMARK       I    between atoms: N_19  and  C_20 
REMARK    7  A    between atoms: C_20  and  C_21 
ROOT
HETATM    1  C   UNL     1       4.916  29.547  54.768  1.00  0.00     0.050 C 
HETATM    2  C   UNL     1       5.921  29.438  55.870  1.00  0.00    -0.037 A 
HETATM    3  C   UNL     1       7.103  28.709  55.806  1.00  0.00     0.080 A 
HETATM    4  S   UNL     1       7.974  28.811  57.281  1.00  0.00    -0.066 SA
HETATM    5  C   UNL     1       6.854  29.864  57.978  1.00  0.00     0.078 A 
HETATM    6  C   UNL     1       5.792  30.105  57.137  1.00  0.00     0.045 A 
ENDROOT
BRANCH   3   7
HETATM    7  C   UNL     1       7.644  27.962  54.672  1.00  0.00     0.259 C 
HETATM    8  N   UNL     1       7.163  26.680  54.527  1.00  0.00    -0.354 N 
HETATM    9  H   UNL     1       6.359  26.410  55.080  1.00  0.00     0.162 HD
HETATM   10  O   UNL     1       8.473  28.422  53.890  1.00  0.00    -0.267 OA
BRANCH   8  11
HETATM   11  C   UNL     1       7.613  25.783  53.480  1.00  0.00     0.159 C 
BRANCH  11  12
HETATM   12  C   UNL     1       6.676  24.576  53.275  1.00  0.00     0.169 C 
BRANCH  12  13
HETATM   13  O   UNL     1       5.415  24.839  53.902  1.00  0.00    -0.389 OA
HETATM   14  H   UNL     1       5.520  24.620  54.844  1.00  0.00     0.210 HD
ENDBRANCH  12  13
BRANCH  12  15
HETATM   15  C   UNL     1       7.255  23.263  53.775  1.00  0.00    -0.028 A 
HETATM   16  C   UNL     1       7.262  22.982  55.152  1.00  0.00     0.013 A 
HETATM   17  C   UNL     1       7.776  21.773  55.626  1.00  0.00     0.043 A 
HETATM   18  C   UNL     1       8.280  20.840  54.729  1.00  0.00     0.116 A 
HETATM   19  F   UNL     1       8.773  19.682  55.188  1.00  0.00    -0.206 F 
HETATM   20  C   UNL     1       8.277  21.090  53.363  1.00  0.00     0.043 A 
HETATM   21  C   UNL     1       7.766  22.298  52.887  1.00  0.00     0.013 A 
ENDBRANCH  12  15
ENDBRANCH  11  12
ENDBRANCH   8  11
ENDBRANCH   3   7
BRANCH   5  22
HETATM   22  N   UNL     1       7.039  30.430  59.226  1.00  0.00    -0.317 N 
HETATM   23  C   UNL     1       7.871  31.486  59.544  1.00  0.00     0.258 C 
HETATM   24  O   UNL     1       8.674  32.037  58.798  1.00  0.00    -0.267 OA
HETATM   25  H   UNL     1       6.498  30.012  59.974  1.00  0.00     0.169 HD
BRANCH  23  26
HETATM   26  C   UNL     1       7.733  32.040  60.928  1.00  0.00     0.054 A 
HETATM   27  C   UNL     1       8.399  31.573  62.071  1.00  0.00     0.049 A 
HETATM   28 CL   UNL     1       9.570  30.299  62.048  1.00  0.00    -0.083 Cl
HETATM   29  C   UNL     1       8.152  32.162  63.320  1.00  0.00     0.025 A 
HETATM   30  C   UNL     1       7.252  33.221  63.441  1.00  0.00     0.002 A 
HETATM   31  C   UNL     1       6.598  33.705  62.314  1.00  0.00     0.001 A 
HETATM   32  C   UNL     1       6.839  33.121  61.068  1.00  0.00     0.019 A 
ENDBRANCH  23  26
ENDBRANCH   5  22
TORSDOF 7
ENDMDL
MODEL 4
REMARK VINA RESULT:      -9.9      4.532     10.930
REMARK  7 active torsions:
REMARK  status: ('A' for Active; 'I' for Inactive)
REMARK    1  A    between atoms: C_3  and  C_4 
REMARK       I    between atoms: C_4  and  N_5 
REMARK    2  A    between atoms: N_5  and  C_6 
REMARK    3  A    between atoms: C_6  and  C_7 
REMARK    4  A    between atoms: C_7  and  O_8 
REMARK    5  A    between atoms: C_7  and  C_9 
REMARK    6  A    between atoms: C_18  and  N_19 
REMARK       I    between atoms: N_19  and  C_20 
REMARK    7  A    between atoms: C_20  and  C_21 
ROOT
HETATM    1  C   UNL     1       4.457  29.182  54.259  1.00  0.00     0.050 C 
HETATM    2  C   UNL     1       5.229  28.133  54.992  1.00  0.00    -0.037 A 
HETATM    3  C   UNL     1       5.722  28.259  56.286  1.00  0.00     0.080 A 
HETATM    4  S   UNL     1       6.575  26.849  56.763  1.00  0.00    -0.066 SA
HETATM    5  C   UNL     1       6.240  26.043  55.319  1.00  0.00     0.078 A 
HETATM    6  C   UNL     1       5.536  26.839  54.445  1.00  0.00     0.045 A 
ENDROOT
BRANCH   3   7
HETATM    7  C   UNL     1       5.554  29.377  57.212  1.00  0.00     0.259 C 
HETATM    8  N   UNL     1       6.714  30.023  57.574  1.00  0.00    -0.354 N 
HETATM    9  H   UNL     1       7.557  29.812  57.052  1.00  0.00     0.162 HD
HETATM   10  O   UNL     1       4.464  29.734  57.653  1.00  0.00    -0.267 OA
BRANCH   8  11
HETATM   11  C   UNL     1       6.742  31.131  58.509  1.00  0.00     0.159 C 
BRANCH  11  12
HETATM   12  C   UNL     1       7.902  31.039  59.521  1.00  0.00     0.169 C 
BRANCH  12  13
HETATM   13  O   UNL     1       8.185  29.663  59.798  1.00  0.00    -0.389 OA
HETATM   14  H   UNL     1       9.114  29.620  60.085  1.00  0.00     0.210 HD
ENDBRANCH  12  13
BRANCH  12  15
HETATM   15  C   UNL     1       7.646  31.800  60.811  1.00  0.00    -0.028 A 
HETATM   16  C   UNL     1       8.471  31.580  61.927  1.00  0.00     0.013 A 
HETATM   17  C   UNL     1       8.260  32.283  63.116  1.00  0.00     0.043 A 
HETATM   18  C   UNL     1       7.228  33.210  63.192  1.00  0.00     0.116 A 
HETATM   19  F   UNL     1       7.028  33.882  64.334  1.00  0.00    -0.206 F 
HETATM   20  C   UNL     1       6.404  33.452  62.101  1.00  0.00     0.043 A 
HETATM   21  C   UNL     1       6.612  32.749  60.914  1.00  0.00     0.013 A 
ENDBRANCH  12  15
ENDBRANCH  11  12
ENDBRANCH   8  11
ENDBRANCH   3   7
BRANCH   5  22
HETATM   22  N   UNL     1       6.605  24.727  55.097  1.00  0.00    -0.317 N 
HETATM   23  C   UNL     1       7.544  24.268  54.194  1.00  0.00     0.258 C 
HETATM   24  O   UNL     1       8.140  24.933  53.352  1.00  0.00    -0.267 OA
HETATM   25  H   UNL     1       6.122  24.043  55.667  1.00  0.00     0.169 HD
BRANCH  23  26
HETATM   26  C   UNL     1       7.902  22.817  54.297  1.00  0.00     0.054 A 
HETATM   27  C   UNL     1       8.321  22.155  55.461  1.00  0.00     0.049 A 
HETATM   28 CL   UNL     1       8.424  22.911  57.013  1.00  0.00    -0.083 Cl
HETATM   29  C   UNL     1       8.660  20.795  55.412  1.00  0.00     0.025 A 
HETATM   30  C   UNL     1       8.576  20.083  54.216  1.00  0.00     0.002 A 
HETATM   31  C   UNL     1       8.145  20.723  53.059  1.00  0.00     0.001 A 
HETATM   32  C   UNL     1       7.808  22.077  53.101  1.00  0.00     0.019 A 
ENDBRANCH  23  26
ENDBRANCH   5  22
TORSDOF 7
ENDMDL
MODEL 5
REMARK VINA RESULT:      -9.7      4.659     11.163
REMARK  7 active torsions:
REMARK  status: ('A' for Active; 'I' for Inactive)
REMARK    1  A    between atoms: C_3  and  C_4 
REMARK       I    between atoms: C_4  and  N_5 
REMARK    2  A    between atoms: N_5  and  C_6 
REMARK    3  A    between atoms: C_6  and  C_7 
REMARK    4  A    between atoms: C_7  and  O_8 
REMARK    5  A    between atoms: C_7  and  C_9 
REMARK    6  A    between atoms: C_18  and  N_19 
REMARK       I    between atoms: N_19  and  C_20 
REMARK    7  A    between atoms: C_20  and  C_21 
ROOT
HETATM    1  C   UNL     1       4.748  31.347  56.700  1.00  0.00     0.050 C 
HETATM    2  C   UNL     1       5.860  30.367  56.899  1.00  0.00    -0.037 A 
HETATM    3  C   UNL     1       6.862  30.477  57.856  1.00  0.00     0.080 A 
HETATM    4  S   UNL     1       7.967  29.169  57.748  1.00  0.00    -0.066 SA
HETATM    5  C   UNL     1       7.103  28.418  56.508  1.00  0.00     0.078 A 
HETATM    6  C   UNL     1       6.013  29.165  56.125  1.00  0.00     0.045 A 
ENDROOT
BRANCH   3   7
HETATM    7  C   UNL     1       7.019  31.501  58.888  1.00  0.00     0.259 C 
HETATM    8  N   UNL     1       6.024  31.537  59.839  1.00  0.00    -0.354 N 
HETATM    9  H   UNL     1       5.371  30.763  59.871  1.00  0.00     0.162 HD
HETATM   10  O   UNL     1       7.963  32.287  58.925  1.00  0.00    -0.267 OA
BRANCH   8  11
HETATM   11  C   UNL     1       5.998  32.507  60.916  1.00  0.00     0.159 C 
BRANCH  11  12
HETATM   12  C   UNL     1       6.965  32.158  62.066  1.00  0.00     0.169 C 
BRANCH  12  13
HETATM   13  O   UNL     1       7.048  30.736  62.205  1.00  0.00    -0.389 OA
HETATM   14  H   UNL     1       7.183  30.554  63.152  1.00  0.00     0.210 HD
ENDBRANCH  12  13
BRANCH  12  15
HETATM   15  C   UNL     1       6.592  32.802  63.391  1.00  0.00    -0.028 A 
HETATM   16  C   UNL     1       5.239  32.987  63.722  1.00  0.00     0.013 A 
HETATM   17  C   UNL     1       4.880  33.562  64.943  1.00  0.00     0.043 A 
HETATM   18  C   UNL     1       5.868  33.948  65.840  1.00  0.00     0.116 A 
HETATM   19  F   UNL     1       5.519  34.500  67.009  1.00  0.00    -0.206 F 
HETATM   20  C   UNL     1       7.211  33.768  65.540  1.00  0.00     0.043 A 
HETATM   21  C   UNL     1       7.574  33.196  64.320  1.00  0.00     0.013 A 
ENDBRANCH  12  15
ENDBRANCH  11  12
ENDBRANCH   8  11
ENDBRANCH   3   7
BRANCH   5  22
HETATM   22  N   UNL     1       7.454  27.182  55.997  1.00  0.00    -0.317 N 
HETATM   23  C   UNL     1       6.714  26.018  56.056  1.00  0.00     0.258 C 
HETATM   24  O   UNL     1       5.664  25.847  56.668  1.00  0.00    -0.267 OA
HETATM   25  H   UNL     1       8.354  27.147  55.533  1.00  0.00     0.169 HD
BRANCH  23  26
HETATM   26  C   UNL     1       7.227  24.868  55.245  1.00  0.00     0.054 A 
HETATM   27  C   UNL     1       8.223  23.963  55.642  1.00  0.00     0.049 A 
HETATM   28 CL   UNL     1       8.981  23.988  57.196  1.00  0.00    -0.083 Cl
HETATM   29  C   UNL     1       8.638  22.947  54.768  1.00  0.00     0.025 A 
HETATM   30  C   UNL     1       8.062  22.818  53.504  1.00  0.00     0.002 A 
HETATM   31  C   UNL     1       7.062  23.697  53.106  1.00  0.00     0.001 A 
HETATM   32  C   UNL     1       6.647  24.712  53.971  1.00  0.00     0.019 A 
ENDBRANCH  23  26
ENDBRANCH   5  22
TORSDOF 7
ENDMDL
MODEL 6
REMARK VINA RESULT:      -9.5      4.313     10.531
REMARK  7 active torsions:
REMARK  status: ('A' for Active; 'I' for Inactive)
REMARK    1  A    between atoms: C_3  and  C_4 
REMARK       I    between atoms: C_4  and  N_5 
REMARK    2  A    between atoms: N_5  and  C_6 
REMARK    3  A    between atoms: C_6  and  C_7 
REMARK    4  A    between atoms: C_7  and  O_8 
REMARK    5  A    between atoms: C_7  and  C_9 
REMARK    6  A    between atoms: C_18  and  N_19 
REMARK       I    between atoms: N_19  and  C_20 
REMARK    7  A    between atoms: C_20  and  C_21 
ROOT
HETATM    1  C   UNL     1       8.380  29.363  58.282  1.00  0.00     0.050 C 
HETATM    2  C   UNL     1       7.595  28.438  57.407  1.00  0.00    -0.037 A 
HETATM    3  C   UNL     1       6.334  28.706  56.888  1.00  0.00     0.080 A 
HETATM    4  S   UNL     1       5.756  27.387  55.954  1.00  0.00    -0.066 SA
HETATM    5  C   UNL     1       7.177  26.498  56.160  1.00  0.00     0.078 A 
HETATM    6  C   UNL     1       8.072  27.153  56.974  1.00  0.00     0.045 A 
ENDROOT
BRANCH   3   7
HETATM    7  C   UNL     1       5.542  29.927  57.021  1.00  0.00     0.259 C 
HETATM    8  N   UNL     1       5.094  30.205  58.292  1.00  0.00    -0.354 N 
HETATM    9  H   UNL     1       5.482  29.668  59.059  1.00  0.00     0.162 HD
HETATM   10  O   UNL     1       5.278  30.670  56.077  1.00  0.00    -0.267 OA
BRANCH   8  11
HETATM   11  C   UNL     1       4.267  31.355  58.603  1.00  0.00     0.159 C 
BRANCH  11  12
HETATM   12  C   UNL     1       5.089  32.614  58.945  1.00  0.00     0.169 C 
BRANCH  12  13
HETATM   13  O   UNL     1       5.911  32.965  57.827  1.00  0.00    -0.389 OA
HETATM   14  H   UNL     1       5.692  33.884  57.595  1.00  0.00     0.210 HD
ENDBRANCH  12  13
BRANCH  12  15
HETATM   15  C   UNL     1       5.931  32.469  60.201  1.00  0.00    -0.028 A 
HETATM   16  C   UNL     1       7.331  32.396  60.099  1.00  0.00     0.013 A 
HETATM   17  C   UNL     1       8.121  32.279  61.245  1.00  0.00     0.043 A 
HETATM   18  C   UNL     1       7.518  32.241  62.496  1.00  0.00     0.116 A 
HETATM   19  F   UNL     1       8.278  32.129  63.593  1.00  0.00    -0.206 F 
HETATM   20  C   UNL     1       6.138  32.321  62.624  1.00  0.00     0.043 A 
HETATM   21  C   UNL     1       5.346  32.435  61.481  1.00  0.00     0.013 A 
ENDBRANCH  12  15
ENDBRANCH  11  12
ENDBRANCH   8  11
ENDBRANCH   3   7
BRANCH   5  22
HETATM   22  N   UNL     1       7.393  25.283  55.535  1.00  0.00    -0.317 N 
HETATM   23  C   UNL     1       8.209  24.258  55.971  1.00  0.00     0.258 C 
HETATM   24  O   UNL     1       8.970  24.285  56.933  1.00  0.00    -0.267 OA
HETATM   25  H   UNL     1       6.890  25.151  54.665  1.00  0.00     0.169 HD
BRANCH  23  26
HETATM   26  C   UNL     1       8.106  22.968  55.217  1.00  0.00     0.054 A 
HETATM   27  C   UNL     1       8.140  21.683  55.779  1.00  0.00     0.049 A 
HETATM   28 CL   UNL     1       8.236  21.379  57.479  1.00  0.00    -0.083 Cl
HETATM   29  C   UNL     1       8.069  20.552  54.952  1.00  0.00     0.025 A 
HETATM   30  C   UNL     1       7.953  20.689  53.569  1.00  0.00     0.002 A 
HETATM   31  C   UNL     1       7.900  21.956  53.001  1.00  0.00     0.001 A 
HETATM   32  C   UNL     1       7.973  23.086  53.819  1.00  0.00     0.019 A 
ENDBRANCH  23  26
ENDBRANCH   5  22
TORSDOF 7
ENDMDL
MODEL 7
REMARK VINA RESULT:      -9.3      6.327     10.201
REMARK  7 active torsions:
REMARK  status: ('A' for Active; 'I' for Inactive)
REMARK    1  A    between atoms: C_3  and  C_4 
REMARK       I    between atoms: C_4  and  N_5 
REMARK    2  A    between atoms: N_5  and  C_6 
REMARK    3  A    between atoms: C_6  and  C_7 
REMARK    4  A    between atoms: C_7  and  O_8 
REMARK    5  A    between atoms: C_7  and  C_9 
REMARK    6  A    between atoms: C_18  and  N_19 
REMARK       I    between atoms: N_19  and  C_20 
REMARK    7  A    between atoms: C_20  and  C_21 
ROOT
HETATM    1  C   UNL     1       4.507  28.675  55.925  1.00  0.00     0.050 C 
HETATM    2  C   UNL     1       4.793  27.575  54.953  1.00  0.00    -0.037 A 
HETATM    3  C   UNL     1       4.548  27.632  53.586  1.00  0.00     0.080 A 
HETATM    4  S   UNL     1       4.988  26.162  52.817  1.00  0.00    -0.066 SA
HETATM    5  C   UNL     1       5.568  25.478  54.247  1.00  0.00     0.078 A 
HETATM    6  C   UNL     1       5.388  26.319  55.322  1.00  0.00     0.045 A 
ENDROOT
BRANCH   3   7
HETATM    7  C   UNL     1       4.032  28.754  52.805  1.00  0.00     0.259 C 
HETATM    8  N   UNL     1       2.977  28.459  51.973  1.00  0.00    -0.354 N 
HETATM    9  H   UNL     1       2.520  27.562  52.087  1.00  0.00     0.162 HD
HETATM   10  O   UNL     1       4.492  29.893  52.869  1.00  0.00    -0.267 OA
BRANCH   8  11
HETATM   11  C   UNL     1       2.361  29.441  51.101  1.00  0.00     0.159 C 
BRANCH  11  12
HETATM   12  C   UNL     1       3.053  29.547  49.727  1.00  0.00     0.169 C 
BRANCH  12  13
HETATM   13  O   UNL     1       2.494  30.643  48.995  1.00  0.00    -0.389 OA
HETATM   14  H   UNL     1       3.067  30.785  48.221  1.00  0.00     0.210 HD
ENDBRANCH  12  13
BRANCH  12  15
HETATM   15  C   UNL     1       2.980  28.269  48.908  1.00  0.00    -0.028 A 
HETATM   16  C   UNL     1       1.754  27.862  48.354  1.00  0.00     0.013 A 
HETATM   17  C   UNL     1       1.674  26.699  47.586  1.00  0.00     0.043 A 
HETATM   18  C   UNL     1       2.817  25.941  47.363  1.00  0.00     0.116 A 
HETATM   19  F   UNL     1       2.736  24.825  46.626  1.00  0.00    -0.206 F 
HETATM   20  C   UNL     1       4.041  26.326  47.891  1.00  0.00     0.043 A 
HETATM   21  C   UNL     1       4.124  27.486  48.662  1.00  0.00     0.013 A 
ENDBRANCH  12  15
ENDBRANCH  11  12
ENDBRANCH   8  11
ENDBRANCH   3   7
BRANCH   5  22
HETATM   22  N   UNL     1       6.184  24.240  54.285  1.00  0.00    -0.317 N 
HETATM   23  C   UNL     1       7.433  23.919  53.790  1.00  0.00     0.258 C 
HETATM   24  O   UNL     1       8.170  24.645  53.132  1.00  0.00    -0.267 OA
HETATM   25  H   UNL     1       5.646  23.505  54.728  1.00  0.00     0.169 HD
BRANCH  23  26
HETATM   26  C   UNL     1       7.951  22.559  54.144  1.00  0.00     0.054 A 
HETATM   27  C   UNL     1       8.402  22.155  55.410  1.00  0.00     0.049 A 
HETATM   28 CL   UNL     1       8.361  23.166  56.812  1.00  0.00    -0.083 Cl
HETATM   29  C   UNL     1       8.897  20.856  55.598  1.00  0.00     0.025 A 
HETATM   30  C   UNL     1       8.938  19.950  54.538  1.00  0.00     0.002 A 
HETATM   31  C   UNL     1       8.478  20.332  53.284  1.00  0.00     0.001 A 
HETATM   32  C   UNL     1       7.986  21.624  53.089  1.00  0.00     0.019 A 
ENDBRANCH  23  26
ENDBRANCH   5  22
TORSDOF 7
ENDMDL
MODEL 8
REMARK VINA RESULT:      -9.3      4.417     10.542
REMARK  7 active torsions:
REMARK  status: ('A' for Active; 'I' for Inactive)
REMARK    1  A    between atoms: C_3  and  C_4 
REMARK       I    between atoms: C_4  and  N_5 
REMARK    2  A    between atoms: N_5  and  C_6 
REMARK    3  A    between atoms: C_6  and  C_7 
REMARK    4  A    between atoms: C_7  and  O_8 
REMARK    5  A    between atoms: C_7  and  C_9 
REMARK    6  A    between atoms: C_18  and  N_19 
REMARK       I    between atoms: N_19  and  C_20 
REMARK    7  A    between atoms: C_20  and  C_21 
ROOT
HETATM    1  C   UNL     1       8.435  29.682  58.171  1.00  0.00     0.050 C 
HETATM    2  C   UNL     1       7.555  28.646  57.549  1.00  0.00    -0.037 A 
HETATM    3  C   UNL     1       6.234  28.843  57.164  1.00  0.00     0.080 A 
HETATM    4  S   UNL     1       5.557  27.406  56.514  1.00  0.00    -0.066 SA
HETATM    5  C   UNL     1       7.002  26.547  56.662  1.00  0.00     0.078 A 
HETATM    6  C   UNL     1       7.988  27.308  57.249  1.00  0.00     0.045 A 
ENDROOT
BRANCH   3   7
HETATM    7  C   UNL     1       5.451  30.076  57.219  1.00  0.00     0.259 C 
HETATM    8  N   UNL     1       4.997  30.432  58.469  1.00  0.00    -0.354 N 
HETATM    9  H   UNL     1       5.376  29.939  59.269  1.00  0.00     0.162 HD
HETATM   10  O   UNL     1       5.200  30.765  56.232  1.00  0.00    -0.267 OA
BRANCH   8  11
HETATM   11  C   UNL     1       4.178  31.604  58.707  1.00  0.00     0.159 C 
BRANCH  11  12
HETATM   12  C   UNL     1       5.006  32.865  59.029  1.00  0.00     0.169 C 
BRANCH  12  13
HETATM   13  O   UNL     1       5.793  33.223  57.887  1.00  0.00    -0.389 OA
HETATM   14  H   UNL     1       6.341  32.449  57.670  1.00  0.00     0.210 HD
ENDBRANCH  12  13
BRANCH  12  15
HETATM   15  C   UNL     1       5.888  32.717  60.257  1.00  0.00    -0.028 A 
HETATM   16  C   UNL     1       5.324  32.824  61.540  1.00  0.00     0.013 A 
HETATM   17  C   UNL     1       6.118  32.675  62.679  1.00  0.00     0.043 A 
HETATM   18  C   UNL     1       7.475  32.412  62.542  1.00  0.00     0.116 A 
HETATM   19  F   UNL     1       8.234  32.270  63.637  1.00  0.00    -0.206 F 
HETATM   20  C   UNL     1       8.055  32.293  61.287  1.00  0.00     0.043 A 
HETATM   21  C   UNL     1       7.265  32.444  60.147  1.00  0.00     0.013 A 
ENDBRANCH  12  15
ENDBRANCH  11  12
ENDBRANCH   8  11
ENDBRANCH   3   7
BRANCH   5  22
HETATM   22  N   UNL     1       7.151  25.253  56.197  1.00  0.00    -0.317 N 
HETATM   23  C   UNL     1       6.936  24.804  54.908  1.00  0.00     0.258 C 
HETATM   24  O   UNL     1       6.470  25.450  53.975  1.00  0.00    -0.267 OA
HETATM   25  H   UNL     1       7.450  24.577  56.890  1.00  0.00     0.169 HD
BRANCH  23  26
HETATM   26  C   UNL     1       7.368  23.400  54.620  1.00  0.00     0.054 A 
HETATM   27  C   UNL     1       7.720  22.891  53.360  1.00  0.00     0.049 A 
HETATM   28 CL   UNL     1       7.781  23.847  51.920  1.00  0.00    -0.083 Cl
HETATM   29  C   UNL     1       8.074  21.541  53.221  1.00  0.00     0.025 A 
HETATM   30  C   UNL     1       8.092  20.693  54.328  1.00  0.00     0.002 A 
HETATM   31  C   UNL     1       7.764  21.189  55.585  1.00  0.00     0.001 A 
HETATM   32  C   UNL     1       7.407  22.531  55.729  1.00  0.00     0.019 A 
ENDBRANCH  23  26
ENDBRANCH   5  22
TORSDOF 7
ENDMDL
MODEL 9
REMARK VINA RESULT:      -9.3      4.867     11.382
REMARK  7 active torsions:
REMARK  status: ('A' for Active; 'I' for Inactive)
REMARK    1  A    between atoms: C_3  and  C_4 
REMARK       I    between atoms: C_4  and  N_5 
REMARK    2  A    between atoms: N_5  and  C_6 
REMARK    3  A    between atoms: C_6  and  C_7 
REMARK    4  A    between atoms: C_7  and  O_8 
REMARK    5  A    between atoms: C_7  and  C_9 
REMARK    6  A    between atoms: C_18  and  N_19 
REMARK       I    between atoms: N_19  and  C_20 
REMARK    7  A    between atoms: C_20  and  C_21 
ROOT
HETATM    1  C   UNL     1       9.752  31.268  58.829  1.00  0.00     0.050 C 
HETATM    2  C   UNL     1       8.702  30.394  58.220  1.00  0.00    -0.037 A 
HETATM    3  C   UNL     1       7.331  30.597  58.326  1.00  0.00     0.080 A 
HETATM    4  S   UNL     1       6.457  29.364  57.513  1.00  0.00    -0.066 SA
HETATM    5  C   UNL     1       7.861  28.606  56.958  1.00  0.00     0.078 A 
HETATM    6  C   UNL     1       8.994  29.235  57.421  1.00  0.00     0.045 A 
ENDROOT
BRANCH   3   7
HETATM    7  C   UNL     1       6.628  31.701  58.977  1.00  0.00     0.259 C 
HETATM    8  N   UNL     1       6.425  31.555  60.331  1.00  0.00    -0.354 N 
HETATM    9  H   UNL     1       6.920  30.810  60.806  1.00  0.00     0.162 HD
HETATM   10  O   UNL     1       6.233  32.701  58.380  1.00  0.00    -0.267 OA
BRANCH   8  11
HETATM   11  C   UNL     1       5.718  32.534  61.133  1.00  0.00     0.159 C 
BRANCH  11  12
HETATM   12  C   UNL     1       5.804  32.252  62.646  1.00  0.00     0.169 C 
BRANCH  12  13
HETATM   13  O   UNL     1       4.914  31.182  62.983  1.00  0.00    -0.389 OA
HETATM   14  H   UNL     1       4.857  30.607  62.200  1.00  0.00     0.210 HD
ENDBRANCH  12  13
BRANCH  12  15
HETATM   15  C   UNL     1       5.524  33.470  63.510  1.00  0.00    -0.028 A 
HETATM   16  C   UNL     1       5.831  34.754  63.028  1.00  0.00     0.013 A 
HETATM   17  C   UNL     1       5.565  35.885  63.803  1.00  0.00     0.043 A 
HETATM   18  C   UNL     1       4.986  35.739  65.057  1.00  0.00     0.116 A 
HETATM   19  F   UNL     1       4.732  36.826  65.798  1.00  0.00    -0.206 F 
HETATM   20  C   UNL     1       4.664  34.483  65.552  1.00  0.00     0.043 A 
HETATM   21  C   UNL     1       4.931  33.351  64.781  1.00  0.00     0.013 A 
ENDBRANCH  12  15
ENDBRANCH  11  12
ENDBRANCH   8  11
ENDBRANCH   3   7
BRANCH   5  22
HETATM   22  N   UNL     1       7.832  27.516  56.107  1.00  0.00    -0.317 N 
HETATM   23  C   UNL     1       7.404  26.238  56.409  1.00  0.00     0.258 C 
HETATM   24  O   UNL     1       7.077  25.816  57.513  1.00  0.00    -0.267 OA
HETATM   25  H   UNL     1       8.164  27.695  55.167  1.00  0.00     0.169 HD
BRANCH  23  26
HETATM   26  C   UNL     1       7.281  25.295  55.252  1.00  0.00     0.054 A 
HETATM   27  C   UNL     1       8.050  24.140  55.049  1.00  0.00     0.049 A 
HETATM   28 CL   UNL     1       9.241  23.569  56.166  1.00  0.00    -0.083 Cl
HETATM   29  C   UNL     1       7.856  23.359  53.900  1.00  0.00     0.025 A 
HETATM   30  C   UNL     1       6.894  23.712  52.954  1.00  0.00     0.002 A 
HETATM   31  C   UNL     1       6.112  24.845  53.152  1.00  0.00     0.001 A 
HETATM   32  C   UNL     1       6.303  25.628  54.293  1.00  0.00     0.019 A 
ENDBRANCH  23  26
ENDBRANCH   5  22
TORSDOF 7
ENDMDL
MODEL 10
REMARK VINA RESULT:      -9.3      6.800      9.714
REMARK  7 active torsions:
REMARK  status: ('A' for Active; 'I' for Inactive)
REMARK    1  A    between atoms: C_3  and  C_4 
REMARK       I    between atoms: C_4  and  N_5 
REMARK    2  A    between atoms: N_5  and  C_6 
REMARK    3  A    between atoms: C_6  and  C_7 
REMARK    4  A    between atoms: C_7  and  O_8 
REMARK    5  A    between atoms: C_7  and  C_9 
REMARK    6  A    between atoms: C_18  and  N_19 
REMARK       I    between atoms: N_19  and  C_20 
REMARK    7  A    between atoms: C_20  and  C_21 
ROOT
HETATM    1  C   UNL     1       8.084  24.749  52.165  1.00  0.00     0.050 C 
HETATM    2  C   UNL     1       6.805  25.517  52.272  1.00  0.00    -0.037 A 
HETATM    3  C   UNL     1       6.251  25.989  53.456  1.00  0.00     0.080 A 
HETATM    4  S   UNL     1       4.765  26.798  53.166  1.00  0.00    -0.066 SA
HETATM    5  C   UNL     1       4.878  26.602  51.493  1.00  0.00     0.078 A 
HETATM    6  C   UNL     1       5.997  25.882  51.140  1.00  0.00     0.045 A 
ENDROOT
BRANCH   3   7
HETATM    7  C   UNL     1       6.799  25.902  54.808  1.00  0.00     0.259 C 
HETATM    8  N   UNL     1       6.453  24.772  55.514  1.00  0.00    -0.354 N 
HETATM    9  H   UNL     1       6.013  24.014  55.008  1.00  0.00     0.162 HD
HETATM   10  O   UNL     1       7.520  26.766  55.305  1.00  0.00    -0.267 OA
BRANCH   8  11
HETATM   11  C   UNL     1       6.878  24.534  56.880  1.00  0.00     0.159 C 
BRANCH  11  12
HETATM   12  C   UNL     1       8.198  23.743  56.973  1.00  0.00     0.169 C 
BRANCH  12  13
HETATM   13  O   UNL     1       9.303  24.653  56.935  1.00  0.00    -0.389 OA
HETATM   14  H   UNL     1      10.024  24.200  56.463  1.00  0.00     0.210 HD
ENDBRANCH  12  13
BRANCH  12  15
HETATM   15  C   UNL     1       8.348  22.679  55.899  1.00  0.00    -0.028 A 
HETATM   16  C   UNL     1       7.569  21.510  55.961  1.00  0.00     0.013 A 
HETATM   17  C   UNL     1       7.683  20.530  54.973  1.00  0.00     0.043 A 
HETATM   18  C   UNL     1       8.568  20.714  53.918  1.00  0.00     0.116 A 
HETATM   19  F   UNL     1       8.675  19.771  52.973  1.00  0.00    -0.206 F 
HETATM   20  C   UNL     1       9.342  21.863  53.830  1.00  0.00     0.043 A 
HETATM   21  C   UNL     1       9.232  22.844  54.817  1.00  0.00     0.013 A 
ENDBRANCH  12  15
ENDBRANCH  11  12
ENDBRANCH   8  11
ENDBRANCH   3   7
BRANCH   5  22
HETATM   22  N   UNL     1       3.961  27.151  50.615  1.00  0.00    -0.317 N 
HETATM   23  C   UNL     1       4.237  27.885  49.478  1.00  0.00     0.258 C 
HETATM   24  O   UNL     1       5.340  28.273  49.105  1.00  0.00    -0.267 OA
HETATM   25  H   UNL     1       2.989  26.986  50.848  1.00  0.00     0.169 HD
BRANCH  23  26
HETATM   26  C   UNL     1       3.070  28.187  48.590  1.00  0.00     0.054 A 
HETATM   27  C   UNL     1       2.494  27.306  47.662  1.00  0.00     0.049 A 
HETATM   28 CL   UNL     1       3.006  25.669  47.445  1.00  0.00    -0.083 Cl
HETATM   29  C   UNL     1       1.420  27.729  46.864  1.00  0.00     0.025 A 
HETATM   30  C   UNL     1       0.907  29.020  46.988  1.00  0.00     0.002 A 
HETATM   31  C   UNL     1       1.457  29.897  47.916  1.00  0.00     0.001 A 
HETATM   32  C   UNL     1       2.528  29.482  48.712  1.00  0.00     0.019 A 
ENDBRANCH  23  26
ENDBRANCH   5  22
TORSDOF 7
ENDMDL
