MODEL 1
REMARK VINA RESULT:     -10.1      0.000      0.000
REMARK  4 active torsions:
REMARK  status: ('A' for Active; 'I' for Inactive)
REMARK    1  A    between atoms: C_2  and  C_3 
REMARK    2  A    between atoms: C_3  and  N_4 
REMARK    3  A    between atoms: C_3  and  C_18 
REMARK       I    between atoms: N_4  and  C_5 
REMARK    4  A    between atoms: C_5  and  C_6 
ROOT
HETATM    1  N   UNL     1       7.043  28.057  56.897  1.00  0.00    -0.344 N 
HETATM    2  C   UNL     1       7.631  27.391  55.853  1.00  0.00     0.273 C 
HETATM    3  O   UNL     1       7.942  27.906  54.793  1.00  0.00    -0.266 OA
HETATM    4  H   UNL     1       6.772  27.512  57.715  1.00  0.00     0.163 HD
ENDROOT
BRANCH   1   5
HETATM    5  C   UNL     1       6.672  29.454  56.873  1.00  0.00     0.158 C 
BRANCH   5   6
HETATM    6  C   UNL     1       5.144  29.697  56.735  1.00  0.00     0.008 C 
HETATM    7  C   UNL     1       4.359  28.448  56.312  1.00  0.00     0.012 C 
HETATM    8  C   UNL     1       4.826  30.848  55.778  1.00  0.00     0.012 C 
ENDBRANCH   5   6
BRANCH   5   9
HETATM    9  C   UNL     1       7.200  30.062  58.146  1.00  0.00     0.128 A 
HETATM   10  N   UNL     1       8.283  29.693  58.809  1.00  0.00    -0.231 NA
HETATM   11  C   UNL     1       8.334  30.506  59.914  1.00  0.00     0.085 A 
HETATM   12  C   UNL     1       7.270  31.400  59.923  1.00  0.00     0.062 A 
HETATM   13  C   UNL     1       9.265  30.536  60.962  1.00  0.00     0.034 A 
HETATM   14  N   UNL     1       6.571  31.105  58.781  1.00  0.00    -0.341 N 
HETATM   15  C   UNL     1       7.070  32.341  60.935  1.00  0.00     0.032 A 
HETATM   16  H   UNL     1       5.729  31.567  58.469  1.00  0.00     0.167 HD
HETATM   17  C   UNL     1       8.006  32.355  61.975  1.00  0.00     0.002 A 
HETATM   18  C   UNL     1       9.087  31.469  61.991  1.00  0.00     0.002 A 
ENDBRANCH   5   9
ENDBRANCH   1   5
BRANCH   2  19
HETATM   19  C   UNL     1       7.841  25.892  56.132  1.00  0.00     0.155 A 
HETATM   20  N   UNL     1       8.105  25.593  57.376  1.00  0.00    -0.166 NA
HETATM   21  N   UNL     1       8.300  24.288  57.703  1.00  0.00    -0.242 N 
HETATM   22  C   UNL     1       8.230  23.221  56.843  1.00  0.00     0.272 A 
HETATM   23  H   UNL     1       8.505  24.086  58.677  1.00  0.00     0.192 HD
HETATM   24  O   UNL     1       8.406  22.066  57.214  1.00  0.00    -0.266 OA
HETATM   25  C   UNL     1       7.936  23.544  55.436  1.00  0.00     0.046 A 
HETATM   26  C   UNL     1       7.752  24.875  55.058  1.00  0.00     0.016 A 
HETATM   27  C   UNL     1       7.856  22.510  54.493  1.00  0.00     0.018 A 
HETATM   28  C   UNL     1       7.503  25.165  53.711  1.00  0.00     0.015 A 
HETATM   29  C   UNL     1       7.419  24.134  52.768  1.00  0.00     0.001 A 
HETATM   30  C   UNL     1       7.592  22.807  53.158  1.00  0.00     0.001 A 
ENDBRANCH   2  19
TORSDOF 4
ENDMDL
MODEL 2
REMARK VINA RESULT:     -10.0      3.441      8.927
REMARK  4 active torsions:
REMARK  status: ('A' for Active; 'I' for Inactive)
REMARK    1  A    between atoms: C_2  and  C_3 
REMARK    2  A    between atoms: C_3  and  N_4 
REMARK    3  A    between atoms: C_3  and  C_18 
REMARK       I    between atoms: N_4  and  C_5 
REMARK    4  A    between atoms: C_5  and  C_6 
ROOT
HETATM    1  N   UNL     1       6.946  31.164  59.466  1.00  0.00    -0.344 N 
HETATM    2  C   UNL     1       6.107  32.232  59.289  1.00  0.00     0.273 C 
HETATM    3  O   UNL     1       6.024  32.884  58.262  1.00  0.00    -0.266 OA
HETATM    4  H   UNL     1       6.975  30.729  60.388  1.00  0.00     0.163 HD
ENDROOT
BRANCH   1   5
HETATM    5  C   UNL     1       7.882  30.684  58.473  1.00  0.00     0.158 C 
BRANCH   5   6
HETATM    6  C   UNL     1       9.358  30.670  58.956  1.00  0.00     0.008 C 
HETATM    7  C   UNL     1       9.704  31.820  59.910  1.00  0.00     0.012 C 
HETATM    8  C   UNL     1      10.348  30.661  57.788  1.00  0.00     0.012 C 
ENDBRANCH   5   6
BRANCH   5   9
HETATM    9  C   UNL     1       7.429  29.300  58.088  1.00  0.00     0.128 A 
HETATM   10  N   UNL     1       8.135  28.185  58.174  1.00  0.00    -0.231 NA
HETATM   11  C   UNL     1       7.323  27.195  57.677  1.00  0.00     0.085 A 
HETATM   12  C   UNL     1       6.092  27.710  57.290  1.00  0.00     0.062 A 
HETATM   13  C   UNL     1       7.574  25.825  57.521  1.00  0.00     0.034 A 
HETATM   14  N   UNL     1       6.180  29.049  57.575  1.00  0.00    -0.341 N 
HETATM   15  C   UNL     1       5.072  26.928  56.744  1.00  0.00     0.032 A 
HETATM   16  H   UNL     1       5.456  29.734  57.418  1.00  0.00     0.167 HD
HETATM   17  C   UNL     1       5.341  25.563  56.591  1.00  0.00     0.002 A 
HETATM   18  C   UNL     1       6.570  25.017  56.973  1.00  0.00     0.002 A 
ENDBRANCH   5   9
ENDBRANCH   1   5
BRANCH   2  19
HETATM   19  C   UNL     1       5.278  32.564  60.543  1.00  0.00     0.155 A 
HETATM   20  N   UNL     1       3.990  32.657  60.347  1.00  0.00    -0.166 NA
HETATM   21  N   UNL     1       3.190  32.945  61.408  1.00  0.00    -0.242 N 
HETATM   22  C   UNL     1       3.604  33.136  62.702  1.00  0.00     0.272 A 
HETATM   23  H   UNL     1       2.193  33.013  61.224  1.00  0.00     0.192 HD
HETATM   24  O   UNL     1       2.820  33.381  63.612  1.00  0.00    -0.266 OA
HETATM   25  C   UNL     1       5.054  33.038  62.938  1.00  0.00     0.046 A 
HETATM   26  C   UNL     1       5.910  32.766  61.869  1.00  0.00     0.016 A 
HETATM   27  C   UNL     1       5.558  33.228  64.232  1.00  0.00     0.018 A 
HETATM   28  C   UNL     1       7.288  32.705  62.107  1.00  0.00     0.015 A 
HETATM   29  C   UNL     1       7.792  32.892  63.400  1.00  0.00     0.001 A 
HETATM   30  C   UNL     1       6.929  33.150  64.462  1.00  0.00     0.001 A 
ENDBRANCH   2  19
TORSDOF 4
ENDMDL
MODEL 3
REMARK VINA RESULT:      -9.9      2.171      3.388
REMARK  4 active torsions:
REMARK  status: ('A' for Active; 'I' for Inactive)
REMARK    1  A    between atoms: C_2  and  C_3 
REMARK    2  A    between atoms: C_3  and  N_4 
REMARK    3  A    between atoms: C_3  and  C_18 
REMARK       I    between atoms: N_4  and  C_5 
REMARK    4  A    between atoms: C_5  and  C_6 
ROOT
HETATM    1  N   UNL     1       8.129  27.992  56.814  1.00  0.00    -0.344 N 
HETATM    2  C   UNL     1       7.565  26.782  57.128  1.00  0.00     0.273 C 
HETATM    3  O   UNL     1       7.658  26.238  58.215  1.00  0.00    -0.266 OA
HETATM    4  H   UNL     1       8.037  28.324  55.854  1.00  0.00     0.163 HD
ENDROOT
BRANCH   1   5
HETATM    5  C   UNL     1       8.947  28.773  57.715  1.00  0.00     0.158 C 
BRANCH   5   6
HETATM    6  C   UNL     1      10.191  29.412  57.040  1.00  0.00     0.008 C 
HETATM    7  C   UNL     1      10.595  30.762  57.647  1.00  0.00     0.012 C 
HETATM    8  C   UNL     1      10.012  29.567  55.527  1.00  0.00     0.012 C 
ENDBRANCH   5   6
BRANCH   5   9
HETATM    9  C   UNL     1       8.051  29.832  58.301  1.00  0.00     0.128 A 
HETATM   10  N   UNL     1       7.121  30.522  57.664  1.00  0.00    -0.231 NA
HETATM   11  C   UNL     1       6.599  31.386  58.595  1.00  0.00     0.085 A 
HETATM   12  C   UNL     1       7.211  31.214  59.831  1.00  0.00     0.062 A 
HETATM   13  C   UNL     1       5.596  32.356  58.455  1.00  0.00     0.034 A 
HETATM   14  N   UNL     1       8.121  30.209  59.620  1.00  0.00    -0.341 N 
HETATM   15  C   UNL     1       6.880  31.964  60.961  1.00  0.00     0.032 A 
HETATM   16  H   UNL     1       8.747  29.826  60.314  1.00  0.00     0.167 HD
HETATM   17  C   UNL     1       5.880  32.930  60.802  1.00  0.00     0.002 A 
HETATM   18  C   UNL     1       5.246  33.125  59.572  1.00  0.00     0.002 A 
ENDBRANCH   5   9
ENDBRANCH   1   5
BRANCH   2  19
HETATM   19  C   UNL     1       6.812  26.142  55.948  1.00  0.00     0.155 A 
HETATM   20  N   UNL     1       5.718  26.759  55.590  1.00  0.00    -0.166 NA
HETATM   21  N   UNL     1       4.997  26.255  54.553  1.00  0.00    -0.242 N 
HETATM   22  C   UNL     1       5.318  25.146  53.811  1.00  0.00     0.272 A 
HETATM   23  H   UNL     1       4.151  26.754  54.298  1.00  0.00     0.192 HD
HETATM   24  O   UNL     1       4.625  24.757  52.878  1.00  0.00    -0.266 OA
HETATM   25  C   UNL     1       6.548  24.438  54.205  1.00  0.00     0.046 A 
HETATM   26  C   UNL     1       7.302  24.913  55.281  1.00  0.00     0.016 A 
HETATM   27  C   UNL     1       6.940  23.291  53.502  1.00  0.00     0.018 A 
HETATM   28  C   UNL     1       8.452  24.210  55.659  1.00  0.00     0.015 A 
HETATM   29  C   UNL     1       8.847  23.066  54.956  1.00  0.00     0.001 A 
HETATM   30  C   UNL     1       8.095  22.608  53.876  1.00  0.00     0.001 A 
ENDBRANCH   2  19
TORSDOF 4
ENDMDL
MODEL 4
REMARK VINA RESULT:      -9.8      1.607      2.379
REMARK  4 active torsions:
REMARK  status: ('A' for Active; 'I' for Inactive)
REMARK    1  A    between atoms: C_2  and  C_3 
REMARK    2  A    between atoms: C_3  and  N_4 
REMARK    3  A    between atoms: C_3  and  C_18 
REMARK       I    between atoms: N_4  and  C_5 
REMARK    4  A    between atoms: C_5  and  C_6 
ROOT
HETATM    1  N   UNL     1       7.326  26.760  55.717  1.00  0.00    -0.344 N 
HETATM    2  C   UNL     1       7.631  25.749  54.844  1.00  0.00     0.273 C 
HETATM    3  O   UNL     1       7.694  25.877  53.634  1.00  0.00    -0.266 OA
HETATM    4  H   UNL     1       7.244  26.525  56.706  1.00  0.00     0.163 HD
ENDROOT
BRANCH   1   5
HETATM    5  C   UNL     1       6.996  28.112  55.323  1.00  0.00     0.158 C 
BRANCH   5   6
HETATM    6  C   UNL     1       5.471  28.371  55.184  1.00  0.00     0.008 C 
HETATM    7  C   UNL     1       4.612  27.498  56.109  1.00  0.00     0.012 C 
HETATM    8  C   UNL     1       4.988  28.212  53.740  1.00  0.00     0.012 C 
ENDBRANCH   5   6
BRANCH   5   9
HETATM    9  C   UNL     1       7.604  29.023  56.356  1.00  0.00     0.128 A 
HETATM   10  N   UNL     1       6.968  29.643  57.336  1.00  0.00    -0.231 NA
HETATM   11  C   UNL     1       7.924  30.381  57.988  1.00  0.00     0.085 A 
HETATM   12  C   UNL     1       9.173  30.201  57.406  1.00  0.00     0.062 A 
HETATM   13  C   UNL     1       7.797  31.238  59.091  1.00  0.00     0.034 A 
HETATM   14  N   UNL     1       8.944  29.322  56.379  1.00  0.00    -0.341 N 
HETATM   15  C   UNL     1      10.330  30.837  57.863  1.00  0.00     0.032 A 
HETATM   16  H   UNL     1       9.641  28.968  55.739  1.00  0.00     0.167 HD
HETATM   17  C   UNL     1      10.184  31.691  58.963  1.00  0.00     0.002 A 
HETATM   18  C   UNL     1       8.940  31.891  59.568  1.00  0.00     0.002 A 
ENDBRANCH   5   9
ENDBRANCH   1   5
BRANCH   2  19
HETATM   19  C   UNL     1       7.864  24.397  55.542  1.00  0.00     0.155 A 
HETATM   20  N   UNL     1       8.031  24.463  56.836  1.00  0.00    -0.166 NA
HETATM   21  N   UNL     1       8.239  23.309  57.524  1.00  0.00    -0.242 N 
HETATM   22  C   UNL     1       8.275  22.046  56.990  1.00  0.00     0.272 A 
HETATM   23  H   UNL     1       8.368  23.393  58.528  1.00  0.00     0.192 HD
HETATM   24  O   UNL     1       8.455  21.048  57.677  1.00  0.00    -0.266 OA
HETATM   25  C   UNL     1       8.091  21.956  55.531  1.00  0.00     0.046 A 
HETATM   26  C   UNL     1       7.897  23.121  54.787  1.00  0.00     0.016 A 
HETATM   27  C   UNL     1       8.122  20.701  54.908  1.00  0.00     0.018 A 
HETATM   28  C   UNL     1       7.754  23.018  53.398  1.00  0.00     0.015 A 
HETATM   29  C   UNL     1       7.781  21.766  52.775  1.00  0.00     0.001 A 
HETATM   30  C   UNL     1       7.962  20.607  53.528  1.00  0.00     0.001 A 
ENDBRANCH   2  19
TORSDOF 4
ENDMDL
MODEL 5
REMARK VINA RESULT:      -9.7      2.601      7.419
REMARK  4 active torsions:
REMARK  status: ('A' for Active; 'I' for Inactive)
REMARK    1  A    between atoms: C_2  and  C_3 
REMARK    2  A    between atoms: C_3  and  N_4 
REMARK    3  A    between atoms: C_3  and  C_18 
REMARK       I    between atoms: N_4  and  C_5 
REMARK    4  A    between atoms: C_5  and  C_6 
ROOT
HETATM    1  N   UNL     1       5.760  29.274  55.673  1.00  0.00    -0.344 N 
HETATM    2  C   UNL     1       6.115  28.884  56.938  1.00  0.00     0.273 C 
HETATM    3  O   UNL     1       5.755  27.848  57.469  1.00  0.00    -0.266 OA
HETATM    4  H   UNL     1       6.073  30.190  55.352  1.00  0.00     0.163 HD
ENDROOT
BRANCH   1   5
HETATM    5  C   UNL     1       4.876  28.529  54.805  1.00  0.00     0.158 C 
BRANCH   5   6
HETATM    6  C   UNL     1       4.335  29.352  53.603  1.00  0.00     0.008 C 
HETATM    7  C   UNL     1       3.771  30.722  54.001  1.00  0.00     0.012 C 
HETATM    8  C   UNL     1       3.283  28.580  52.802  1.00  0.00     0.012 C 
ENDBRANCH   5   6
BRANCH   5   9
HETATM    9  C   UNL     1       5.650  27.328  54.328  1.00  0.00     0.128 A 
HETATM   10  N   UNL     1       6.458  27.273  53.283  1.00  0.00    -0.231 NA
HETATM   11  C   UNL     1       6.900  25.974  53.227  1.00  0.00     0.085 A 
HETATM   12  C   UNL     1       6.362  25.221  54.264  1.00  0.00     0.062 A 
HETATM   13  C   UNL     1       7.764  25.361  52.309  1.00  0.00     0.034 A 
HETATM   14  N   UNL     1       5.582  26.110  54.958  1.00  0.00    -0.341 N 
HETATM   15  C   UNL     1       6.637  23.864  54.447  1.00  0.00     0.032 A 
HETATM   16  H   UNL     1       5.038  25.898  55.781  1.00  0.00     0.167 HD
HETATM   17  C   UNL     1       7.499  23.267  53.519  1.00  0.00     0.002 A 
HETATM   18  C   UNL     1       8.054  23.999  52.467  1.00  0.00     0.002 A 
ENDBRANCH   5   9
ENDBRANCH   1   5
BRANCH   2  19
HETATM   19  C   UNL     1       7.007  29.911  57.659  1.00  0.00     0.155 A 
HETATM   20  N   UNL     1       6.367  30.768  58.409  1.00  0.00    -0.166 NA
HETATM   21  N   UNL     1       7.087  31.706  59.082  1.00  0.00    -0.242 N 
HETATM   22  C   UNL     1       8.452  31.839  59.068  1.00  0.00     0.272 A 
HETATM   23  H   UNL     1       6.562  32.360  59.656  1.00  0.00     0.192 HD
HETATM   24  O   UNL     1       9.034  32.704  59.712  1.00  0.00    -0.266 OA
HETATM   25  C   UNL     1       9.186  30.881  58.223  1.00  0.00     0.046 A 
HETATM   26  C   UNL     1       8.480  29.918  57.500  1.00  0.00     0.016 A 
HETATM   27  C   UNL     1      10.584  30.956  58.149  1.00  0.00     0.018 A 
HETATM   28  C   UNL     1       9.193  29.035  56.680  1.00  0.00     0.015 A 
HETATM   29  C   UNL     1      10.589  29.106  56.607  1.00  0.00     0.001 A 
HETATM   30  C   UNL     1      11.285  30.063  57.343  1.00  0.00     0.001 A 
ENDBRANCH   2  19
TORSDOF 4
ENDMDL
MODEL 6
REMARK VINA RESULT:      -9.5      2.436      8.013
REMARK  4 active torsions:
REMARK  status: ('A' for Active; 'I' for Inactive)
REMARK    1  A    between atoms: C_2  and  C_3 
REMARK    2  A    between atoms: C_3  and  N_4 
REMARK    3  A    between atoms: C_3  and  C_18 
REMARK       I    between atoms: N_4  and  C_5 
REMARK    4  A    between atoms: C_5  and  C_6 
ROOT
HETATM    1  N   UNL     1       6.633  26.291  54.919  1.00  0.00    -0.344 N 
HETATM    2  C   UNL     1       6.274  26.585  56.209  1.00  0.00     0.273 C 
HETATM    3  O   UNL     1       5.391  26.017  56.827  1.00  0.00    -0.266 OA
HETATM    4  H   UNL     1       7.348  26.870  54.481  1.00  0.00     0.163 HD
ENDROOT
BRANCH   1   5
HETATM    5  C   UNL     1       5.987  25.292  54.097  1.00  0.00     0.158 C 
BRANCH   5   6
HETATM    6  C   UNL     1       5.945  25.653  52.587  1.00  0.00     0.008 C 
HETATM    7  C   UNL     1       5.927  27.163  52.316  1.00  0.00     0.012 C 
HETATM    8  C   UNL     1       4.766  24.992  51.868  1.00  0.00     0.012 C 
ENDBRANCH   5   6
BRANCH   5   9
HETATM    9  C   UNL     1       6.733  24.002  54.320  1.00  0.00     0.128 A 
HETATM   10  N   UNL     1       7.207  23.192  53.389  1.00  0.00    -0.231 NA
HETATM   11  C   UNL     1       7.769  22.139  54.067  1.00  0.00     0.085 A 
HETATM   12  C   UNL     1       7.649  22.312  55.441  1.00  0.00     0.062 A 
HETATM   13  C   UNL     1       8.401  20.990  53.573  1.00  0.00     0.034 A 
HETATM   14  N   UNL     1       6.998  23.512  55.575  1.00  0.00    -0.341 N 
HETATM   15  C   UNL     1       8.128  21.390  56.374  1.00  0.00     0.032 A 
HETATM   16  H   UNL     1       6.743  23.950  56.448  1.00  0.00     0.167 HD
HETATM   17  C   UNL     1       8.753  20.246  55.863  1.00  0.00     0.002 A 
HETATM   18  C   UNL     1       8.889  20.046  54.486  1.00  0.00     0.002 A 
ENDBRANCH   5   9
ENDBRANCH   1   5
BRANCH   2  19
HETATM   19  C   UNL     1       7.085  27.746  56.812  1.00  0.00     0.155 A 
HETATM   20  N   UNL     1       8.375  27.547  56.872  1.00  0.00    -0.166 NA
HETATM   21  N   UNL     1       9.160  28.530  57.390  1.00  0.00    -0.242 N 
HETATM   22  C   UNL     1       8.729  29.747  57.853  1.00  0.00     0.272 A 
HETATM   23  H   UNL     1      10.159  28.346  57.425  1.00  0.00     0.192 HD
HETATM   24  O   UNL     1       9.500  30.590  58.296  1.00  0.00    -0.266 OA
HETATM   25  C   UNL     1       7.277  29.983  57.796  1.00  0.00     0.046 A 
HETATM   26  C   UNL     1       6.436  28.989  57.291  1.00  0.00     0.016 A 
HETATM   27  C   UNL     1       6.757  31.200  58.258  1.00  0.00     0.018 A 
HETATM   28  C   UNL     1       5.056  29.221  57.271  1.00  0.00     0.015 A 
HETATM   29  C   UNL     1       4.534  30.437  57.729  1.00  0.00     0.001 A 
HETATM   30  C   UNL     1       5.383  31.427  58.219  1.00  0.00     0.001 A 
ENDBRANCH   2  19
TORSDOF 4
ENDMDL
MODEL 7
REMARK VINA RESULT:      -9.4      2.416      7.941
REMARK  4 active torsions:
REMARK  status: ('A' for Active; 'I' for Inactive)
REMARK    1  A    between atoms: C_2  and  C_3 
REMARK    2  A    between atoms: C_3  and  N_4 
REMARK    3  A    between atoms: C_3  and  C_18 
REMARK       I    between atoms: N_4  and  C_5 
REMARK    4  A    between atoms: C_5  and  C_6 
ROOT
HETATM    1  N   UNL     1       7.025  27.502  55.732  1.00  0.00    -0.344 N 
HETATM    2  C   UNL     1       6.915  28.379  56.779  1.00  0.00     0.273 C 
HETATM    3  O   UNL     1       5.886  28.592  57.398  1.00  0.00    -0.266 OA
HETATM    4  H   UNL     1       7.922  27.448  55.250  1.00  0.00     0.163 HD
ENDROOT
BRANCH   1   5
HETATM    5  C   UNL     1       5.927  26.736  55.187  1.00  0.00     0.158 C 
BRANCH   5   6
HETATM    6  C   UNL     1       5.335  27.329  53.879  1.00  0.00     0.008 C 
HETATM    7  C   UNL     1       6.338  28.167  53.075  1.00  0.00     0.012 C 
HETATM    8  C   UNL     1       4.072  28.155  54.139  1.00  0.00     0.012 C 
ENDBRANCH   5   6
BRANCH   5   9
HETATM    9  C   UNL     1       6.447  25.341  54.956  1.00  0.00     0.128 A 
HETATM   10  N   UNL     1       6.695  24.428  55.879  1.00  0.00    -0.231 NA
HETATM   11  C   UNL     1       7.184  23.339  55.200  1.00  0.00     0.085 A 
HETATM   12  C   UNL     1       7.225  23.585  53.832  1.00  0.00     0.062 A 
HETATM   13  C   UNL     1       7.620  22.100  55.688  1.00  0.00     0.034 A 
HETATM   14  N   UNL     1       6.738  24.861  53.703  1.00  0.00    -0.341 N 
HETATM   15  C   UNL     1       7.685  22.653  52.900  1.00  0.00     0.032 A 
HETATM   16  H   UNL     1       6.628  25.364  52.835  1.00  0.00     0.167 HD
HETATM   17  C   UNL     1       8.120  21.422  53.406  1.00  0.00     0.002 A 
HETATM   18  C   UNL     1       8.090  21.146  54.775  1.00  0.00     0.002 A 
ENDBRANCH   5   9
ENDBRANCH   1   5
BRANCH   2  19
HETATM   19  C   UNL     1       8.231  29.112  57.095  1.00  0.00     0.155 A 
HETATM   20  N   UNL     1       9.267  28.710  56.408  1.00  0.00    -0.166 NA
HETATM   21  N   UNL     1      10.466  29.312  56.629  1.00  0.00    -0.242 N 
HETATM   22  C   UNL     1      10.704  30.339  57.507  1.00  0.00     0.272 A 
HETATM   23  H   UNL     1      11.253  28.977  56.082  1.00  0.00     0.192 HD
HETATM   24  O   UNL     1      11.813  30.842  57.643  1.00  0.00    -0.266 OA
HETATM   25  C   UNL     1       9.546  30.801  58.291  1.00  0.00     0.046 A 
HETATM   26  C   UNL     1       8.303  30.191  58.109  1.00  0.00     0.016 A 
HETATM   27  C   UNL     1       9.709  31.841  59.216  1.00  0.00     0.018 A 
HETATM   28  C   UNL     1       7.220  30.624  58.883  1.00  0.00     0.015 A 
HETATM   29  C   UNL     1       7.380  31.665  59.806  1.00  0.00     0.001 A 
HETATM   30  C   UNL     1       8.622  32.275  59.971  1.00  0.00     0.001 A 
ENDBRANCH   2  19
TORSDOF 4
ENDMDL
MODEL 8
REMARK VINA RESULT:      -9.4      3.707      4.723
REMARK  4 active torsions:
REMARK  status: ('A' for Active; 'I' for Inactive)
REMARK    1  A    between atoms: C_2  and  C_3 
REMARK    2  A    between atoms: C_3  and  N_4 
REMARK    3  A    between atoms: C_3  and  C_18 
REMARK       I    between atoms: N_4  and  C_5 
REMARK    4  A    between atoms: C_5  and  C_6 
ROOT
HETATM    1  N   UNL     1       6.486  26.015  53.942  1.00  0.00    -0.344 N 
HETATM    2  C   UNL     1       7.616  25.271  53.723  1.00  0.00     0.273 C 
HETATM    3  O   UNL     1       8.354  25.401  52.761  1.00  0.00    -0.266 OA
HETATM    4  H   UNL     1       5.912  25.780  54.751  1.00  0.00     0.163 HD
ENDROOT
BRANCH   1   5
HETATM    5  C   UNL     1       5.988  27.031  53.042  1.00  0.00     0.158 C 
BRANCH   5   6
HETATM    6  C   UNL     1       5.004  26.491  51.968  1.00  0.00     0.008 C 
HETATM    7  C   UNL     1       4.805  24.971  52.025  1.00  0.00     0.012 C 
HETATM    8  C   UNL     1       5.415  26.899  50.551  1.00  0.00     0.012 C 
ENDBRANCH   5   6
BRANCH   5   9
HETATM    9  C   UNL     1       5.326  28.078  53.898  1.00  0.00     0.128 A 
HETATM   10  N   UNL     1       4.971  27.955  55.166  1.00  0.00    -0.231 NA
HETATM   11  C   UNL     1       4.378  29.147  55.501  1.00  0.00     0.085 A 
HETATM   12  C   UNL     1       4.380  30.024  54.423  1.00  0.00     0.062 A 
HETATM   13  C   UNL     1       3.808  29.553  56.715  1.00  0.00     0.034 A 
HETATM   14  N   UNL     1       5.001  29.324  53.419  1.00  0.00    -0.341 N 
HETATM   15  C   UNL     1       3.836  31.308  54.479  1.00  0.00     0.032 A 
HETATM   16  H   UNL     1       5.175  29.664  52.485  1.00  0.00     0.167 HD
HETATM   17  C   UNL     1       3.267  31.696  55.698  1.00  0.00     0.002 A 
HETATM   18  C   UNL     1       3.251  30.836  56.799  1.00  0.00     0.002 A 
ENDBRANCH   5   9
ENDBRANCH   1   5
BRANCH   2  19
HETATM   19  C   UNL     1       7.861  24.210  54.811  1.00  0.00     0.155 A 
HETATM   20  N   UNL     1       7.893  24.668  56.034  1.00  0.00    -0.166 NA
HETATM   21  N   UNL     1       8.103  23.791  57.051  1.00  0.00    -0.242 N 
HETATM   22  C   UNL     1       8.271  22.435  56.926  1.00  0.00     0.272 A 
HETATM   23  H   UNL     1       8.124  24.177  57.991  1.00  0.00     0.192 HD
HETATM   24  O   UNL     1       8.443  21.703  57.894  1.00  0.00    -0.266 OA
HETATM   25  C   UNL     1       8.240  21.904  55.552  1.00  0.00     0.046 A 
HETATM   26  C   UNL     1       8.050  22.778  54.480  1.00  0.00     0.016 A 
HETATM   27  C   UNL     1       8.412  20.530  55.340  1.00  0.00     0.018 A 
HETATM   28  C   UNL     1       8.054  22.259  53.179  1.00  0.00     0.015 A 
HETATM   29  C   UNL     1       8.222  20.886  52.965  1.00  0.00     0.001 A 
HETATM   30  C   UNL     1       8.399  20.021  54.043  1.00  0.00     0.001 A 
ENDBRANCH   2  19
TORSDOF 4
ENDMDL
MODEL 9
REMARK VINA RESULT:      -9.3      3.899      7.925
REMARK  4 active torsions:
REMARK  status: ('A' for Active; 'I' for Inactive)
REMARK    1  A    between atoms: C_2  and  C_3 
REMARK    2  A    between atoms: C_3  and  N_4 
REMARK    3  A    between atoms: C_3  and  C_18 
REMARK       I    between atoms: N_4  and  C_5 
REMARK    4  A    between atoms: C_5  and  C_6 
ROOT
HETATM    1  N   UNL     1       6.441  26.140  54.452  1.00  0.00    -0.344 N 
HETATM    2  C   UNL     1       6.899  27.064  53.549  1.00  0.00     0.273 C 
HETATM    3  O   UNL     1       7.915  27.722  53.688  1.00  0.00    -0.266 OA
HETATM    4  H   UNL     1       5.547  25.690  54.260  1.00  0.00     0.163 HD
ENDROOT
BRANCH   1   5
HETATM    5  C   UNL     1       7.078  25.846  55.717  1.00  0.00     0.158 C 
BRANCH   5   6
HETATM    6  C   UNL     1       6.202  26.180  56.954  1.00  0.00     0.008 C 
HETATM    7  C   UNL     1       4.901  25.368  57.025  1.00  0.00     0.012 C 
HETATM    8  C   UNL     1       5.876  27.674  57.045  1.00  0.00     0.012 C 
ENDBRANCH   5   6
BRANCH   5   9
HETATM    9  C   UNL     1       7.433  24.383  55.690  1.00  0.00     0.128 A 
HETATM   10  N   UNL     1       7.840  23.649  56.711  1.00  0.00    -0.231 NA
HETATM   11  C   UNL     1       8.075  22.397  56.197  1.00  0.00     0.085 A 
HETATM   12  C   UNL     1       7.795  22.359  54.837  1.00  0.00     0.062 A 
HETATM   13  C   UNL     1       8.536  21.238  56.837  1.00  0.00     0.034 A 
HETATM   14  N   UNL     1       7.375  23.631  54.542  1.00  0.00    -0.341 N 
HETATM   15  C   UNL     1       7.950  21.212  54.055  1.00  0.00     0.032 A 
HETATM   16  H   UNL     1       7.088  23.961  53.631  1.00  0.00     0.167 HD
HETATM   17  C   UNL     1       8.414  20.065  54.709  1.00  0.00     0.002 A 
HETATM   18  C   UNL     1       8.703  20.074  56.076  1.00  0.00     0.002 A 
ENDBRANCH   5   9
ENDBRANCH   1   5
BRANCH   2  19
HETATM   19  C   UNL     1       5.977  27.222  52.326  1.00  0.00     0.155 A 
HETATM   20  N   UNL     1       6.166  26.349  51.374  1.00  0.00    -0.166 NA
HETATM   21  N   UNL     1       5.387  26.422  50.261  1.00  0.00    -0.242 N 
HETATM   22  C   UNL     1       4.385  27.331  50.036  1.00  0.00     0.272 A 
HETATM   23  H   UNL     1       5.559  25.731  49.537  1.00  0.00     0.192 HD
HETATM   24  O   UNL     1       3.714  27.327  49.011  1.00  0.00    -0.266 OA
HETATM   25  C   UNL     1       4.162  28.325  51.100  1.00  0.00     0.046 A 
HETATM   26  C   UNL     1       4.957  28.295  52.248  1.00  0.00     0.016 A 
HETATM   27  C   UNL     1       3.161  29.293  50.943  1.00  0.00     0.018 A 
HETATM   28  C   UNL     1       4.751  29.266  53.236  1.00  0.00     0.015 A 
HETATM   29  C   UNL     1       3.749  30.232  53.081  1.00  0.00     0.001 A 
HETATM   30  C   UNL     1       2.953  30.244  51.938  1.00  0.00     0.001 A 
ENDBRANCH   2  19
TORSDOF 4
ENDMDL
MODEL 10
REMARK VINA RESULT:      -9.1      4.527      7.482
REMARK  4 active torsions:
REMARK  status: ('A' for Active; 'I' for Inactive)
REMARK    1  A    between atoms: C_2  and  C_3 
REMARK    2  A    between atoms: C_3  and  N_4 
REMARK    3  A    between atoms: C_3  and  C_18 
REMARK       I    between atoms: N_4  and  C_5 
REMARK    4  A    between atoms: C_5  and  C_6 
ROOT
HETATM    1  N   UNL     1       5.746  25.140  53.781  1.00  0.00    -0.344 N 
HETATM    2  C   UNL     1       7.073  24.953  53.497  1.00  0.00     0.273 C 
HETATM    3  O   UNL     1       7.832  25.833  53.130  1.00  0.00    -0.266 OA
HETATM    4  H   UNL     1       5.191  24.319  54.024  1.00  0.00     0.163 HD
ENDROOT
BRANCH   1   5
HETATM    5  C   UNL     1       5.049  26.400  53.646  1.00  0.00     0.158 C 
BRANCH   5   6
HETATM    6  C   UNL     1       5.650  27.545  54.505  1.00  0.00     0.008 C 
HETATM    7  C   UNL     1       6.124  27.091  55.891  1.00  0.00     0.012 C 
HETATM    8  C   UNL     1       4.682  28.722  54.658  1.00  0.00     0.012 C 
ENDBRANCH   5   6
BRANCH   5   9
HETATM    9  C   UNL     1       5.079  26.754  52.182  1.00  0.00     0.128 A 
HETATM   10  N   UNL     1       5.571  27.857  51.646  1.00  0.00    -0.231 NA
HETATM   11  C   UNL     1       5.340  27.747  50.296  1.00  0.00     0.085 A 
HETATM   12  C   UNL     1       4.705  26.547  49.998  1.00  0.00     0.062 A 
HETATM   13  C   UNL     1       5.644  28.640  49.259  1.00  0.00     0.034 A 
HETATM   14  N   UNL     1       4.563  25.928  51.214  1.00  0.00    -0.341 N 
HETATM   15  C   UNL     1       4.345  26.173  48.702  1.00  0.00     0.032 A 
HETATM   16  H   UNL     1       4.137  25.026  51.369  1.00  0.00     0.167 HD
HETATM   17  C   UNL     1       4.652  27.079  47.679  1.00  0.00     0.002 A 
HETATM   18  C   UNL     1       5.290  28.292  47.949  1.00  0.00     0.002 A 
ENDBRANCH   5   9
ENDBRANCH   1   5
BRANCH   2  19
HETATM   19  C   UNL     1       7.526  23.491  53.658  1.00  0.00     0.155 A 
HETATM   20  N   UNL     1       7.599  22.808  52.546  1.00  0.00    -0.166 NA
HETATM   21  N   UNL     1       7.995  21.509  52.607  1.00  0.00    -0.242 N 
HETATM   22  C   UNL     1       8.352  20.826  53.742  1.00  0.00     0.272 A 
HETATM   23  H   UNL     1       8.041  21.004  51.727  1.00  0.00     0.192 HD
HETATM   24  O   UNL     1       8.712  19.654  53.717  1.00  0.00    -0.266 OA
HETATM   25  C   UNL     1       8.271  21.581  55.003  1.00  0.00     0.046 A 
HETATM   26  C   UNL     1       7.847  22.911  54.984  1.00  0.00     0.016 A 
HETATM   27  C   UNL     1       8.611  20.951  56.208  1.00  0.00     0.018 A 
HETATM   28  C   UNL     1       7.748  23.604  56.197  1.00  0.00     0.015 A 
HETATM   29  C   UNL     1       8.090  22.978  57.401  1.00  0.00     0.001 A 
HETATM   30  C   UNL     1       8.524  21.654  57.407  1.00  0.00     0.001 A 
ENDBRANCH   2  19
TORSDOF 4
ENDMDL
