MODEL 1
REMARK VINA RESULT:      -8.9      0.000      0.000
REMARK  3 active torsions:
REMARK  status: ('A' for Active; 'I' for Inactive)
REMARK    1  A    between atoms: C_6  and  N_7 
REMARK       I    between atoms: N_7  and  C_8 
REMARK    2  A    between atoms: C_8  and  C_9 
REMARK    3  A    between atoms: C_9  and  C_10 
ROOT
HETATM    1  C   UNL     1       6.549  27.986  56.485  1.00  0.00     0.286 C 
HETATM    2  N   UNL     1       7.966  28.292  55.986  1.00  0.00    -0.056 N 
HETATM    3  H   UNL     1       8.418  27.428  55.658  1.00  0.00     0.278 HD
HETATM    4  H   UNL     1       7.884  28.904  55.162  1.00  0.00     0.278 HD
HETATM    5  C   UNL     1       8.855  28.963  56.998  1.00  0.00     0.209 C 
HETATM    6  C   UNL     1       8.144  30.209  57.564  1.00  0.00     0.115 C 
HETATM    7  N   UNL     1       6.804  29.917  58.047  1.00  0.00    -0.353 N 
HETATM    8  C   UNL     1       5.943  29.069  57.399  1.00  0.00     0.249 C 
HETATM    9  O   UNL     1       4.737  29.101  57.630  1.00  0.00    -0.271 OA
HETATM   10  C   UNL     1      10.180  29.354  56.348  1.00  0.00     0.035 C 
HETATM   11  C   UNL     1      11.087  30.026  57.383  1.00  0.00     0.002 C 
HETATM   12  C   UNL     1      10.402  31.200  58.087  1.00  0.00     0.002 C 
HETATM   13  C   UNL     1       9.024  30.838  58.646  1.00  0.00     0.027 C 
HETATM   14  H   UNL     1       6.332  30.613  58.622  1.00  0.00     0.163 HD
ENDROOT
BRANCH   1  15
HETATM   15  C   UNL     1       6.444  26.593  57.118  1.00  0.00     0.146 C 
BRANCH  15  16
HETATM   16  C   UNL     1       7.392  25.610  56.465  1.00  0.00     0.224 C 
HETATM   17  N   UNL     1       6.828  24.889  55.435  1.00  0.00    -0.327 N 
HETATM   18  H   UNL     1       5.943  25.208  55.048  1.00  0.00     0.169 HD
HETATM   19  O   UNL     1       8.508  25.460  56.947  1.00  0.00    -0.273 OA
BRANCH  17  20
HETATM   20  C   UNL     1       7.309  23.682  54.878  1.00  0.00     0.036 A 
HETATM   21  C   UNL     1       7.564  22.529  55.622  1.00  0.00     0.053 A 
HETATM   22  C   UNL     1       7.956  21.353  54.975  1.00  0.00     0.036 A 
HETATM   23  C   UNL     1       8.111  21.317  53.592  1.00  0.00     0.024 A 
HETATM   24 CL   UNL     1       8.218  19.925  55.900  1.00  0.00    -0.084 Cl
HETATM   25  C   UNL     1       7.871  22.467  52.846  1.00  0.00     0.004 A 
HETATM   26  C   UNL     1       7.466  23.642  53.486  1.00  0.00     0.029 A 
ENDBRANCH  17  20
ENDBRANCH  15  16
ENDBRANCH   1  15
TORSDOF 3
ENDMDL
MODEL 2
REMARK VINA RESULT:      -8.8      2.930      7.751
REMARK  3 active torsions:
REMARK  status: ('A' for Active; 'I' for Inactive)
REMARK    1  A    between atoms: C_6  and  N_7 
REMARK       I    between atoms: N_7  and  C_8 
REMARK    2  A    between atoms: C_8  and  C_9 
REMARK    3  A    between atoms: C_9  and  C_10 
ROOT
HETATM    1  C   UNL     1       8.220  25.125  56.035  1.00  0.00     0.286 C 
HETATM    2  N   UNL     1       8.379  24.308  54.748  1.00  0.00    -0.056 N 
HETATM    3  H   UNL     1       7.889  24.774  53.972  1.00  0.00     0.278 HD
HETATM    4  H   UNL     1       9.377  24.306  54.498  1.00  0.00     0.278 HD
HETATM    5  C   UNL     1       7.905  22.883  54.848  1.00  0.00     0.209 C 
HETATM    6  C   UNL     1       8.563  22.205  56.067  1.00  0.00     0.115 C 
HETATM    7  N   UNL     1       8.404  22.975  57.290  1.00  0.00    -0.353 N 
HETATM    8  C   UNL     1       8.502  24.342  57.332  1.00  0.00     0.249 C 
HETATM    9  O   UNL     1       8.697  24.925  58.396  1.00  0.00    -0.271 OA
HETATM   10  C   UNL     1       8.249  22.129  53.567  1.00  0.00     0.035 C 
HETATM   11  C   UNL     1       7.755  20.683  53.668  1.00  0.00     0.002 C 
HETATM   12  C   UNL     1       8.264  19.976  54.927  1.00  0.00     0.002 C 
HETATM   13  C   UNL     1       8.015  20.783  56.204  1.00  0.00     0.027 C 
HETATM   14  H   UNL     1       8.615  22.525  58.179  1.00  0.00     0.163 HD
ENDROOT
BRANCH   1  15
HETATM   15  C   UNL     1       6.870  25.851  56.100  1.00  0.00     0.146 C 
BRANCH  15  16
HETATM   16  C   UNL     1       7.045  27.333  56.353  1.00  0.00     0.224 C 
HETATM   17  N   UNL     1       8.320  27.689  56.738  1.00  0.00    -0.327 N 
HETATM   18  H   UNL     1       9.071  27.016  56.607  1.00  0.00     0.169 HD
HETATM   19  O   UNL     1       6.059  28.059  56.302  1.00  0.00    -0.273 OA
BRANCH  17  20
HETATM   20  C   UNL     1       8.713  28.887  57.378  1.00  0.00     0.036 A 
HETATM   21  C   UNL     1       8.037  29.449  58.462  1.00  0.00     0.053 A 
HETATM   22  C   UNL     1       8.547  30.590  59.087  1.00  0.00     0.036 A 
HETATM   23  C   UNL     1       9.719  31.189  58.633  1.00  0.00     0.024 A 
HETATM   24 CL   UNL     1       7.730  31.243  60.455  1.00  0.00    -0.084 Cl
HETATM   25  C   UNL     1      10.391  30.642  57.544  1.00  0.00     0.004 A 
HETATM   26  C   UNL     1       9.892  29.493  56.923  1.00  0.00     0.029 A 
ENDBRANCH  17  20
ENDBRANCH  15  16
ENDBRANCH   1  15
TORSDOF 3
ENDMDL
MODEL 3
REMARK VINA RESULT:      -8.6      4.542      7.344
REMARK  3 active torsions:
REMARK  status: ('A' for Active; 'I' for Inactive)
REMARK    1  A    between atoms: C_6  and  N_7 
REMARK       I    between atoms: N_7  and  C_8 
REMARK    2  A    between atoms: C_8  and  C_9 
REMARK    3  A    between atoms: C_9  and  C_10 
ROOT
HETATM    1  C   UNL     1       7.220  25.260  55.090  1.00  0.00     0.286 C 
HETATM    2  N   UNL     1       7.637  24.350  53.929  1.00  0.00    -0.056 N 
HETATM    3  H   UNL     1       7.114  24.600  53.079  1.00  0.00     0.278 HD
HETATM    4  H   UNL     1       8.628  24.537  53.722  1.00  0.00     0.278 HD
HETATM    5  C   UNL     1       7.472  22.878  54.196  1.00  0.00     0.209 C 
HETATM    6  C   UNL     1       8.175  22.511  55.519  1.00  0.00     0.115 C 
HETATM    7  N   UNL     1       7.772  23.368  56.622  1.00  0.00    -0.353 N 
HETATM    8  C   UNL     1       7.574  24.718  56.489  1.00  0.00     0.249 C 
HETATM    9  O   UNL     1       7.568  25.452  57.473  1.00  0.00    -0.271 OA
HETATM   10  C   UNL     1       8.055  22.070  53.040  1.00  0.00     0.035 C 
HETATM   11  C   UNL     1       7.875  20.574  53.309  1.00  0.00     0.002 C 
HETATM   12  C   UNL     1       8.435  20.152  54.670  1.00  0.00     0.002 C 
HETATM   13  C   UNL     1       7.934  21.031  55.819  1.00  0.00     0.027 C 
HETATM   14  H   UNL     1       8.014  23.085  57.571  1.00  0.00     0.163 HD
ENDROOT
BRANCH   1  15
HETATM   15  C   UNL     1       5.746  25.673  55.004  1.00  0.00     0.146 C 
BRANCH  15  16
HETATM   16  C   UNL     1       5.252  25.686  53.573  1.00  0.00     0.224 C 
HETATM   17  N   UNL     1       5.534  26.852  52.893  1.00  0.00    -0.327 N 
HETATM   18  H   UNL     1       6.217  27.491  53.292  1.00  0.00     0.169 HD
HETATM   19  O   UNL     1       4.577  24.744  53.175  1.00  0.00    -0.273 OA
BRANCH  17  20
HETATM   20  C   UNL     1       4.920  27.315  51.707  1.00  0.00     0.036 A 
HETATM   21  C   UNL     1       5.087  26.714  50.459  1.00  0.00     0.053 A 
HETATM   22  C   UNL     1       4.371  27.189  49.355  1.00  0.00     0.036 A 
HETATM   23  C   UNL     1       3.501  28.268  49.479  1.00  0.00     0.024 A 
HETATM   24 CL   UNL     1       4.548  26.406  47.832  1.00  0.00    -0.084 Cl
HETATM   25  C   UNL     1       3.341  28.881  50.719  1.00  0.00     0.004 A 
HETATM   26  C   UNL     1       4.043  28.402  51.828  1.00  0.00     0.029 A 
ENDBRANCH  17  20
ENDBRANCH  15  16
ENDBRANCH   1  15
TORSDOF 3
ENDMDL
MODEL 4
REMARK VINA RESULT:      -8.6      2.907      4.756
REMARK  3 active torsions:
REMARK  status: ('A' for Active; 'I' for Inactive)
REMARK    1  A    between atoms: C_6  and  N_7 
REMARK       I    between atoms: N_7  and  C_8 
REMARK    2  A    between atoms: C_8  and  C_9 
REMARK    3  A    between atoms: C_9  and  C_10 
ROOT
HETATM    1  C   UNL     1       5.931  27.344  55.892  1.00  0.00     0.286 C 
HETATM    2  N   UNL     1       5.195  26.285  55.063  1.00  0.00    -0.056 N 
HETATM    3  H   UNL     1       5.355  25.351  55.463  1.00  0.00     0.278 HD
HETATM    4  H   UNL     1       4.185  26.465  55.149  1.00  0.00     0.278 HD
HETATM    5  C   UNL     1       5.559  26.268  53.603  1.00  0.00     0.209 C 
HETATM    6  C   UNL     1       5.411  27.687  53.017  1.00  0.00     0.115 C 
HETATM    7  N   UNL     1       6.118  28.690  53.798  1.00  0.00    -0.353 N 
HETATM    8  C   UNL     1       6.150  28.688  55.168  1.00  0.00     0.249 C 
HETATM    9  O   UNL     1       6.455  29.701  55.791  1.00  0.00    -0.271 OA
HETATM   10  C   UNL     1       4.661  25.287  52.854  1.00  0.00     0.035 C 
HETATM   11  C   UNL     1       5.041  25.263  51.372  1.00  0.00     0.002 C 
HETATM   12  C   UNL     1       5.044  26.659  50.745  1.00  0.00     0.002 C 
HETATM   13  C   UNL     1       5.857  27.673  51.554  1.00  0.00     0.027 C 
HETATM   14  H   UNL     1       6.258  29.613  53.390  1.00  0.00     0.163 HD
ENDROOT
BRANCH   1  15
HETATM   15  C   UNL     1       7.239  26.809  56.489  1.00  0.00     0.146 C 
BRANCH  15  16
HETATM   16  C   UNL     1       7.159  25.323  56.766  1.00  0.00     0.224 C 
HETATM   17  N   UNL     1       8.118  24.579  56.112  1.00  0.00    -0.327 N 
HETATM   18  H   UNL     1       8.911  25.065  55.701  1.00  0.00     0.169 HD
HETATM   19  O   UNL     1       6.226  24.899  57.438  1.00  0.00    -0.273 OA
BRANCH  17  20
HETATM   20  C   UNL     1       8.098  23.186  55.874  1.00  0.00     0.036 A 
HETATM   21  C   UNL     1       7.919  22.614  54.613  1.00  0.00     0.053 A 
HETATM   22  C   UNL     1       8.000  21.227  54.459  1.00  0.00     0.036 A 
HETATM   23  C   UNL     1       8.243  20.399  55.552  1.00  0.00     0.024 A 
HETATM   24 CL   UNL     1       7.827  20.538  52.890  1.00  0.00    -0.084 Cl
HETATM   25  C   UNL     1       8.408  20.963  56.814  1.00  0.00     0.004 A 
HETATM   26  C   UNL     1       8.342  22.350  56.972  1.00  0.00     0.029 A 
ENDBRANCH  17  20
ENDBRANCH  15  16
ENDBRANCH   1  15
TORSDOF 3
ENDMDL
MODEL 5
REMARK VINA RESULT:      -8.6      2.709      4.403
REMARK  3 active torsions:
REMARK  status: ('A' for Active; 'I' for Inactive)
REMARK    1  A    between atoms: C_6  and  N_7 
REMARK       I    between atoms: N_7  and  C_8 
REMARK    2  A    between atoms: C_8  and  C_9 
REMARK    3  A    between atoms: C_9  and  C_10 
ROOT
HETATM    1  C   UNL     1       5.738  27.521  55.990  1.00  0.00     0.286 C 
HETATM    2  N   UNL     1       5.068  26.481  55.085  1.00  0.00    -0.056 N 
HETATM    3  H   UNL     1       5.236  25.534  55.451  1.00  0.00     0.278 HD
HETATM    4  H   UNL     1       4.050  26.631  55.134  1.00  0.00     0.278 HD
HETATM    5  C   UNL     1       5.493  26.537  53.643  1.00  0.00     0.209 C 
HETATM    6  C   UNL     1       5.332  27.977  53.113  1.00  0.00     0.115 C 
HETATM    7  N   UNL     1       5.977  28.962  53.965  1.00  0.00    -0.353 N 
HETATM    8  C   UNL     1       5.951  28.900  55.334  1.00  0.00     0.249 C 
HETATM    9  O   UNL     1       6.201  29.892  56.013  1.00  0.00    -0.271 OA
HETATM   10  C   UNL     1       4.656  25.567  52.814  1.00  0.00     0.035 C 
HETATM   11  C   UNL     1       5.099  25.618  51.350  1.00  0.00     0.002 C 
HETATM   12  C   UNL     1       5.091  27.040  50.785  1.00  0.00     0.002 C 
HETATM   13  C   UNL     1       5.841  28.038  51.671  1.00  0.00     0.027 C 
HETATM   14  H   UNL     1       6.109  29.905  53.604  1.00  0.00     0.163 HD
ENDROOT
BRANCH   1  15
HETATM   15  C   UNL     1       7.034  26.994  56.620  1.00  0.00     0.146 C 
BRANCH  15  16
HETATM   16  C   UNL     1       7.137  25.488  56.506  1.00  0.00     0.224 C 
HETATM   17  N   UNL     1       8.050  25.059  55.565  1.00  0.00    -0.327 N 
HETATM   18  H   UNL     1       8.721  25.730  55.201  1.00  0.00     0.169 HD
HETATM   19  O   UNL     1       6.363  24.794  57.154  1.00  0.00    -0.273 OA
BRANCH  17  20
HETATM   20  C   UNL     1       8.124  23.777  54.975  1.00  0.00     0.036 A 
HETATM   21  C   UNL     1       8.363  22.602  55.691  1.00  0.00     0.053 A 
HETATM   22  C   UNL     1       8.333  21.368  55.036  1.00  0.00     0.036 A 
HETATM   23  C   UNL     1       8.083  21.290  53.669  1.00  0.00     0.024 A 
HETATM   24 CL   UNL     1       8.579  19.924  55.941  1.00  0.00    -0.084 Cl
HETATM   25  C   UNL     1       7.858  22.459  52.947  1.00  0.00     0.004 A 
HETATM   26  C   UNL     1       7.873  23.695  53.599  1.00  0.00     0.029 A 
ENDBRANCH  17  20
ENDBRANCH  15  16
ENDBRANCH   1  15
TORSDOF 3
ENDMDL
MODEL 6
REMARK VINA RESULT:      -8.5      1.729      2.362
REMARK  3 active torsions:
REMARK  status: ('A' for Active; 'I' for Inactive)
REMARK    1  A    between atoms: C_6  and  N_7 
REMARK       I    between atoms: N_7  and  C_8 
REMARK    2  A    between atoms: C_8  and  C_9 
REMARK    3  A    between atoms: C_9  and  C_10 
ROOT
HETATM    1  C   UNL     1       7.458  29.291  57.207  1.00  0.00     0.286 C 
HETATM    2  N   UNL     1       8.581  29.613  58.199  1.00  0.00    -0.056 N 
HETATM    3  H   UNL     1       9.084  28.752  58.455  1.00  0.00     0.278 HD
HETATM    4  H   UNL     1       9.265  30.213  57.717  1.00  0.00     0.278 HD
HETATM    5  C   UNL     1       8.129  30.313  59.453  1.00  0.00     0.209 C 
HETATM    6  C   UNL     1       7.294  31.555  59.078  1.00  0.00     0.115 C 
HETATM    7  N   UNL     1       6.222  31.247  58.145  1.00  0.00    -0.353 N 
HETATM    8  C   UNL     1       6.368  30.376  57.097  1.00  0.00     0.249 C 
HETATM    9  O   UNL     1       5.583  30.392  56.152  1.00  0.00    -0.271 OA
HETATM   10  C   UNL     1       9.339  30.716  60.289  1.00  0.00     0.035 C 
HETATM   11  C   UNL     1       8.875  31.417  61.569  1.00  0.00     0.002 C 
HETATM   12  C   UNL     1       7.932  32.589  61.286  1.00  0.00     0.002 C 
HETATM   13  C   UNL     1       6.775  32.212  60.358  1.00  0.00     0.027 C 
HETATM   14  H   UNL     1       5.493  31.943  57.996  1.00  0.00     0.163 HD
ENDROOT
BRANCH   1  15
HETATM   15  C   UNL     1       6.846  27.905  57.451  1.00  0.00     0.146 C 
BRANCH  15  16
HETATM   16  C   UNL     1       7.668  26.812  56.802  1.00  0.00     0.224 C 
HETATM   17  N   UNL     1       7.100  26.286  55.661  1.00  0.00    -0.327 N 
HETATM   18  H   UNL     1       6.335  26.794  55.223  1.00  0.00     0.169 HD
HETATM   19  O   UNL     1       8.680  26.419  57.371  1.00  0.00    -0.273 OA
BRANCH  17  20
HETATM   20  C   UNL     1       7.414  25.054  55.044  1.00  0.00     0.036 A 
HETATM   21  C   UNL     1       7.409  23.827  55.708  1.00  0.00     0.053 A 
HETATM   22  C   UNL     1       7.648  22.647  54.997  1.00  0.00     0.036 A 
HETATM   23  C   UNL     1       7.907  22.678  53.629  1.00  0.00     0.024 A 
HETATM   24 CL   UNL     1       7.589  21.136  55.820  1.00  0.00    -0.084 Cl
HETATM   25  C   UNL     1       7.927  23.901  52.964  1.00  0.00     0.004 A 
HETATM   26  C   UNL     1       7.676  25.082  53.667  1.00  0.00     0.029 A 
ENDBRANCH  17  20
ENDBRANCH  15  16
ENDBRANCH   1  15
TORSDOF 3
ENDMDL
MODEL 7
REMARK VINA RESULT:      -8.5      3.421      7.930
REMARK  3 active torsions:
REMARK  status: ('A' for Active; 'I' for Inactive)
REMARK    1  A    between atoms: C_6  and  N_7 
REMARK       I    between atoms: N_7  and  C_8 
REMARK    2  A    between atoms: C_8  and  C_9 
REMARK    3  A    between atoms: C_9  and  C_10 
ROOT
HETATM    1  C   UNL     1       6.682  26.315  55.880  1.00  0.00     0.286 C 
HETATM    2  N   UNL     1       7.411  25.038  56.313  1.00  0.00    -0.056 N 
HETATM    3  H   UNL     1       8.153  25.267  56.987  1.00  0.00     0.278 HD
HETATM    4  H   UNL     1       6.737  24.446  56.818  1.00  0.00     0.278 HD
HETATM    5  C   UNL     1       8.000  24.238  55.182  1.00  0.00     0.209 C 
HETATM    6  C   UNL     1       6.914  23.970  54.120  1.00  0.00     0.115 C 
HETATM    7  N   UNL     1       6.229  25.182  53.701  1.00  0.00    -0.353 N 
HETATM    8  C   UNL     1       5.878  26.182  54.571  1.00  0.00     0.249 C 
HETATM    9  O   UNL     1       5.027  27.012  54.263  1.00  0.00    -0.271 OA
HETATM   10  C   UNL     1       8.563  22.923  55.712  1.00  0.00     0.035 C 
HETATM   11  C   UNL     1       9.172  22.117  54.562  1.00  0.00     0.002 C 
HETATM   12  C   UNL     1       8.191  21.918  53.404  1.00  0.00     0.002 C 
HETATM   13  C   UNL     1       7.542  23.225  52.940  1.00  0.00     0.027 C 
HETATM   14  H   UNL     1       5.648  25.148  52.865  1.00  0.00     0.163 HD
ENDROOT
BRANCH   1  15
HETATM   15  C   UNL     1       7.613  27.533  55.845  1.00  0.00     0.146 C 
BRANCH  15  16
HETATM   16  C   UNL     1       7.659  28.238  57.185  1.00  0.00     0.224 C 
HETATM   17  N   UNL     1       7.566  29.611  57.099  1.00  0.00    -0.327 N 
HETATM   18  H   UNL     1       7.254  30.021  56.222  1.00  0.00     0.169 HD
HETATM   19  O   UNL     1       7.872  27.573  58.192  1.00  0.00    -0.273 OA
BRANCH  17  20
HETATM   20  C   UNL     1       7.929  30.552  58.089  1.00  0.00     0.036 A 
HETATM   21  C   UNL     1       7.011  31.220  58.901  1.00  0.00     0.053 A 
HETATM   22  C   UNL     1       7.465  32.069  59.914  1.00  0.00     0.036 A 
HETATM   23  C   UNL     1       8.828  32.274  60.117  1.00  0.00     0.024 A 
HETATM   24 CL   UNL     1       6.324  32.848  60.941  1.00  0.00    -0.084 Cl
HETATM   25  C   UNL     1       9.747  31.621  59.301  1.00  0.00     0.004 A 
HETATM   26  C   UNL     1       9.299  30.760  58.296  1.00  0.00     0.029 A 
ENDBRANCH  17  20
ENDBRANCH  15  16
ENDBRANCH   1  15
TORSDOF 3
ENDMDL
MODEL 8
REMARK VINA RESULT:      -8.2      4.092      5.640
REMARK  3 active torsions:
REMARK  status: ('A' for Active; 'I' for Inactive)
REMARK    1  A    between atoms: C_6  and  N_7 
REMARK       I    between atoms: N_7  and  C_8 
REMARK    2  A    between atoms: C_8  and  C_9 
REMARK    3  A    between atoms: C_9  and  C_10 
ROOT
HETATM    1  C   UNL     1       5.148  27.414  53.404  1.00  0.00     0.286 C 
HETATM    2  N   UNL     1       4.723  26.698  52.117  1.00  0.00    -0.056 N 
HETATM    3  H   UNL     1       5.089  25.736  52.112  1.00  0.00     0.278 HD
HETATM    4  H   UNL     1       3.697  26.616  52.126  1.00  0.00     0.278 HD
HETATM    5  C   UNL     1       5.138  27.392  50.847  1.00  0.00     0.209 C 
HETATM    6  C   UNL     1       4.675  28.862  50.888  1.00  0.00     0.115 C 
HETATM    7  N   UNL     1       5.087  29.545  52.104  1.00  0.00    -0.353 N 
HETATM    8  C   UNL     1       5.063  28.952  53.340  1.00  0.00     0.249 C 
HETATM    9  O   UNL     1       5.089  29.632  54.363  1.00  0.00    -0.271 OA
HETATM   10  C   UNL     1       4.536  26.676  49.642  1.00  0.00     0.035 C 
HETATM   11  C   UNL     1       4.969  27.377  48.352  1.00  0.00     0.002 C 
HETATM   12  C   UNL     1       4.659  28.876  48.367  1.00  0.00     0.002 C 
HETATM   13  C   UNL     1       5.170  29.577  49.629  1.00  0.00     0.027 C 
HETATM   14  H   UNL     1       5.015  30.560  52.139  1.00  0.00     0.163 HD
ENDROOT
BRANCH   1  15
HETATM   15  C   UNL     1       6.521  26.948  53.903  1.00  0.00     0.146 C 
BRANCH  15  16
HETATM   16  C   UNL     1       6.505  25.487  54.298  1.00  0.00     0.224 C 
HETATM   17  N   UNL     1       7.741  24.878  54.246  1.00  0.00    -0.327 N 
HETATM   18  H   UNL     1       8.568  25.467  54.181  1.00  0.00     0.169 HD
HETATM   19  O   UNL     1       5.426  24.950  54.523  1.00  0.00    -0.273 OA
BRANCH  17  20
HETATM   20  C   UNL     1       8.005  23.491  54.202  1.00  0.00     0.036 A 
HETATM   21  C   UNL     1       8.422  22.741  55.303  1.00  0.00     0.053 A 
HETATM   22  C   UNL     1       8.576  21.357  55.187  1.00  0.00     0.036 A 
HETATM   23  C   UNL     1       8.333  20.710  53.978  1.00  0.00     0.024 A 
HETATM   24 CL   UNL     1       9.042  20.438  56.566  1.00  0.00    -0.084 Cl
HETATM   25  C   UNL     1       7.930  21.454  52.872  1.00  0.00     0.004 A 
HETATM   26  C   UNL     1       7.762  22.836  52.986  1.00  0.00     0.029 A 
ENDBRANCH  17  20
ENDBRANCH  15  16
ENDBRANCH   1  15
TORSDOF 3
ENDMDL
MODEL 9
REMARK VINA RESULT:      -8.2      2.544      3.168
REMARK  3 active torsions:
REMARK  status: ('A' for Active; 'I' for Inactive)
REMARK    1  A    between atoms: C_6  and  N_7 
REMARK       I    between atoms: N_7  and  C_8 
REMARK    2  A    between atoms: C_8  and  C_9 
REMARK    3  A    between atoms: C_9  and  C_10 
ROOT
HETATM    1  C   UNL     1       5.521  28.222  53.189  1.00  0.00     0.286 C 
HETATM    2  N   UNL     1       6.907  28.170  53.840  1.00  0.00    -0.056 N 
HETATM    3  H   UNL     1       7.419  27.340  53.513  1.00  0.00     0.278 HD
HETATM    4  H   UNL     1       7.441  28.986  53.510  1.00  0.00     0.278 HD
HETATM    5  C   UNL     1       6.893  28.182  55.345  1.00  0.00     0.209 C 
HETATM    6  C   UNL     1       6.048  29.372  55.844  1.00  0.00     0.115 C 
HETATM    7  N   UNL     1       4.729  29.415  55.234  1.00  0.00    -0.353 N 
HETATM    8  C   UNL     1       4.506  29.130  53.912  1.00  0.00     0.249 C 
HETATM    9  O   UNL     1       3.472  29.493  53.357  1.00  0.00    -0.271 OA
HETATM   10  C   UNL     1       8.320  28.280  55.878  1.00  0.00     0.035 C 
HETATM   11  C   UNL     1       8.303  28.280  57.409  1.00  0.00     0.002 C 
HETATM   12  C   UNL     1       7.380  29.356  57.985  1.00  0.00     0.002 C 
HETATM   13  C   UNL     1       5.977  29.327  57.372  1.00  0.00     0.027 C 
HETATM   14  H   UNL     1       4.025  30.029  55.642  1.00  0.00     0.163 HD
ENDROOT
BRANCH   1  15
HETATM   15  C   UNL     1       4.943  26.824  52.937  1.00  0.00     0.146 C 
BRANCH  15  16
HETATM   16  C   UNL     1       6.036  25.784  52.810  1.00  0.00     0.224 C 
HETATM   17  N   UNL     1       5.967  24.781  53.754  1.00  0.00    -0.327 N 
HETATM   18  H   UNL     1       5.109  24.679  54.291  1.00  0.00     0.169 HD
HETATM   19  O   UNL     1       6.921  25.958  51.981  1.00  0.00    -0.273 OA
BRANCH  17  20
HETATM   20  C   UNL     1       7.000  23.892  54.128  1.00  0.00     0.036 A 
HETATM   21  C   UNL     1       7.296  22.711  53.446  1.00  0.00     0.053 A 
HETATM   22  C   UNL     1       8.393  21.936  53.836  1.00  0.00     0.036 A 
HETATM   23  C   UNL     1       9.191  22.319  54.911  1.00  0.00     0.024 A 
HETATM   24 CL   UNL     1       8.776  20.508  52.954  1.00  0.00    -0.084 Cl
HETATM   25  C   UNL     1       8.893  23.489  55.603  1.00  0.00     0.004 A 
HETATM   26  C   UNL     1       7.806  24.274  55.209  1.00  0.00     0.029 A 
ENDBRANCH  17  20
ENDBRANCH  15  16
ENDBRANCH   1  15
TORSDOF 3
ENDMDL
MODEL 10
REMARK VINA RESULT:      -8.1      4.425      7.644
REMARK  3 active torsions:
REMARK  status: ('A' for Active; 'I' for Inactive)
REMARK    1  A    between atoms: C_6  and  N_7 
REMARK       I    between atoms: N_7  and  C_8 
REMARK    2  A    between atoms: C_8  and  C_9 
REMARK    3  A    between atoms: C_9  and  C_10 
ROOT
HETATM    1  C   UNL     1       7.676  25.309  55.665  1.00  0.00     0.286 C 
HETATM    2  N   UNL     1       7.881  24.493  54.384  1.00  0.00    -0.056 N 
HETATM    3  H   UNL     1       7.271  24.851  53.636  1.00  0.00     0.278 HD
HETATM    4  H   UNL     1       8.848  24.648  54.064  1.00  0.00     0.278 HD
HETATM    5  C   UNL     1       7.657  23.013  54.540  1.00  0.00     0.209 C 
HETATM    6  C   UNL     1       8.499  22.486  55.720  1.00  0.00     0.115 C 
HETATM    7  N   UNL     1       8.295  23.253  56.938  1.00  0.00    -0.353 N 
HETATM    8  C   UNL     1       8.169  24.618  56.952  1.00  0.00     0.249 C 
HETATM    9  O   UNL     1       8.335  25.254  57.989  1.00  0.00    -0.271 OA
HETATM   10  C   UNL     1       8.036  22.290  53.250  1.00  0.00     0.035 C 
HETATM   11  C   UNL     1       7.796  20.787  53.408  1.00  0.00     0.002 C 
HETATM   12  C   UNL     1       8.496  20.208  54.640  1.00  0.00     0.002 C 
HETATM   13  C   UNL     1       8.203  20.998  55.918  1.00  0.00     0.027 C 
HETATM   14  H   UNL     1       8.637  22.868  57.818  1.00  0.00     0.163 HD
ENDROOT
BRANCH   1  15
HETATM   15  C   UNL     1       6.232  25.805  55.813  1.00  0.00     0.146 C 
BRANCH  15  16
HETATM   16  C   UNL     1       6.015  27.117  55.088  1.00  0.00     0.224 C 
HETATM   17  N   UNL     1       4.708  27.553  55.099  1.00  0.00    -0.327 N 
HETATM   18  H   UNL     1       4.058  27.120  55.750  1.00  0.00     0.169 HD
HETATM   19  O   UNL     1       6.956  27.617  54.484  1.00  0.00    -0.273 OA
BRANCH  17  20
HETATM   20  C   UNL     1       4.124  28.512  54.240  1.00  0.00     0.036 A 
HETATM   21  C   UNL     1       3.964  29.859  54.571  1.00  0.00     0.053 A 
HETATM   22  C   UNL     1       3.455  30.754  53.625  1.00  0.00     0.036 A 
HETATM   23  C   UNL     1       3.088  30.318  52.354  1.00  0.00     0.024 A 
HETATM   24 CL   UNL     1       3.310  32.421  54.029  1.00  0.00    -0.084 Cl
HETATM   25  C   UNL     1       3.232  28.973  52.023  1.00  0.00     0.004 A 
HETATM   26  C   UNL     1       3.753  28.077  52.960  1.00  0.00     0.029 A 
ENDBRANCH  17  20
ENDBRANCH  15  16
ENDBRANCH   1  15
TORSDOF 3
ENDMDL
