MODEL 1
REMARK VINA RESULT:      -9.9      0.000      0.000
REMARK  5 active torsions:
REMARK  status: ('A' for Active; 'I' for Inactive)
REMARK    1  A    between atoms: C_2  and  C_3 
REMARK    2  A    between atoms: C_8  and  C_9 
REMARK       I    between atoms: C_9  and  N_10 
REMARK    3  A    between atoms: N_10  and  C_11 
REMARK    4  A    between atoms: C_11  and  C_12 
REMARK    5  A    between atoms: C_19  and  C_20 
ROOT
HETATM    1  C   UNL     1       6.936  25.641  53.647  1.00  0.00     0.118 C 
HETATM    2  N   UNL     1       7.745  26.813  53.957  1.00  0.00    -0.366 N 
HETATM    3  C   UNL     1       7.463  27.629  54.995  1.00  0.00     0.123 A 
HETATM    4  N   UNL     1       6.328  27.481  55.741  1.00  0.00    -0.240 N 
HETATM    5  N   UNL     1       6.178  28.415  56.696  1.00  0.00    -0.165 NA
HETATM    6  C   UNL     1       7.309  29.150  56.603  1.00  0.00     0.148 A 
HETATM    7  C   UNL     1       8.130  28.697  55.535  1.00  0.00     0.088 A 
HETATM    8  C   UNL     1       5.329  26.455  55.516  1.00  0.00     0.221 C 
HETATM    9  C   UNL     1       5.481  25.849  54.107  1.00  0.00     0.066 C 
HETATM   10  H   UNL     1       8.640  26.873  53.474  1.00  0.00     0.161 HD
ENDROOT
BRANCH   6  11
HETATM   11  C   UNL     1       7.601  30.263  57.522  1.00  0.00     0.272 C 
HETATM   12  N   UNL     1       8.867  30.209  58.059  1.00  0.00    -0.353 N 
HETATM   13  H   UNL     1       9.383  29.352  57.881  1.00  0.00     0.162 HD
HETATM   14  O   UNL     1       6.793  31.152  57.775  1.00  0.00    -0.266 OA
BRANCH  12  15
HETATM   15  C   UNL     1       9.346  31.152  59.044  1.00  0.00     0.155 C 
BRANCH  15  16
HETATM   16  C   UNL     1       8.564  31.080  60.357  1.00  0.00     0.139 C 
HETATM   17  O   UNL     1       9.120  30.073  61.227  1.00  0.00    -0.384 OA
HETATM   18  C   UNL     1       8.907  30.489  62.583  1.00  0.00     0.168 C 
HETATM   19  C   UNL     1       8.318  31.886  62.549  1.00  0.00     0.029 C 
HETATM   20  C   UNL     1       8.646  32.367  61.158  1.00  0.00     0.035 C 
ENDBRANCH  15  16
ENDBRANCH  12  15
ENDBRANCH   6  11
BRANCH   8  21
HETATM   21  C   UNL     1       5.367  25.429  56.626  1.00  0.00     0.409 C 
HETATM   22  F   UNL     1       4.327  25.559  57.481  1.00  0.00    -0.169 F 
HETATM   23  F   UNL     1       5.269  24.178  56.100  1.00  0.00    -0.169 F 
HETATM   24  F   UNL     1       6.498  25.458  57.355  1.00  0.00    -0.169 F 
ENDBRANCH   8  21
BRANCH   1  25
HETATM   25  C   UNL     1       7.583  24.344  54.107  1.00  0.00    -0.034 A 
HETATM   26  C   UNL     1       8.366  24.345  55.274  1.00  0.00     0.011 A 
HETATM   27  C   UNL     1       8.960  23.170  55.745  1.00  0.00     0.026 A 
HETATM   28  C   UNL     1       8.784  21.966  55.059  1.00  0.00     0.055 A 
HETATM   29  C   UNL     1       8.008  21.942  53.898  1.00  0.00     0.056 A 
HETATM   30 CL   UNL     1       9.543  20.555  55.701  1.00  0.00    -0.083 Cl
HETATM   31  C   UNL     1       7.409  23.120  53.434  1.00  0.00     0.034 A 
HETATM   32 CL   UNL     1       7.743  20.494  52.992  1.00  0.00    -0.083 Cl
ENDBRANCH   1  25
TORSDOF 5
ENDMDL
MODEL 2
REMARK VINA RESULT:      -9.6      1.925      2.919
REMARK  5 active torsions:
REMARK  status: ('A' for Active; 'I' for Inactive)
REMARK    1  A    between atoms: C_2  and  C_3 
REMARK    2  A    between atoms: C_8  and  C_9 
REMARK       I    between atoms: C_9  and  N_10 
REMARK    3  A    between atoms: N_10  and  C_11 
REMARK    4  A    between atoms: C_11  and  C_12 
REMARK    5  A    between atoms: C_19  and  C_20 
ROOT
HETATM    1  C   UNL     1       7.527  27.957  54.338  1.00  0.00     0.118 C 
HETATM    2  N   UNL     1       8.619  28.614  55.045  1.00  0.00    -0.366 N 
HETATM    3  C   UNL     1       8.424  29.307  56.188  1.00  0.00     0.123 A 
HETATM    4  N   UNL     1       7.172  29.545  56.682  1.00  0.00    -0.240 N 
HETATM    5  N   UNL     1       7.159  30.300  57.794  1.00  0.00    -0.165 NA
HETATM    6  C   UNL     1       8.471  30.491  58.064  1.00  0.00     0.148 A 
HETATM    7  C   UNL     1       9.292  29.898  57.067  1.00  0.00     0.088 A 
HETATM    8  C   UNL     1       5.946  29.086  56.060  1.00  0.00     0.221 C 
HETATM    9  C   UNL     1       6.197  28.691  54.591  1.00  0.00     0.066 C 
HETATM   10  H   UNL     1       9.558  28.361  54.743  1.00  0.00     0.161 HD
ENDROOT
BRANCH   6  11
HETATM   11  C   UNL     1       8.930  31.224  59.256  1.00  0.00     0.272 C 
HETATM   12  N   UNL     1       8.615  30.594  60.438  1.00  0.00    -0.353 N 
HETATM   13  H   UNL     1       7.991  29.796  60.358  1.00  0.00     0.162 HD
HETATM   14  O   UNL     1       9.538  32.288  59.194  1.00  0.00    -0.266 OA
BRANCH  12  15
HETATM   15  C   UNL     1       8.897  31.166  61.735  1.00  0.00     0.155 C 
BRANCH  15  16
HETATM   16  C   UNL     1       7.830  32.167  62.181  1.00  0.00     0.139 C 
HETATM   17  O   UNL     1       6.527  31.551  62.197  1.00  0.00    -0.384 OA
HETATM   18  C   UNL     1       5.750  32.178  63.226  1.00  0.00     0.168 C 
HETATM   19  C   UNL     1       6.661  33.131  63.977  1.00  0.00     0.029 C 
HETATM   20  C   UNL     1       8.042  32.653  63.604  1.00  0.00     0.035 C 
ENDBRANCH  15  16
ENDBRANCH  12  15
ENDBRANCH   6  11
BRANCH   8  21
HETATM   21  C   UNL     1       5.314  27.987  56.885  1.00  0.00     0.409 C 
HETATM   22  F   UNL     1       6.228  27.300  57.608  1.00  0.00    -0.169 F 
HETATM   23  F   UNL     1       4.449  28.526  57.785  1.00  0.00    -0.169 F 
HETATM   24  F   UNL     1       4.616  27.095  56.159  1.00  0.00    -0.169 F 
ENDBRANCH   8  21
BRANCH   1  25
HETATM   25  C   UNL     1       7.495  26.455  54.576  1.00  0.00    -0.034 A 
HETATM   26  C   UNL     1       6.938  25.619  53.593  1.00  0.00     0.011 A 
HETATM   27  C   UNL     1       6.909  24.230  53.761  1.00  0.00     0.026 A 
HETATM   28  C   UNL     1       7.436  23.648  54.916  1.00  0.00     0.055 A 
HETATM   29  C   UNL     1       7.997  24.460  55.903  1.00  0.00     0.056 A 
HETATM   30 CL   UNL     1       7.370  21.928  55.052  1.00  0.00    -0.083 Cl
HETATM   31  C   UNL     1       8.030  25.850  55.728  1.00  0.00     0.034 A 
HETATM   32 CL   UNL     1       8.668  23.817  57.360  1.00  0.00    -0.083 Cl
ENDBRANCH   1  25
TORSDOF 5
ENDMDL
MODEL 3
REMARK VINA RESULT:      -9.6      1.840      2.278
REMARK  5 active torsions:
REMARK  status: ('A' for Active; 'I' for Inactive)
REMARK    1  A    between atoms: C_2  and  C_3 
REMARK    2  A    between atoms: C_8  and  C_9 
REMARK       I    between atoms: C_9  and  N_10 
REMARK    3  A    between atoms: N_10  and  C_11 
REMARK    4  A    between atoms: C_11  and  C_12 
REMARK    5  A    between atoms: C_19  and  C_20 
ROOT
HETATM    1  C   UNL     1       7.120  25.926  54.133  1.00  0.00     0.118 C 
HETATM    2  N   UNL     1       7.957  27.000  54.652  1.00  0.00    -0.366 N 
HETATM    3  C   UNL     1       7.634  27.692  55.765  1.00  0.00     0.123 A 
HETATM    4  N   UNL     1       6.436  27.516  56.401  1.00  0.00    -0.240 N 
HETATM    5  N   UNL     1       6.256  28.328  57.457  1.00  0.00    -0.165 NA
HETATM    6  C   UNL     1       7.426  29.002  57.544  1.00  0.00     0.148 A 
HETATM    7  C   UNL     1       8.306  28.642  56.488  1.00  0.00     0.088 A 
HETATM    8  C   UNL     1       5.410  26.588  55.971  1.00  0.00     0.221 C 
HETATM    9  C   UNL     1       5.645  26.159  54.509  1.00  0.00     0.066 C 
HETATM   10  H   UNL     1       8.890  27.069  54.247  1.00  0.00     0.161 HD
ENDROOT
BRANCH   6  11
HETATM   11  C   UNL     1       7.697  29.971  58.620  1.00  0.00     0.272 C 
HETATM   12  N   UNL     1       6.778  30.992  58.678  1.00  0.00    -0.353 N 
HETATM   13  H   UNL     1       6.125  31.041  57.901  1.00  0.00     0.162 HD
HETATM   14  O   UNL     1       8.648  29.867  59.389  1.00  0.00    -0.266 OA
BRANCH  12  15
HETATM   15  C   UNL     1       6.886  32.098  59.602  1.00  0.00     0.155 C 
BRANCH  15  16
HETATM   16  C   UNL     1       5.523  32.614  60.067  1.00  0.00     0.139 C 
HETATM   17  O   UNL     1       4.459  31.975  59.333  1.00  0.00    -0.384 OA
HETATM   18  C   UNL     1       3.314  31.891  60.193  1.00  0.00     0.168 C 
HETATM   19  C   UNL     1       3.733  32.373  61.568  1.00  0.00     0.029 C 
HETATM   20  C   UNL     1       5.238  32.286  61.521  1.00  0.00     0.035 C 
ENDBRANCH  15  16
ENDBRANCH  12  15
ENDBRANCH   6  11
BRANCH   8  21
HETATM   21  C   UNL     1       5.310  25.428  56.936  1.00  0.00     0.409 C 
HETATM   22  F   UNL     1       5.265  24.235  56.301  1.00  0.00    -0.169 F 
HETATM   23  F   UNL     1       6.415  25.392  57.729  1.00  0.00    -0.169 F 
HETATM   24  F   UNL     1       4.244  25.493  57.756  1.00  0.00    -0.169 F 
ENDBRANCH   8  21
BRANCH   1  25
HETATM   25  C   UNL     1       7.665  24.546  54.464  1.00  0.00    -0.034 A 
HETATM   26  C   UNL     1       8.372  24.358  55.664  1.00  0.00     0.011 A 
HETATM   27  C   UNL     1       8.870  23.100  56.018  1.00  0.00     0.026 A 
HETATM   28  C   UNL     1       8.671  22.001  55.180  1.00  0.00     0.055 A 
HETATM   29  C   UNL     1       7.969  22.164  53.984  1.00  0.00     0.056 A 
HETATM   30 CL   UNL     1       9.310  20.478  55.683  1.00  0.00    -0.083 Cl
HETATM   31  C   UNL     1       7.467  23.425  53.636  1.00  0.00     0.034 A 
HETATM   32 CL   UNL     1       7.684  20.855  52.892  1.00  0.00    -0.083 Cl
ENDBRANCH   1  25
TORSDOF 5
ENDMDL
MODEL 4
REMARK VINA RESULT:      -9.5      4.793      7.996
REMARK  5 active torsions:
REMARK  status: ('A' for Active; 'I' for Inactive)
REMARK    1  A    between atoms: C_2  and  C_3 
REMARK    2  A    between atoms: C_8  and  C_9 
REMARK       I    between atoms: C_9  and  N_10 
REMARK    3  A    between atoms: N_10  and  C_11 
REMARK    4  A    between atoms: C_11  and  C_12 
REMARK    5  A    between atoms: C_19  and  C_20 
ROOT
HETATM    1  C   UNL     1       5.248  25.975  55.284  1.00  0.00     0.118 C 
HETATM    2  N   UNL     1       4.640  26.108  53.967  1.00  0.00    -0.366 N 
HETATM    3  C   UNL     1       5.012  27.069  53.095  1.00  0.00     0.123 A 
HETATM    4  N   UNL     1       5.891  28.057  53.442  1.00  0.00    -0.240 N 
HETATM    5  N   UNL     1       6.104  28.963  52.473  1.00  0.00    -0.165 NA
HETATM    6  C   UNL     1       5.384  28.489  51.430  1.00  0.00     0.148 A 
HETATM    7  C   UNL     1       4.672  27.312  51.791  1.00  0.00     0.088 A 
HETATM    8  C   UNL     1       6.513  28.177  54.746  1.00  0.00     0.221 C 
HETATM    9  C   UNL     1       5.749  27.340  55.791  1.00  0.00     0.066 C 
HETATM   10  H   UNL     1       4.063  25.325  53.664  1.00  0.00     0.161 HD
ENDROOT
BRANCH   6  11
HETATM   11  C   UNL     1       5.380  29.147  50.113  1.00  0.00     0.272 C 
HETATM   12  N   UNL     1       4.429  28.644  49.256  1.00  0.00    -0.353 N 
HETATM   13  H   UNL     1       3.955  27.802  49.569  1.00  0.00     0.162 HD
HETATM   14  O   UNL     1       6.148  30.057  49.817  1.00  0.00    -0.266 OA
BRANCH  12  15
HETATM   15  C   UNL     1       4.293  29.083  47.885  1.00  0.00     0.155 C 
BRANCH  15  16
HETATM   16  C   UNL     1       3.172  28.354  47.141  1.00  0.00     0.139 C 
HETATM   17  O   UNL     1       3.504  26.963  46.957  1.00  0.00    -0.384 OA
HETATM   18  C   UNL     1       2.282  26.211  46.957  1.00  0.00     0.168 C 
HETATM   19  C   UNL     1       1.153  27.165  47.298  1.00  0.00     0.029 C 
HETATM   20  C   UNL     1       1.868  28.339  47.917  1.00  0.00     0.035 C 
ENDBRANCH  15  16
ENDBRANCH  12  15
ENDBRANCH   6  11
BRANCH   8  21
HETATM   21  C   UNL     1       7.986  27.845  54.661  1.00  0.00     0.409 C 
HETATM   22  F   UNL     1       8.742  28.933  54.388  1.00  0.00    -0.169 F 
HETATM   23  F   UNL     1       8.422  27.374  55.860  1.00  0.00    -0.169 F 
HETATM   24  F   UNL     1       8.280  26.906  53.743  1.00  0.00    -0.169 F 
ENDBRANCH   8  21
BRANCH   1  25
HETATM   25  C   UNL     1       6.265  24.846  55.349  1.00  0.00    -0.034 A 
HETATM   26  C   UNL     1       6.906  24.571  56.570  1.00  0.00     0.011 A 
HETATM   27  C   UNL     1       7.831  23.528  56.679  1.00  0.00     0.026 A 
HETATM   28  C   UNL     1       8.134  22.734  55.570  1.00  0.00     0.055 A 
HETATM   29  C   UNL     1       7.506  22.988  54.349  1.00  0.00     0.056 A 
HETATM   30 CL   UNL     1       9.281  21.461  55.781  1.00  0.00    -0.083 Cl
HETATM   31  C   UNL     1       6.576  24.030  54.246  1.00  0.00     0.034 A 
HETATM   32 CL   UNL     1       7.828  22.053  52.931  1.00  0.00    -0.083 Cl
ENDBRANCH   1  25
TORSDOF 5
ENDMDL
MODEL 5
REMARK VINA RESULT:      -9.4      1.855      2.415
REMARK  5 active torsions:
REMARK  status: ('A' for Active; 'I' for Inactive)
REMARK    1  A    between atoms: C_2  and  C_3 
REMARK    2  A    between atoms: C_8  and  C_9 
REMARK       I    between atoms: C_9  and  N_10 
REMARK    3  A    between atoms: N_10  and  C_11 
REMARK    4  A    between atoms: C_11  and  C_12 
REMARK    5  A    between atoms: C_19  and  C_20 
ROOT
HETATM    1  C   UNL     1       7.998  25.541  52.770  1.00  0.00     0.118 C 
HETATM    2  N   UNL     1       8.284  26.660  53.658  1.00  0.00    -0.366 N 
HETATM    3  C   UNL     1       7.318  27.491  54.106  1.00  0.00     0.123 A 
HETATM    4  N   UNL     1       6.032  27.413  53.651  1.00  0.00    -0.240 N 
HETATM    5  N   UNL     1       5.216  28.353  54.159  1.00  0.00    -0.165 NA
HETATM    6  C   UNL     1       6.003  29.017  55.037  1.00  0.00     0.148 A 
HETATM    7  C   UNL     1       7.333  28.515  55.016  1.00  0.00     0.088 A 
HETATM    8  C   UNL     1       5.568  26.451  52.671  1.00  0.00     0.221 C 
HETATM    9  C   UNL     1       6.758  25.839  51.906  1.00  0.00     0.066 C 
HETATM   10  H   UNL     1       9.213  26.666  54.078  1.00  0.00     0.161 HD
ENDROOT
BRANCH   6  11
HETATM   11  C   UNL     1       5.491  30.109  55.881  1.00  0.00     0.272 C 
HETATM   12  N   UNL     1       6.295  30.384  56.963  1.00  0.00    -0.353 N 
HETATM   13  H   UNL     1       7.048  29.722  57.131  1.00  0.00     0.162 HD
HETATM   14  O   UNL     1       4.451  30.714  55.636  1.00  0.00    -0.266 OA
BRANCH  12  15
HETATM   15  C   UNL     1       5.953  31.362  57.971  1.00  0.00     0.155 C 
BRANCH  15  16
HETATM   16  C   UNL     1       7.105  31.638  58.939  1.00  0.00     0.139 C 
HETATM   17  O   UNL     1       6.601  31.980  60.246  1.00  0.00    -0.384 OA
HETATM   18  C   UNL     1       7.553  31.532  61.221  1.00  0.00     0.168 C 
HETATM   19  C   UNL     1       8.628  30.751  60.491  1.00  0.00     0.029 C 
HETATM   20  C   UNL     1       7.978  30.418  59.171  1.00  0.00     0.035 C 
ENDBRANCH  15  16
ENDBRANCH  12  15
ENDBRANCH   6  11
BRANCH   8  21
HETATM   21  C   UNL     1       4.671  25.423  53.324  1.00  0.00     0.409 C 
HETATM   22  F   UNL     1       4.992  25.212  54.621  1.00  0.00    -0.169 F 
HETATM   23  F   UNL     1       3.385  25.865  53.321  1.00  0.00    -0.169 F 
HETATM   24  F   UNL     1       4.674  24.228  52.705  1.00  0.00    -0.169 F 
ENDBRANCH   8  21
BRANCH   1  25
HETATM   25  C   UNL     1       7.976  24.206  53.497  1.00  0.00    -0.034 A 
HETATM   26  C   UNL     1       7.851  24.190  54.897  1.00  0.00     0.011 A 
HETATM   27  C   UNL     1       7.804  22.984  55.604  1.00  0.00     0.026 A 
HETATM   28  C   UNL     1       7.882  21.766  54.925  1.00  0.00     0.055 A 
HETATM   29  C   UNL     1       8.005  21.758  53.534  1.00  0.00     0.056 A 
HETATM   30 CL   UNL     1       7.813  20.317  55.861  1.00  0.00    -0.083 Cl
HETATM   31  C   UNL     1       8.044  22.969  52.830  1.00  0.00     0.034 A 
HETATM   32 CL   UNL     1       8.108  20.293  52.622  1.00  0.00    -0.083 Cl
ENDBRANCH   1  25
TORSDOF 5
ENDMDL
MODEL 6
REMARK VINA RESULT:      -9.3      5.185      8.123
REMARK  5 active torsions:
REMARK  status: ('A' for Active; 'I' for Inactive)
REMARK    1  A    between atoms: C_2  and  C_3 
REMARK    2  A    between atoms: C_8  and  C_9 
REMARK       I    between atoms: C_9  and  N_10 
REMARK    3  A    between atoms: N_10  and  C_11 
REMARK    4  A    between atoms: C_11  and  C_12 
REMARK    5  A    between atoms: C_19  and  C_20 
ROOT
HETATM    1  C   UNL     1       5.061  25.557  54.262  1.00  0.00     0.118 C 
HETATM    2  N   UNL     1       4.582  25.925  52.936  1.00  0.00    -0.366 N 
HETATM    3  C   UNL     1       4.977  27.057  52.315  1.00  0.00     0.123 A 
HETATM    4  N   UNL     1       5.750  27.992  52.945  1.00  0.00    -0.240 N 
HETATM    5  N   UNL     1       6.001  29.083  52.200  1.00  0.00    -0.165 NA
HETATM    6  C   UNL     1       5.422  28.797  51.011  1.00  0.00     0.148 A 
HETATM    7  C   UNL     1       4.755  27.542  51.054  1.00  0.00     0.088 A 
HETATM    8  C   UNL     1       6.228  27.876  54.308  1.00  0.00     0.221 C 
HETATM    9  C   UNL     1       5.418  26.813  55.078  1.00  0.00     0.066 C 
HETATM   10  H   UNL     1       4.091  25.194  52.424  1.00  0.00     0.161 HD
ENDROOT
BRANCH   6  11
HETATM   11  C   UNL     1       5.509  29.705  49.856  1.00  0.00     0.272 C 
HETATM   12  N   UNL     1       4.475  29.550  48.962  1.00  0.00    -0.353 N 
HETATM   13  H   UNL     1       3.872  28.747  49.122  1.00  0.00     0.162 HD
HETATM   14  O   UNL     1       6.413  30.523  49.713  1.00  0.00    -0.266 OA
BRANCH  12  15
HETATM   15  C   UNL     1       4.394  30.278  47.716  1.00  0.00     0.155 C 
BRANCH  15  16
HETATM   16  C   UNL     1       3.259  29.784  46.817  1.00  0.00     0.139 C 
HETATM   17  O   UNL     1       2.863  28.447  47.184  1.00  0.00    -0.384 OA
HETATM   18  C   UNL     1       1.466  28.302  46.895  1.00  0.00     0.168 C 
HETATM   19  C   UNL     1       0.941  29.657  46.461  1.00  0.00     0.029 C 
HETATM   20  C   UNL     1       1.996  30.612  46.961  1.00  0.00     0.035 C 
ENDBRANCH  15  16
ENDBRANCH  12  15
ENDBRANCH   6  11
BRANCH   8  21
HETATM   21  C   UNL     1       7.720  27.633  54.326  1.00  0.00     0.409 C 
HETATM   22  F   UNL     1       8.112  26.926  55.410  1.00  0.00    -0.169 F 
HETATM   23  F   UNL     1       8.079  26.892  53.243  1.00  0.00    -0.169 F 
HETATM   24  F   UNL     1       8.455  28.760  54.288  1.00  0.00    -0.169 F 
ENDBRANCH   8  21
BRANCH   1  25
HETATM   25  C   UNL     1       6.138  24.483  54.219  1.00  0.00    -0.034 A 
HETATM   26  C   UNL     1       6.592  24.018  52.973  1.00  0.00     0.011 A 
HETATM   27  C   UNL     1       7.597  23.049  52.888  1.00  0.00     0.026 A 
HETATM   28  C   UNL     1       8.169  22.522  54.048  1.00  0.00     0.055 A 
HETATM   29  C   UNL     1       7.734  22.972  55.297  1.00  0.00     0.056 A 
HETATM   30 CL   UNL     1       9.407  21.332  53.867  1.00  0.00    -0.083 Cl
HETATM   31  C   UNL     1       6.733  23.948  55.376  1.00  0.00     0.034 A 
HETATM   32 CL   UNL     1       8.391  22.370  56.777  1.00  0.00    -0.083 Cl
ENDBRANCH   1  25
TORSDOF 5
ENDMDL
MODEL 7
REMARK VINA RESULT:      -9.3      6.737      9.347
REMARK  5 active torsions:
REMARK  status: ('A' for Active; 'I' for Inactive)
REMARK    1  A    between atoms: C_2  and  C_3 
REMARK    2  A    between atoms: C_8  and  C_9 
REMARK       I    between atoms: C_9  and  N_10 
REMARK    3  A    between atoms: N_10  and  C_11 
REMARK    4  A    between atoms: C_11  and  C_12 
REMARK    5  A    between atoms: C_19  and  C_20 
ROOT
HETATM    1  C   UNL     1       5.037  28.092  48.310  1.00  0.00     0.118 C 
HETATM    2  N   UNL     1       5.412  26.880  49.027  1.00  0.00    -0.366 N 
HETATM    3  C   UNL     1       5.477  26.832  50.375  1.00  0.00     0.123 A 
HETATM    4  N   UNL     1       5.321  27.950  51.145  1.00  0.00    -0.240 N 
HETATM    5  N   UNL     1       5.474  27.729  52.462  1.00  0.00    -0.165 NA
HETATM    6  C   UNL     1       5.664  26.392  52.542  1.00  0.00     0.148 A 
HETATM    7  C   UNL     1       5.690  25.800  51.250  1.00  0.00     0.088 A 
HETATM    8  C   UNL     1       5.066  29.276  50.620  1.00  0.00     0.221 C 
HETATM    9  C   UNL     1       5.420  29.344  49.121  1.00  0.00     0.066 C 
HETATM   10  H   UNL     1       5.432  26.026  48.472  1.00  0.00     0.161 HD
ENDROOT
BRANCH   6  11
HETATM   11  C   UNL     1       5.813  25.695  53.830  1.00  0.00     0.272 C 
HETATM   12  N   UNL     1       6.683  24.630  53.775  1.00  0.00    -0.353 N 
HETATM   13  H   UNL     1       6.995  24.365  52.845  1.00  0.00     0.162 HD
HETATM   14  O   UNL     1       5.223  26.038  54.850  1.00  0.00    -0.266 OA
BRANCH  12  15
HETATM   15  C   UNL     1       6.926  23.752  54.897  1.00  0.00     0.155 C 
BRANCH  15  16
HETATM   16  C   UNL     1       7.935  22.648  54.575  1.00  0.00     0.139 C 
HETATM   17  O   UNL     1       7.642  21.454  55.328  1.00  0.00    -0.384 OA
HETATM   18  C   UNL     1       8.056  20.324  54.548  1.00  0.00     0.168 C 
HETATM   19  C   UNL     1       8.496  20.836  53.190  1.00  0.00     0.029 C 
HETATM   20  C   UNL     1       7.878  22.210  53.123  1.00  0.00     0.035 C 
ENDBRANCH  15  16
ENDBRANCH  12  15
ENDBRANCH   6  11
BRANCH   8  21
HETATM   21  C   UNL     1       3.649  29.703  50.929  1.00  0.00     0.409 C 
HETATM   22  F   UNL     1       3.543  30.290  52.143  1.00  0.00    -0.169 F 
HETATM   23  F   UNL     1       3.240  30.632  50.024  1.00  0.00    -0.169 F 
HETATM   24  F   UNL     1       2.756  28.697  50.886  1.00  0.00    -0.169 F 
ENDBRANCH   8  21
BRANCH   1  25
HETATM   25  C   UNL     1       3.600  28.057  47.811  1.00  0.00    -0.034 A 
HETATM   26  C   UNL     1       2.830  26.901  48.024  1.00  0.00     0.011 A 
HETATM   27  C   UNL     1       1.498  26.835  47.602  1.00  0.00     0.026 A 
HETATM   28  C   UNL     1       0.907  27.924  46.958  1.00  0.00     0.055 A 
HETATM   29  C   UNL     1       1.654  29.084  46.738  1.00  0.00     0.056 A 
HETATM   30 CL   UNL     1      -0.742  27.773  46.469  1.00  0.00    -0.083 Cl
HETATM   31  C   UNL     1       2.985  29.147  47.169  1.00  0.00     0.034 A 
HETATM   32 CL   UNL     1       0.996  30.472  45.948  1.00  0.00    -0.083 Cl
ENDBRANCH   1  25
TORSDOF 5
ENDMDL
MODEL 8
REMARK VINA RESULT:      -9.0      4.789      6.726
REMARK  5 active torsions:
REMARK  status: ('A' for Active; 'I' for Inactive)
REMARK    1  A    between atoms: C_2  and  C_3 
REMARK    2  A    between atoms: C_8  and  C_9 
REMARK       I    between atoms: C_9  and  N_10 
REMARK    3  A    between atoms: N_10  and  C_11 
REMARK    4  A    between atoms: C_11  and  C_12 
REMARK    5  A    between atoms: C_19  and  C_20 
ROOT
HETATM    1  C   UNL     1       5.058  25.541  54.151  1.00  0.00     0.118 C 
HETATM    2  N   UNL     1       4.619  25.860  52.798  1.00  0.00    -0.366 N 
HETATM    3  C   UNL     1       5.016  26.980  52.157  1.00  0.00     0.123 A 
HETATM    4  N   UNL     1       5.752  27.947  52.783  1.00  0.00    -0.240 N 
HETATM    5  N   UNL     1       6.010  29.018  52.014  1.00  0.00    -0.165 NA
HETATM    6  C   UNL     1       5.477  28.686  50.815  1.00  0.00     0.148 A 
HETATM    7  C   UNL     1       4.830  27.422  50.874  1.00  0.00     0.088 A 
HETATM    8  C   UNL     1       6.184  27.880  54.164  1.00  0.00     0.221 C 
HETATM    9  C   UNL     1       5.366  26.828  54.939  1.00  0.00     0.066 C 
HETATM   10  H   UNL     1       4.157  25.105  52.293  1.00  0.00     0.161 HD
ENDROOT
BRANCH   6  11
HETATM   11  C   UNL     1       5.589  29.560  49.635  1.00  0.00     0.272 C 
HETATM   12  N   UNL     1       5.671  30.896  49.953  1.00  0.00    -0.353 N 
HETATM   13  H   UNL     1       5.499  31.128  50.928  1.00  0.00     0.162 HD
HETATM   14  O   UNL     1       5.612  29.133  48.485  1.00  0.00    -0.266 OA
BRANCH  12  15
HETATM   15  C   UNL     1       5.708  31.942  48.957  1.00  0.00     0.155 C 
BRANCH  15  16
HETATM   16  C   UNL     1       5.539  33.338  49.560  1.00  0.00     0.139 C 
HETATM   17  O   UNL     1       5.717  33.300  50.990  1.00  0.00    -0.384 OA
HETATM   18  C   UNL     1       6.262  34.561  51.405  1.00  0.00     0.168 C 
HETATM   19  C   UNL     1       6.567  35.364  50.155  1.00  0.00     0.029 C 
HETATM   20  C   UNL     1       6.587  34.319  49.068  1.00  0.00     0.035 C 
ENDBRANCH  15  16
ENDBRANCH  12  15
ENDBRANCH   6  11
BRANCH   8  21
HETATM   21  C   UNL     1       7.678  27.664  54.240  1.00  0.00     0.409 C 
HETATM   22  F   UNL     1       8.047  27.023  55.373  1.00  0.00    -0.169 F 
HETATM   23  F   UNL     1       8.082  26.873  53.210  1.00  0.00    -0.169 F 
HETATM   24  F   UNL     1       8.397  28.800  54.164  1.00  0.00    -0.169 F 
ENDBRANCH   8  21
BRANCH   1  25
HETATM   25  C   UNL     1       6.152  24.486  54.178  1.00  0.00    -0.034 A 
HETATM   26  C   UNL     1       6.638  23.971  52.963  1.00  0.00     0.011 A 
HETATM   27  C   UNL     1       7.660  23.016  52.942  1.00  0.00     0.026 A 
HETATM   28  C   UNL     1       8.219  22.555  54.136  1.00  0.00     0.055 A 
HETATM   29  C   UNL     1       7.753  23.054  55.354  1.00  0.00     0.056 A 
HETATM   30 CL   UNL     1       9.479  21.379  54.033  1.00  0.00    -0.083 Cl
HETATM   31  C   UNL     1       6.734  24.015  55.370  1.00  0.00     0.034 A 
HETATM   32 CL   UNL     1       8.392  22.533  56.873  1.00  0.00    -0.083 Cl
ENDBRANCH   1  25
TORSDOF 5
ENDMDL
MODEL 9
REMARK VINA RESULT:      -8.4      6.541      8.443
REMARK  5 active torsions:
REMARK  status: ('A' for Active; 'I' for Inactive)
REMARK    1  A    between atoms: C_2  and  C_3 
REMARK    2  A    between atoms: C_8  and  C_9 
REMARK       I    between atoms: C_9  and  N_10 
REMARK    3  A    between atoms: N_10  and  C_11 
REMARK    4  A    between atoms: C_11  and  C_12 
REMARK    5  A    between atoms: C_19  and  C_20 
ROOT
HETATM    1  C   UNL     1       4.771  28.109  48.320  1.00  0.00     0.118 C 
HETATM    2  N   UNL     1       5.111  26.876  49.018  1.00  0.00    -0.366 N 
HETATM    3  C   UNL     1       5.123  26.790  50.365  1.00  0.00     0.123 A 
HETATM    4  N   UNL     1       4.944  27.887  51.160  1.00  0.00    -0.240 N 
HETATM    5  N   UNL     1       5.045  27.630  52.475  1.00  0.00    -0.165 NA
HETATM    6  C   UNL     1       5.223  26.290  52.525  1.00  0.00     0.148 A 
HETATM    7  C   UNL     1       5.295  25.733  51.219  1.00  0.00     0.088 A 
HETATM    8  C   UNL     1       4.718  29.230  50.662  1.00  0.00     0.221 C 
HETATM    9  C   UNL     1       5.131  29.335  49.180  1.00  0.00     0.066 C 
HETATM   10  H   UNL     1       5.147  26.037  48.441  1.00  0.00     0.161 HD
ENDROOT
BRANCH   6  11
HETATM   11  C   UNL     1       5.318  25.557  53.798  1.00  0.00     0.272 C 
HETATM   12  N   UNL     1       4.945  26.308  54.889  1.00  0.00    -0.353 N 
HETATM   13  H   UNL     1       4.796  27.297  54.711  1.00  0.00     0.162 HD
HETATM   14  O   UNL     1       5.688  24.389  53.872  1.00  0.00    -0.266 OA
BRANCH  12  15
HETATM   15  C   UNL     1       5.032  25.821  56.247  1.00  0.00     0.155 C 
BRANCH  15  16
HETATM   16  C   UNL     1       6.208  26.428  57.016  1.00  0.00     0.139 C 
HETATM   17  O   UNL     1       7.212  25.428  57.283  1.00  0.00    -0.384 OA
HETATM   18  C   UNL     1       8.491  26.078  57.309  1.00  0.00     0.168 C 
HETATM   19  C   UNL     1       8.282  27.524  56.900  1.00  0.00     0.029 C 
HETATM   20  C   UNL     1       6.934  27.500  56.225  1.00  0.00     0.035 C 
ENDBRANCH  15  16
ENDBRANCH  12  15
ENDBRANCH   6  11
BRANCH   8  21
HETATM   21  C   UNL     1       3.292  29.658  50.928  1.00  0.00     0.409 C 
HETATM   22  F   UNL     1       2.429  28.618  50.892  1.00  0.00    -0.169 F 
HETATM   23  F   UNL     1       3.195  30.186  52.178  1.00  0.00    -0.169 F 
HETATM   24  F   UNL     1       2.837  30.593  50.073  1.00  0.00    -0.169 F 
ENDBRANCH   8  21
BRANCH   1  25
HETATM   25  C   UNL     1       3.355  28.098  47.766  1.00  0.00    -0.034 A 
HETATM   26  C   UNL     1       2.564  26.948  47.930  1.00  0.00     0.011 A 
HETATM   27  C   UNL     1       1.249  26.903  47.456  1.00  0.00     0.026 A 
HETATM   28  C   UNL     1       0.695  28.009  46.806  1.00  0.00     0.055 A 
HETATM   29  C   UNL     1       1.463  29.163  46.634  1.00  0.00     0.056 A 
HETATM   30 CL   UNL     1      -0.935  27.884  46.252  1.00  0.00    -0.083 Cl
HETATM   31  C   UNL     1       2.777  29.205  47.117  1.00  0.00     0.034 A 
HETATM   32 CL   UNL     1       0.851  30.571  45.841  1.00  0.00    -0.083 Cl
ENDBRANCH   1  25
TORSDOF 5
ENDMDL
MODEL 10
REMARK VINA RESULT:      -8.3      5.524      8.069
REMARK  5 active torsions:
REMARK  status: ('A' for Active; 'I' for Inactive)
REMARK    1  A    between atoms: C_2  and  C_3 
REMARK    2  A    between atoms: C_8  and  C_9 
REMARK       I    between atoms: C_9  and  N_10 
REMARK    3  A    between atoms: N_10  and  C_11 
REMARK    4  A    between atoms: C_11  and  C_12 
REMARK    5  A    between atoms: C_19  and  C_20 
ROOT
HETATM    1  C   UNL     1       5.615  28.509  50.220  1.00  0.00     0.118 C 
HETATM    2  N   UNL     1       6.290  27.348  50.784  1.00  0.00    -0.366 N 
HETATM    3  C   UNL     1       6.214  27.037  52.096  1.00  0.00     0.123 A 
HETATM    4  N   UNL     1       5.607  27.864  53.000  1.00  0.00    -0.240 N 
HETATM    5  N   UNL     1       5.674  27.428  54.269  1.00  0.00    -0.165 NA
HETATM    6  C   UNL     1       6.290  26.227  54.161  1.00  0.00     0.148 A 
HETATM    7  C   UNL     1       6.659  25.959  52.815  1.00  0.00     0.088 A 
HETATM    8  C   UNL     1       4.985  29.128  52.662  1.00  0.00     0.221 C 
HETATM    9  C   UNL     1       5.464  29.617  51.280  1.00  0.00     0.066 C 
HETATM   10  H   UNL     1       6.657  26.678  50.110  1.00  0.00     0.161 HD
ENDROOT
BRANCH   6  11
HETATM   11  C   UNL     1       6.517  25.353  55.324  1.00  0.00     0.272 C 
HETATM   12  N   UNL     1       7.689  24.637  55.246  1.00  0.00    -0.353 N 
HETATM   13  H   UNL     1       8.173  24.681  54.354  1.00  0.00     0.162 HD
HETATM   14  O   UNL     1       5.737  25.279  56.269  1.00  0.00    -0.266 OA
BRANCH  12  15
HETATM   15  C   UNL     1       8.081  23.658  56.235  1.00  0.00     0.155 C 
BRANCH  15  16
HETATM   16  C   UNL     1       7.698  22.232  55.836  1.00  0.00     0.139 C 
HETATM   17  O   UNL     1       8.177  21.927  54.511  1.00  0.00    -0.384 OA
HETATM   18  C   UNL     1       8.462  20.522  54.454  1.00  0.00     0.168 C 
HETATM   19  C   UNL     1       8.285  19.958  55.851  1.00  0.00     0.029 C 
HETATM   20  C   UNL     1       8.338  21.183  56.728  1.00  0.00     0.035 C 
ENDBRANCH  15  16
ENDBRANCH  12  15
ENDBRANCH   6  11
BRANCH   8  21
HETATM   21  C   UNL     1       3.481  29.026  52.782  1.00  0.00     0.409 C 
HETATM   22  F   UNL     1       3.049  29.278  54.039  1.00  0.00    -0.169 F 
HETATM   23  F   UNL     1       2.891  29.958  51.986  1.00  0.00    -0.169 F 
HETATM   24  F   UNL     1       2.986  27.829  52.414  1.00  0.00    -0.169 F 
ENDBRANCH   8  21
BRANCH   1  25
HETATM   25  C   UNL     1       4.340  28.143  49.478  1.00  0.00    -0.034 A 
HETATM   26  C   UNL     1       3.394  29.147  49.204  1.00  0.00     0.011 A 
HETATM   27  C   UNL     1       2.218  28.858  48.504  1.00  0.00     0.026 A 
HETATM   28  C   UNL     1       1.962  27.558  48.061  1.00  0.00     0.055 A 
HETATM   29  C   UNL     1       2.889  26.546  48.319  1.00  0.00     0.056 A 
HETATM   30 CL   UNL     1       0.493  27.276  47.199  1.00  0.00    -0.083 Cl
HETATM   31  C   UNL     1       4.069  26.842  49.015  1.00  0.00     0.034 A 
HETATM   32 CL   UNL     1       2.645  24.914  47.806  1.00  0.00    -0.083 Cl
ENDBRANCH   1  25
TORSDOF 5
ENDMDL
