MODEL 1
REMARK VINA RESULT:     -10.6      0.000      0.000
REMARK  2 active torsions:
REMARK  status: ('A' for Active; 'I' for Inactive)
REMARK    1  A    between atoms: C_4  and  C_5 
REMARK       I    between atoms: N_12  and  C_13 
REMARK    2  A    between atoms: C_13  and  C_14 
ROOT
HETATM    1  C   UNL     1       5.998  24.742  53.580  1.00  0.00     0.097 A 
HETATM    2  N   UNL     1       4.833  24.447  52.971  1.00  0.00    -0.173 NA
HETATM    3  N   UNL     1       4.182  25.617  52.872  1.00  0.00    -0.281 N 
HETATM    4  H   UNL     1       3.255  25.618  52.457  1.00  0.00     0.189 HD
HETATM    5  C   UNL     1       4.879  26.651  53.399  1.00  0.00     0.039 A 
HETATM    6  C   UNL     1       6.075  26.139  53.850  1.00  0.00     0.015 A 
HETATM    7  C   UNL     1       7.111  26.971  54.519  1.00  0.00     0.168 C 
HETATM    8  N   UNL     1       6.509  28.248  54.965  1.00  0.00    -0.347 N 
HETATM    9  C   UNL     1       7.009  29.016  56.017  1.00  0.00     0.226 C 
HETATM   10  O   UNL     1       6.711  30.207  56.125  1.00  0.00    -0.273 OA
HETATM   11  C   UNL     1       5.622  28.922  53.987  1.00  0.00     0.132 C 
HETATM   12  C   UNL     1       4.422  28.049  53.561  1.00  0.00     0.079 C 
ENDROOT
BRANCH   9  13
HETATM   13  C   UNL     1       7.968  28.351  57.010  1.00  0.00     0.106 C 
HETATM   14  C   UNL     1       9.429  28.641  56.663  1.00  0.00     0.190 C 
HETATM   15  O   UNL     1       9.851  29.985  56.907  1.00  0.00    -0.350 OA
HETATM   16  C   UNL     1       9.466  30.509  58.106  1.00  0.00     0.075 A 
HETATM   17  C   UNL     1       8.450  29.970  58.893  1.00  0.00    -0.024 A 
HETATM   18  C   UNL     1      10.130  31.666  58.512  1.00  0.00     0.037 A 
HETATM   19  C   UNL     1       7.698  28.747  58.462  1.00  0.00     0.057 C 
HETATM   20  C   UNL     1       8.139  30.576  60.120  1.00  0.00     0.010 A 
HETATM   21  C   UNL     1       8.816  31.724  60.534  1.00  0.00     0.001 A 
HETATM   22  C   UNL     1       9.808  32.273  59.726  1.00  0.00     0.003 A 
ENDBRANCH   9  13
BRANCH   1  23
HETATM   23  C   UNL     1       6.951  23.683  53.922  1.00  0.00    -0.005 A 
HETATM   24  C   UNL     1       7.246  23.360  55.252  1.00  0.00     0.014 A 
HETATM   25  C   UNL     1       8.129  22.317  55.550  1.00  0.00     0.001 A 
HETATM   26  C   UNL     1       8.732  21.594  54.523  1.00  0.00     0.000 A 
HETATM   27  C   UNL     1       8.461  21.917  53.196  1.00  0.00     0.001 A 
HETATM   28  C   UNL     1       7.577  22.956  52.898  1.00  0.00     0.014 A 
ENDBRANCH   1  23
TORSDOF 2
ENDMDL
MODEL 2
REMARK VINA RESULT:      -9.5      2.772      8.020
REMARK  2 active torsions:
REMARK  status: ('A' for Active; 'I' for Inactive)
REMARK    1  A    between atoms: C_4  and  C_5 
REMARK       I    between atoms: N_12  and  C_13 
REMARK    2  A    between atoms: C_13  and  C_14 
ROOT
HETATM    1  C   UNL     1       5.968  31.963  58.789  1.00  0.00     0.097 A 
HETATM    2  N   UNL     1       5.199  33.068  58.834  1.00  0.00    -0.173 NA
HETATM    3  N   UNL     1       4.170  32.815  58.009  1.00  0.00    -0.281 N 
HETATM    4  H   UNL     1       3.471  33.539  57.876  1.00  0.00     0.189 HD
HETATM    5  C   UNL     1       4.251  31.593  57.431  1.00  0.00     0.039 A 
HETATM    6  C   UNL     1       5.388  30.991  57.923  1.00  0.00     0.015 A 
HETATM    7  C   UNL     1       5.833  29.636  57.503  1.00  0.00     0.168 C 
HETATM    8  N   UNL     1       5.140  29.252  56.252  1.00  0.00    -0.347 N 
HETATM    9  C   UNL     1       5.646  28.330  55.336  1.00  0.00     0.226 C 
HETATM   10  O   UNL     1       4.905  27.784  54.516  1.00  0.00    -0.273 OA
HETATM   11  C   UNL     1       3.685  29.536  56.205  1.00  0.00     0.132 C 
HETATM   12  C   UNL     1       3.358  31.033  56.393  1.00  0.00     0.079 C 
ENDROOT
BRANCH   9  13
HETATM   13  C   UNL     1       7.137  27.985  55.401  1.00  0.00     0.106 C 
HETATM   14  C   UNL     1       7.423  26.920  56.461  1.00  0.00     0.190 C 
HETATM   15  O   UNL     1       6.968  25.606  56.134  1.00  0.00    -0.350 OA
HETATM   16  C   UNL     1       7.245  25.192  54.863  1.00  0.00     0.075 A 
HETATM   17  C   UNL     1       7.602  26.057  53.831  1.00  0.00    -0.024 A 
HETATM   18  C   UNL     1       7.120  23.824  54.623  1.00  0.00     0.037 A 
HETATM   19  C   UNL     1       7.709  27.535  54.057  1.00  0.00     0.057 C 
HETATM   20  C   UNL     1       7.882  25.529  52.561  1.00  0.00     0.010 A 
HETATM   21  C   UNL     1       7.774  24.158  52.325  1.00  0.00     0.001 A 
HETATM   22  C   UNL     1       7.387  23.305  53.356  1.00  0.00     0.003 A 
ENDBRANCH   9  13
BRANCH   1  23
HETATM   23  C   UNL     1       7.235  31.905  59.523  1.00  0.00    -0.005 A 
HETATM   24  C   UNL     1       8.446  31.625  58.878  1.00  0.00     0.014 A 
HETATM   25  C   UNL     1       9.646  31.616  59.596  1.00  0.00     0.001 A 
HETATM   26  C   UNL     1       9.646  31.876  60.966  1.00  0.00     0.000 A 
HETATM   27  C   UNL     1       8.446  32.137  61.622  1.00  0.00     0.001 A 
HETATM   28  C   UNL     1       7.248  32.150  60.904  1.00  0.00     0.014 A 
ENDBRANCH   1  23
TORSDOF 2
ENDMDL
MODEL 3
REMARK VINA RESULT:      -9.5      2.268      7.501
REMARK  2 active torsions:
REMARK  status: ('A' for Active; 'I' for Inactive)
REMARK    1  A    between atoms: C_4  and  C_5 
REMARK       I    between atoms: N_12  and  C_13 
REMARK    2  A    between atoms: C_13  and  C_14 
ROOT
HETATM    1  C   UNL     1       6.015  29.706  55.937  1.00  0.00     0.097 A 
HETATM    2  N   UNL     1       5.222  30.766  55.687  1.00  0.00    -0.173 NA
HETATM    3  N   UNL     1       4.313  30.325  54.802  1.00  0.00    -0.281 N 
HETATM    4  H   UNL     1       3.620  30.981  54.455  1.00  0.00     0.189 HD
HETATM    5  C   UNL     1       4.494  29.024  54.470  1.00  0.00     0.039 A 
HETATM    6  C   UNL     1       5.572  28.571  55.197  1.00  0.00     0.015 A 
HETATM    7  C   UNL     1       6.098  27.184  55.087  1.00  0.00     0.168 C 
HETATM    8  N   UNL     1       5.579  26.554  53.851  1.00  0.00    -0.347 N 
HETATM    9  C   UNL     1       6.218  25.508  53.186  1.00  0.00     0.226 C 
HETATM   10  O   UNL     1       5.601  24.793  52.394  1.00  0.00    -0.273 OA
HETATM   11  C   UNL     1       4.136  26.760  53.577  1.00  0.00     0.132 C 
HETATM   12  C   UNL     1       3.754  28.251  53.449  1.00  0.00     0.079 C 
ENDROOT
BRANCH   9  13
HETATM   13  C   UNL     1       7.697  25.248  53.494  1.00  0.00     0.106 C 
HETATM   14  C   UNL     1       7.939  25.088  54.996  1.00  0.00     0.190 C 
HETATM   15  O   UNL     1       7.440  23.875  55.562  1.00  0.00    -0.350 OA
HETATM   16  C   UNL     1       7.710  22.744  54.848  1.00  0.00     0.075 A 
HETATM   17  C   UNL     1       8.103  22.751  53.511  1.00  0.00    -0.024 A 
HETATM   18  C   UNL     1       7.539  21.536  55.524  1.00  0.00     0.037 A 
HETATM   19  C   UNL     1       8.260  24.035  52.753  1.00  0.00     0.057 C 
HETATM   20  C   UNL     1       8.371  21.532  52.870  1.00  0.00     0.010 A 
HETATM   21  C   UNL     1       8.217  20.325  53.551  1.00  0.00     0.001 A 
HETATM   22  C   UNL     1       7.794  20.327  54.878  1.00  0.00     0.003 A 
ENDBRANCH   9  13
BRANCH   1  23
HETATM   23  C   UNL     1       7.178  29.836  56.818  1.00  0.00    -0.005 A 
HETATM   24  C   UNL     1       8.442  29.363  56.442  1.00  0.00     0.014 A 
HETATM   25  C   UNL     1       9.544  29.536  57.286  1.00  0.00     0.001 A 
HETATM   26  C   UNL     1       9.392  30.173  58.516  1.00  0.00     0.000 A 
HETATM   27  C   UNL     1       8.137  30.632  58.909  1.00  0.00     0.001 A 
HETATM   28  C   UNL     1       7.038  30.463  58.065  1.00  0.00     0.014 A 
ENDBRANCH   1  23
TORSDOF 2
ENDMDL
MODEL 4
REMARK VINA RESULT:      -9.2      3.042      6.015
REMARK  2 active torsions:
REMARK  status: ('A' for Active; 'I' for Inactive)
REMARK    1  A    between atoms: C_4  and  C_5 
REMARK       I    between atoms: N_12  and  C_13 
REMARK    2  A    between atoms: C_13  and  C_14 
ROOT
HETATM    1  C   UNL     1       7.924  23.759  56.225  1.00  0.00     0.097 A 
HETATM    2  N   UNL     1       8.748  23.696  57.289  1.00  0.00    -0.173 NA
HETATM    3  N   UNL     1       8.540  24.838  57.963  1.00  0.00    -0.281 N 
HETATM    4  H   UNL     1       9.086  25.009  58.802  1.00  0.00     0.189 HD
HETATM    5  C   UNL     1       7.619  25.636  57.371  1.00  0.00     0.039 A 
HETATM    6  C   UNL     1       7.172  24.969  56.252  1.00  0.00     0.015 A 
HETATM    7  C   UNL     1       6.163  25.538  55.319  1.00  0.00     0.168 C 
HETATM    8  N   UNL     1       6.048  26.998  55.544  1.00  0.00    -0.347 N 
HETATM    9  C   UNL     1       5.609  27.900  54.575  1.00  0.00     0.226 C 
HETATM   10  O   UNL     1       5.198  29.017  54.894  1.00  0.00    -0.273 OA
HETATM   11  C   UNL     1       5.988  27.432  56.960  1.00  0.00     0.132 C 
HETATM   12  C   UNL     1       7.229  27.005  57.774  1.00  0.00     0.079 C 
ENDROOT
BRANCH   9  13
HETATM   13  C   UNL     1       5.616  27.452  53.109  1.00  0.00     0.106 C 
HETATM   14  C   UNL     1       4.236  26.967  52.662  1.00  0.00     0.190 C 
HETATM   15  O   UNL     1       3.255  27.995  52.512  1.00  0.00    -0.350 OA
HETATM   16  C   UNL     1       3.676  29.111  51.850  1.00  0.00     0.075 A 
HETATM   17  C   UNL     1       5.017  29.426  51.646  1.00  0.00    -0.024 A 
HETATM   18  C   UNL     1       2.675  29.971  51.399  1.00  0.00     0.037 A 
HETATM   19  C   UNL     1       6.112  28.536  52.153  1.00  0.00     0.057 C 
HETATM   20  C   UNL     1       5.347  30.593  50.938  1.00  0.00     0.010 A 
HETATM   21  C   UNL     1       4.345  31.444  50.471  1.00  0.00     0.001 A 
HETATM   22  C   UNL     1       3.008  31.135  50.707  1.00  0.00     0.003 A 
ENDBRANCH   9  13
BRANCH   1  23
HETATM   23  C   UNL     1       7.929  22.699  55.213  1.00  0.00    -0.005 A 
HETATM   24  C   UNL     1       7.937  22.990  53.843  1.00  0.00     0.014 A 
HETATM   25  C   UNL     1       7.983  21.959  52.899  1.00  0.00     0.001 A 
HETATM   26  C   UNL     1       8.012  20.629  53.314  1.00  0.00     0.000 A 
HETATM   27  C   UNL     1       7.986  20.326  54.673  1.00  0.00     0.001 A 
HETATM   28  C   UNL     1       7.943  21.355  55.616  1.00  0.00     0.014 A 
ENDBRANCH   1  23
TORSDOF 2
ENDMDL
MODEL 5
REMARK VINA RESULT:      -9.1      1.949      3.940
REMARK  2 active torsions:
REMARK  status: ('A' for Active; 'I' for Inactive)
REMARK    1  A    between atoms: C_4  and  C_5 
REMARK       I    between atoms: N_12  and  C_13 
REMARK    2  A    between atoms: C_13  and  C_14 
ROOT
HETATM    1  C   UNL     1       6.064  25.491  52.995  1.00  0.00     0.097 A 
HETATM    2  N   UNL     1       6.303  24.204  52.677  1.00  0.00    -0.173 NA
HETATM    3  N   UNL     1       6.691  23.624  53.823  1.00  0.00    -0.281 N 
HETATM    4  H   UNL     1       6.947  22.641  53.804  1.00  0.00     0.189 HD
HETATM    5  C   UNL     1       6.717  24.488  54.866  1.00  0.00     0.039 A 
HETATM    6  C   UNL     1       6.296  25.708  54.385  1.00  0.00     0.015 A 
HETATM    7  C   UNL     1       6.211  26.927  55.232  1.00  0.00     0.168 C 
HETATM    8  N   UNL     1       6.998  26.726  56.471  1.00  0.00    -0.347 N 
HETATM    9  C   UNL     1       7.543  27.767  57.222  1.00  0.00     0.226 C 
HETATM   10  O   UNL     1       7.872  27.591  58.397  1.00  0.00    -0.273 OA
HETATM   11  C   UNL     1       6.823  25.415  57.142  1.00  0.00     0.132 C 
HETATM   12  C   UNL     1       7.199  24.221  56.239  1.00  0.00     0.079 C 
ENDROOT
BRANCH   9  13
HETATM   13  C   UNL     1       7.684  29.142  56.561  1.00  0.00     0.106 C 
HETATM   14  C   UNL     1       6.443  30.006  56.787  1.00  0.00     0.190 C 
HETATM   15  O   UNL     1       6.277  30.486  58.123  1.00  0.00    -0.350 OA
HETATM   16  C   UNL     1       7.402  30.993  58.705  1.00  0.00     0.075 A 
HETATM   17  C   UNL     1       8.690  30.754  58.231  1.00  0.00    -0.024 A 
HETATM   18  C   UNL     1       7.206  31.761  59.853  1.00  0.00     0.037 A 
HETATM   19  C   UNL     1       8.928  29.903  57.020  1.00  0.00     0.057 C 
HETATM   20  C   UNL     1       9.782  31.336  58.894  1.00  0.00     0.010 A 
HETATM   21  C   UNL     1       9.585  32.118  60.031  1.00  0.00     0.001 A 
HETATM   22  C   UNL     1       8.295  32.326  60.515  1.00  0.00     0.003 A 
ENDBRANCH   9  13
BRANCH   1  23
HETATM   23  C   UNL     1       5.683  26.457  51.962  1.00  0.00    -0.005 A 
HETATM   24  C   UNL     1       5.857  27.835  52.143  1.00  0.00     0.014 A 
HETATM   25  C   UNL     1       5.522  28.733  51.124  1.00  0.00     0.001 A 
HETATM   26  C   UNL     1       5.001  28.263  49.920  1.00  0.00     0.000 A 
HETATM   27  C   UNL     1       4.806  26.897  49.734  1.00  0.00     0.001 A 
HETATM   28  C   UNL     1       5.143  26.001  50.750  1.00  0.00     0.014 A 
ENDBRANCH   1  23
TORSDOF 2
ENDMDL
MODEL 6
REMARK VINA RESULT:      -9.0      4.047      7.488
REMARK  2 active torsions:
REMARK  status: ('A' for Active; 'I' for Inactive)
REMARK    1  A    between atoms: C_4  and  C_5 
REMARK       I    between atoms: N_12  and  C_13 
REMARK    2  A    between atoms: C_13  and  C_14 
ROOT
HETATM    1  C   UNL     1       6.403  25.317  55.172  1.00  0.00     0.097 A 
HETATM    2  N   UNL     1       6.659  25.595  56.465  1.00  0.00    -0.173 NA
HETATM    3  N   UNL     1       6.004  26.739  56.716  1.00  0.00    -0.281 N 
HETATM    4  H   UNL     1       6.083  27.146  57.643  1.00  0.00     0.189 HD
HETATM    5  C   UNL     1       5.341  27.211  55.633  1.00  0.00     0.039 A 
HETATM    6  C   UNL     1       5.550  26.311  54.613  1.00  0.00     0.015 A 
HETATM    7  C   UNL     1       4.996  26.496  53.244  1.00  0.00     0.168 C 
HETATM    8  N   UNL     1       4.577  27.906  53.065  1.00  0.00    -0.347 N 
HETATM    9  C   UNL     1       4.493  28.539  51.825  1.00  0.00     0.226 C 
HETATM   10  O   UNL     1       3.822  29.563  51.685  1.00  0.00    -0.273 OA
HETATM   11  C   UNL     1       3.823  28.505  54.193  1.00  0.00     0.132 C 
HETATM   12  C   UNL     1       4.614  28.494  55.519  1.00  0.00     0.079 C 
ENDROOT
BRANCH   9  13
HETATM   13  C   UNL     1       5.224  27.907  50.636  1.00  0.00     0.106 C 
HETATM   14  C   UNL     1       4.365  26.848  49.944  1.00  0.00     0.190 C 
HETATM   15  O   UNL     1       3.259  27.361  49.199  1.00  0.00    -0.350 OA
HETATM   16  C   UNL     1       3.539  28.434  48.404  1.00  0.00     0.075 A 
HETATM   17  C   UNL     1       4.679  29.222  48.545  1.00  0.00    -0.024 A 
HETATM   18  C   UNL     1       2.589  28.740  47.430  1.00  0.00     0.037 A 
HETATM   19  C   UNL     1       5.697  28.934  49.608  1.00  0.00     0.057 C 
HETATM   20  C   UNL     1       4.883  30.297  47.666  1.00  0.00     0.010 A 
HETATM   21  C   UNL     1       3.941  30.592  46.680  1.00  0.00     0.001 A 
HETATM   22  C   UNL     1       2.790  29.817  46.566  1.00  0.00     0.003 A 
ENDBRANCH   9  13
BRANCH   1  23
HETATM   23  C   UNL     1       7.020  24.158  54.521  1.00  0.00    -0.005 A 
HETATM   24  C   UNL     1       7.404  24.189  53.175  1.00  0.00     0.014 A 
HETATM   25  C   UNL     1       8.028  23.083  52.589  1.00  0.00     0.001 A 
HETATM   26  C   UNL     1       8.264  21.933  53.340  1.00  0.00     0.000 A 
HETATM   27  C   UNL     1       7.871  21.883  54.674  1.00  0.00     0.001 A 
HETATM   28  C   UNL     1       7.251  22.988  55.260  1.00  0.00     0.014 A 
ENDBRANCH   1  23
TORSDOF 2
ENDMDL
MODEL 7
REMARK VINA RESULT:      -8.8      3.022      7.686
REMARK  2 active torsions:
REMARK  status: ('A' for Active; 'I' for Inactive)
REMARK    1  A    between atoms: C_4  and  C_5 
REMARK       I    between atoms: N_12  and  C_13 
REMARK    2  A    between atoms: C_13  and  C_14 
ROOT
HETATM    1  C   UNL     1       7.995  26.892  57.087  1.00  0.00     0.097 A 
HETATM    2  N   UNL     1       8.106  25.883  57.973  1.00  0.00    -0.173 NA
HETATM    3  N   UNL     1       7.611  24.806  57.344  1.00  0.00    -0.281 N 
HETATM    4  H   UNL     1       7.578  23.925  57.849  1.00  0.00     0.189 HD
HETATM    5  C   UNL     1       7.180  25.083  56.090  1.00  0.00     0.039 A 
HETATM    6  C   UNL     1       7.429  26.419  55.868  1.00  0.00     0.015 A 
HETATM    7  C   UNL     1       7.070  27.109  54.600  1.00  0.00     0.168 C 
HETATM    8  N   UNL     1       6.095  26.288  53.846  1.00  0.00    -0.347 N 
HETATM    9  C   UNL     1       5.194  26.809  52.918  1.00  0.00     0.226 C 
HETATM   10  O   UNL     1       4.663  26.081  52.077  1.00  0.00    -0.273 OA
HETATM   11  C   UNL     1       6.392  24.837  53.772  1.00  0.00     0.132 C 
HETATM   12  C   UNL     1       6.480  24.168  55.161  1.00  0.00     0.079 C 
ENDROOT
BRANCH   9  13
HETATM   13  C   UNL     1       4.912  28.315  52.946  1.00  0.00     0.106 C 
HETATM   14  C   UNL     1       5.818  29.076  51.977  1.00  0.00     0.190 C 
HETATM   15  O   UNL     1       5.518  28.882  50.593  1.00  0.00    -0.350 OA
HETATM   16  C   UNL     1       4.195  28.955  50.267  1.00  0.00     0.075 A 
HETATM   17  C   UNL     1       3.164  28.855  51.199  1.00  0.00    -0.024 A 
HETATM   18  C   UNL     1       3.904  29.105  48.911  1.00  0.00     0.037 A 
HETATM   19  C   UNL     1       3.451  28.658  52.658  1.00  0.00     0.057 C 
HETATM   20  C   UNL     1       1.834  28.957  50.764  1.00  0.00     0.010 A 
HETATM   21  C   UNL     1       1.544  29.126  49.410  1.00  0.00     0.001 A 
HETATM   22  C   UNL     1       2.580  29.193  48.482  1.00  0.00     0.003 A 
ENDBRANCH   9  13
BRANCH   1  23
HETATM   23  C   UNL     1       8.378  28.257  57.457  1.00  0.00    -0.005 A 
HETATM   24  C   UNL     1       7.546  29.068  58.238  1.00  0.00     0.014 A 
HETATM   25  C   UNL     1       7.955  30.353  58.611  1.00  0.00     0.001 A 
HETATM   26  C   UNL     1       9.193  30.842  58.199  1.00  0.00     0.000 A 
HETATM   27  C   UNL     1      10.022  30.051  57.407  1.00  0.00     0.001 A 
HETATM   28  C   UNL     1       9.616  28.768  57.037  1.00  0.00     0.014 A 
ENDBRANCH   1  23
TORSDOF 2
ENDMDL
MODEL 8
REMARK VINA RESULT:      -8.3      1.343      1.904
REMARK  2 active torsions:
REMARK  status: ('A' for Active; 'I' for Inactive)
REMARK    1  A    between atoms: C_4  and  C_5 
REMARK       I    between atoms: N_12  and  C_13 
REMARK    2  A    between atoms: C_13  and  C_14 
ROOT
HETATM    1  C   UNL     1       7.065  23.801  54.033  1.00  0.00     0.097 A 
HETATM    2  N   UNL     1       6.543  23.278  52.906  1.00  0.00    -0.173 NA
HETATM    3  N   UNL     1       6.142  24.334  52.182  1.00  0.00    -0.281 N 
HETATM    4  H   UNL     1       5.690  24.162  51.288  1.00  0.00     0.189 HD
HETATM    5  C   UNL     1       6.380  25.515  52.800  1.00  0.00     0.039 A 
HETATM    6  C   UNL     1       6.999  25.224  53.995  1.00  0.00     0.015 A 
HETATM    7  C   UNL     1       7.401  26.268  54.975  1.00  0.00     0.168 C 
HETATM    8  N   UNL     1       6.696  27.534  54.668  1.00  0.00    -0.347 N 
HETATM    9  C   UNL     1       6.439  28.528  55.612  1.00  0.00     0.226 C 
HETATM   10  O   UNL     1       6.179  29.680  55.259  1.00  0.00    -0.273 OA
HETATM   11  C   UNL     1       6.655  27.921  53.237  1.00  0.00     0.132 C 
HETATM   12  C   UNL     1       5.970  26.862  52.346  1.00  0.00     0.079 C 
ENDROOT
BRANCH   9  13
HETATM   13  C   UNL     1       6.526  28.160  57.097  1.00  0.00     0.106 C 
HETATM   14  C   UNL     1       7.868  27.513  57.439  1.00  0.00     0.190 C 
HETATM   15  O   UNL     1       8.986  28.402  57.428  1.00  0.00    -0.350 OA
HETATM   16  C   UNL     1       8.787  29.598  58.055  1.00  0.00     0.075 A 
HETATM   17  C   UNL     1       7.527  30.104  58.367  1.00  0.00    -0.024 A 
HETATM   18  C   UNL     1       9.934  30.334  58.352  1.00  0.00     0.037 A 
HETATM   19  C   UNL     1       6.278  29.348  58.026  1.00  0.00     0.057 C 
HETATM   20  C   UNL     1       7.430  31.339  59.027  1.00  0.00     0.010 A 
HETATM   21  C   UNL     1       8.578  32.067  59.340  1.00  0.00     0.001 A 
HETATM   22  C   UNL     1       9.831  31.566  58.997  1.00  0.00     0.003 A 
ENDBRANCH   9  13
BRANCH   1  23
HETATM   23  C   UNL     1       7.548  22.929  55.107  1.00  0.00    -0.005 A 
HETATM   24  C   UNL     1       7.830  21.575  54.885  1.00  0.00     0.014 A 
HETATM   25  C   UNL     1       8.328  20.775  55.919  1.00  0.00     0.001 A 
HETATM   26  C   UNL     1       8.539  21.318  57.185  1.00  0.00     0.000 A 
HETATM   27  C   UNL     1       8.245  22.658  57.424  1.00  0.00     0.001 A 
HETATM   28  C   UNL     1       7.751  23.457  56.391  1.00  0.00     0.014 A 
ENDBRANCH   1  23
TORSDOF 2
ENDMDL
MODEL 9
REMARK VINA RESULT:      -8.3      2.440      3.043
REMARK  2 active torsions:
REMARK  status: ('A' for Active; 'I' for Inactive)
REMARK    1  A    between atoms: C_4  and  C_5 
REMARK       I    between atoms: N_12  and  C_13 
REMARK    2  A    between atoms: C_13  and  C_14 
ROOT
HETATM    1  C   UNL     1       5.857  25.578  52.389  1.00  0.00     0.097 A 
HETATM    2  N   UNL     1       5.224  25.192  51.264  1.00  0.00    -0.173 NA
HETATM    3  N   UNL     1       4.582  26.287  50.828  1.00  0.00    -0.281 N 
HETATM    4  H   UNL     1       4.014  26.211  49.989  1.00  0.00     0.189 HD
HETATM    5  C   UNL     1       4.774  27.361  51.631  1.00  0.00     0.039 A 
HETATM    6  C   UNL     1       5.613  26.958  52.645  1.00  0.00     0.015 A 
HETATM    7  C   UNL     1       6.041  27.860  53.748  1.00  0.00     0.168 C 
HETATM    8  N   UNL     1       5.145  29.039  53.801  1.00  0.00    -0.347 N 
HETATM    9  C   UNL     1       4.929  29.798  54.950  1.00  0.00     0.226 C 
HETATM   10  O   UNL     1       4.476  30.942  54.874  1.00  0.00    -0.273 OA
HETATM   11  C   UNL     1       4.822  29.664  52.496  1.00  0.00     0.132 C 
HETATM   12  C   UNL     1       4.133  28.690  51.515  1.00  0.00     0.079 C 
ENDROOT
BRANCH   9  13
HETATM   13  C   UNL     1       5.304  29.188  56.305  1.00  0.00     0.106 C 
HETATM   14  C   UNL     1       6.653  29.708  56.803  1.00  0.00     0.190 C 
HETATM   15  O   UNL     1       6.652  31.070  57.234  1.00  0.00    -0.350 OA
HETATM   16  C   UNL     1       5.607  31.429  58.035  1.00  0.00     0.075 A 
HETATM   17  C   UNL     1       4.434  30.686  58.148  1.00  0.00    -0.024 A 
HETATM   18  C   UNL     1       5.751  32.627  58.733  1.00  0.00     0.037 A 
HETATM   19  C   UNL     1       4.241  29.413  57.380  1.00  0.00     0.057 C 
HETATM   20  C   UNL     1       3.421  31.133  59.011  1.00  0.00     0.010 A 
HETATM   21  C   UNL     1       3.573  32.322  59.724  1.00  0.00     0.001 A 
HETATM   22  C   UNL     1       4.737  33.073  59.580  1.00  0.00     0.003 A 
ENDBRANCH   9  13
BRANCH   1  23
HETATM   23  C   UNL     1       6.613  24.611  53.190  1.00  0.00    -0.005 A 
HETATM   24  C   UNL     1       7.584  23.780  52.617  1.00  0.00     0.014 A 
HETATM   25  C   UNL     1       8.319  22.895  53.411  1.00  0.00     0.001 A 
HETATM   26  C   UNL     1       8.084  22.825  54.783  1.00  0.00     0.000 A 
HETATM   27  C   UNL     1       7.109  23.633  55.363  1.00  0.00     0.001 A 
HETATM   28  C   UNL     1       6.378  24.519  54.570  1.00  0.00     0.014 A 
ENDBRANCH   1  23
TORSDOF 2
ENDMDL
MODEL 10
REMARK VINA RESULT:      -7.6      2.979      5.977
REMARK  2 active torsions:
REMARK  status: ('A' for Active; 'I' for Inactive)
REMARK    1  A    between atoms: C_4  and  C_5 
REMARK       I    between atoms: N_12  and  C_13 
REMARK    2  A    between atoms: C_13  and  C_14 
ROOT
HETATM    1  C   UNL     1       3.899  29.463  54.141  1.00  0.00     0.097 A 
HETATM    2  N   UNL     1       3.642  28.459  53.280  1.00  0.00    -0.173 NA
HETATM    3  N   UNL     1       4.215  27.374  53.825  1.00  0.00    -0.281 N 
HETATM    4  H   UNL     1       4.160  26.495  53.318  1.00  0.00     0.189 HD
HETATM    5  C   UNL     1       4.834  27.642  54.999  1.00  0.00     0.039 A 
HETATM    6  C   UNL     1       4.637  28.979  55.259  1.00  0.00     0.015 A 
HETATM    7  C   UNL     1       5.192  29.660  56.460  1.00  0.00     0.168 C 
HETATM    8  N   UNL     1       6.260  28.825  57.055  1.00  0.00    -0.347 N 
HETATM    9  C   UNL     1       7.297  29.332  57.838  1.00  0.00     0.226 C 
HETATM   10  O   UNL     1       7.940  28.595  58.587  1.00  0.00    -0.273 OA
HETATM   11  C   UNL     1       5.960  27.377  57.170  1.00  0.00     0.132 C 
HETATM   12  C   UNL     1       5.655  26.715  55.809  1.00  0.00     0.079 C 
ENDROOT
BRANCH   9  13
HETATM   13  C   UNL     1       7.589  30.835  57.770  1.00  0.00     0.106 C 
HETATM   14  C   UNL     1       6.371  31.665  58.180  1.00  0.00     0.190 C 
HETATM   15  O   UNL     1       6.056  31.624  59.573  1.00  0.00    -0.350 OA
HETATM   16  C   UNL     1       7.118  31.770  60.417  1.00  0.00     0.075 A 
HETATM   17  C   UNL     1       8.444  31.606  60.023  1.00  0.00    -0.024 A 
HETATM   18  C   UNL     1       6.811  32.069  61.744  1.00  0.00     0.037 A 
HETATM   19  C   UNL     1       8.797  31.250  58.610  1.00  0.00     0.057 C 
HETATM   20  C   UNL     1       9.467  31.793  60.965  1.00  0.00     0.010 A 
HETATM   21  C   UNL     1       9.160  32.109  62.289  1.00  0.00     0.001 A 
HETATM   22  C   UNL     1       7.830  32.242  62.680  1.00  0.00     0.003 A 
ENDBRANCH   9  13
BRANCH   1  23
HETATM   23  C   UNL     1       3.480  30.834  53.836  1.00  0.00    -0.005 A 
HETATM   24  C   UNL     1       3.842  31.464  52.639  1.00  0.00     0.014 A 
HETATM   25  C   UNL     1       3.395  32.759  52.355  1.00  0.00     0.001 A 
HETATM   26  C   UNL     1       2.591  33.438  53.269  1.00  0.00     0.000 A 
HETATM   27  C   UNL     1       2.239  32.829  54.470  1.00  0.00     0.001 A 
HETATM   28  C   UNL     1       2.682  31.536  54.752  1.00  0.00     0.014 A 
ENDBRANCH   1  23
TORSDOF 2
ENDMDL
