MODEL 1
REMARK VINA RESULT:      -9.6      0.000      0.000
REMARK  3 active torsions:
REMARK  status: ('A' for Active; 'I' for Inactive)
REMARK    1  A    between atoms: C_8  and  C_9 
REMARK    2  A    between atoms: C_14  and  C_15 
REMARK    3  A    between atoms: C_16  and  O_17 
ROOT
HETATM    1  C   UNL     1       5.049  26.792  50.611  1.00  0.00     0.143 A 
HETATM    2  N   UNL     1       4.389  27.296  51.634  1.00  0.00    -0.223 NA
HETATM    3  C   UNL     1       5.134  27.017  52.762  1.00  0.00     0.149 A 
HETATM    4  C   UNL     1       6.276  26.321  52.403  1.00  0.00     0.046 A 
HETATM    5  C   UNL     1       7.445  25.903  53.221  1.00  0.00     0.070 C 
HETATM    6  C   UNL     1       7.088  25.095  54.486  1.00  0.00     0.045 C 
HETATM    7  C   UNL     1       5.663  25.306  55.045  1.00  0.00     0.132 C 
HETATM    8  N   UNL     1       5.264  26.696  55.169  1.00  0.00    -0.355 N 
HETATM    9  C   UNL     1       4.768  27.444  54.116  1.00  0.00     0.272 C 
HETATM   10  O   UNL     1       4.055  28.417  54.357  1.00  0.00    -0.266 OA
HETATM   11  N   UNL     1       6.191  26.168  51.043  1.00  0.00    -0.341 N 
HETATM   12  H   UNL     1       6.876  25.727  50.449  1.00  0.00     0.167 HD
HETATM   13  H   UNL     1       4.883  27.007  56.054  1.00  0.00     0.162 HD
ENDROOT
BRANCH   1  14
HETATM   14  C   UNL     1       4.603  26.917  49.197  1.00  0.00     0.059 A 
HETATM   15  C   UNL     1       4.766  27.991  48.342  1.00  0.00     0.040 A 
HETATM   16  C   UNL     1       5.395  29.324  48.476  1.00  0.00     0.071 C 
HETATM   17  N   UNL     1       4.172  27.606  47.169  1.00  0.00    -0.281 N 
HETATM   18  H   UNL     1       4.089  28.133  46.307  1.00  0.00     0.189 HD
HETATM   19  N   UNL     1       3.644  26.376  47.198  1.00  0.00    -0.179 NA
HETATM   20  C   UNL     1       3.898  25.943  48.442  1.00  0.00     0.067 A 
HETATM   21  C   UNL     1       3.442  24.595  48.869  1.00  0.00     0.073 C 
ENDBRANCH   1  14
BRANCH   6  22
HETATM   22  C   UNL     1       7.413  23.613  54.284  1.00  0.00    -0.019 A 
HETATM   23  C   UNL     1       7.622  22.761  55.391  1.00  0.00     0.074 A 
HETATM   24  C   UNL     1       7.912  21.407  55.183  1.00  0.00     0.037 A 
HETATM   25  C   UNL     1       8.014  20.895  53.889  1.00  0.00     0.003 A 
HETATM   26  C   UNL     1       7.842  21.733  52.793  1.00  0.00     0.001 A 
HETATM   27  C   UNL     1       7.553  23.083  52.987  1.00  0.00     0.010 A 
BRANCH  23  28
HETATM   28  O   UNL     1       7.531  23.345  56.628  1.00  0.00    -0.355 OA
HETATM   29  C   UNL     1       8.718  23.881  57.199  1.00  0.00     0.210 C 
ENDBRANCH  23  28
ENDBRANCH   6  22
TORSDOF 3
ENDMDL
MODEL 2
REMARK VINA RESULT:      -9.2      4.365      7.431
REMARK  3 active torsions:
REMARK  status: ('A' for Active; 'I' for Inactive)
REMARK    1  A    between atoms: C_8  and  C_9 
REMARK    2  A    between atoms: C_14  and  C_15 
REMARK    3  A    between atoms: C_16  and  O_17 
ROOT
HETATM    1  C   UNL     1       7.572  29.693  57.545  1.00  0.00     0.143 A 
HETATM    2  N   UNL     1       6.508  30.142  56.911  1.00  0.00    -0.223 NA
HETATM    3  C   UNL     1       5.736  29.040  56.600  1.00  0.00     0.149 A 
HETATM    4  C   UNL     1       6.362  27.894  57.060  1.00  0.00     0.046 A 
HETATM    5  C   UNL     1       5.889  26.484  57.084  1.00  0.00     0.070 C 
HETATM    6  C   UNL     1       5.417  25.941  55.719  1.00  0.00     0.045 C 
HETATM    7  C   UNL     1       4.953  26.999  54.692  1.00  0.00     0.132 C 
HETATM    8  N   UNL     1       4.032  27.988  55.221  1.00  0.00    -0.355 N 
HETATM    9  C   UNL     1       4.438  29.109  55.924  1.00  0.00     0.272 C 
HETATM   10  O   UNL     1       3.704  30.095  55.952  1.00  0.00    -0.266 OA
HETATM   11  N   UNL     1       7.531  28.325  57.632  1.00  0.00    -0.341 N 
HETATM   12  H   UNL     1       8.217  27.749  58.092  1.00  0.00     0.167 HD
HETATM   13  H   UNL     1       3.174  28.162  54.713  1.00  0.00     0.162 HD
ENDROOT
BRANCH   1  14
HETATM   14  C   UNL     1       8.640  30.572  58.094  1.00  0.00     0.059 A 
HETATM   15  C   UNL     1       9.993  30.546  57.814  1.00  0.00     0.040 A 
HETATM   16  C   UNL     1      10.845  29.716  56.934  1.00  0.00     0.071 C 
HETATM   17  N   UNL     1      10.533  31.545  58.582  1.00  0.00    -0.281 N 
HETATM   18  H   UNL     1      11.505  31.828  58.647  1.00  0.00     0.189 HD
HETATM   19  N   UNL     1       9.641  32.209  59.328  1.00  0.00    -0.179 NA
HETATM   20  C   UNL     1       8.473  31.616  59.041  1.00  0.00     0.067 A 
HETATM   21  C   UNL     1       7.224  32.075  59.701  1.00  0.00     0.073 C 
ENDBRANCH   1  14
BRANCH   6  22
HETATM   22  C   UNL     1       6.461  24.988  55.131  1.00  0.00    -0.019 A 
HETATM   23  C   UNL     1       6.249  24.363  53.883  1.00  0.00     0.074 A 
HETATM   24  C   UNL     1       7.221  23.501  53.362  1.00  0.00     0.037 A 
HETATM   25  C   UNL     1       8.391  23.238  54.075  1.00  0.00     0.003 A 
HETATM   26  C   UNL     1       8.595  23.823  55.320  1.00  0.00     0.001 A 
HETATM   27  C   UNL     1       7.634  24.684  55.849  1.00  0.00     0.010 A 
BRANCH  23  28
HETATM   28  O   UNL     1       5.064  24.652  53.257  1.00  0.00    -0.355 OA
HETATM   29  C   UNL     1       5.109  25.013  51.883  1.00  0.00     0.210 C 
ENDBRANCH  23  28
ENDBRANCH   6  22
TORSDOF 3
ENDMDL
MODEL 3
REMARK VINA RESULT:      -9.1      3.176      7.310
REMARK  3 active torsions:
REMARK  status: ('A' for Active; 'I' for Inactive)
REMARK    1  A    between atoms: C_8  and  C_9 
REMARK    2  A    between atoms: C_14  and  C_15 
REMARK    3  A    between atoms: C_16  and  O_17 
ROOT
HETATM    1  C   UNL     1       7.652  23.251  55.354  1.00  0.00     0.143 A 
HETATM    2  N   UNL     1       8.302  24.208  55.984  1.00  0.00    -0.223 NA
HETATM    3  C   UNL     1       7.557  25.360  55.833  1.00  0.00     0.149 A 
HETATM    4  C   UNL     1       6.426  25.084  55.084  1.00  0.00     0.046 A 
HETATM    5  C   UNL     1       5.260  25.945  54.751  1.00  0.00     0.070 C 
HETATM    6  C   UNL     1       5.623  27.298  54.105  1.00  0.00     0.045 C 
HETATM    7  C   UNL     1       7.043  27.830  54.399  1.00  0.00     0.132 C 
HETATM    8  N   UNL     1       7.424  27.788  55.799  1.00  0.00    -0.355 N 
HETATM    9  C   UNL     1       7.914  26.654  56.423  1.00  0.00     0.272 C 
HETATM   10  O   UNL     1       8.613  26.778  57.426  1.00  0.00    -0.266 OA
HETATM   11  N   UNL     1       6.516  23.753  54.771  1.00  0.00    -0.341 N 
HETATM   12  H   UNL     1       5.840  23.215  54.254  1.00  0.00     0.167 HD
HETATM   13  H   UNL     1       7.798  28.631  56.218  1.00  0.00     0.162 HD
ENDROOT
BRANCH   1  14
HETATM   14  C   UNL     1       8.101  21.833  55.315  1.00  0.00     0.059 A 
HETATM   15  C   UNL     1       8.446  21.018  56.377  1.00  0.00     0.040 A 
HETATM   16  C   UNL     1       8.499  21.208  57.844  1.00  0.00     0.071 C 
HETATM   17  N   UNL     1       8.793  19.821  55.807  1.00  0.00    -0.281 N 
HETATM   18  H   UNL     1       9.106  18.975  56.271  1.00  0.00     0.189 HD
HETATM   19  N   UNL     1       8.698  19.799  54.472  1.00  0.00    -0.179 NA
HETATM   20  C   UNL     1       8.278  21.032  54.156  1.00  0.00     0.067 A 
HETATM   21  C   UNL     1       8.066  21.405  52.734  1.00  0.00     0.073 C 
ENDBRANCH   1  14
BRANCH   6  22
HETATM   22  C   UNL     1       5.316  27.274  52.604  1.00  0.00    -0.019 A 
HETATM   23  C   UNL     1       4.886  28.441  51.935  1.00  0.00     0.074 A 
HETATM   24  C   UNL     1       4.618  28.397  50.562  1.00  0.00     0.037 A 
HETATM   25  C   UNL     1       4.756  27.204  49.851  1.00  0.00     0.003 A 
HETATM   26  C   UNL     1       5.148  26.043  50.507  1.00  0.00     0.001 A 
HETATM   27  C   UNL     1       5.418  26.074  51.875  1.00  0.00     0.010 A 
BRANCH  23  28
HETATM   28  O   UNL     1       4.750  29.564  52.709  1.00  0.00    -0.355 OA
HETATM   29  C   UNL     1       3.443  30.099  52.878  1.00  0.00     0.210 C 
ENDBRANCH  23  28
ENDBRANCH   6  22
TORSDOF 3
ENDMDL
MODEL 4
REMARK VINA RESULT:      -8.1      3.772      7.544
REMARK  3 active torsions:
REMARK  status: ('A' for Active; 'I' for Inactive)
REMARK    1  A    between atoms: C_8  and  C_9 
REMARK    2  A    between atoms: C_14  and  C_15 
REMARK    3  A    between atoms: C_16  and  O_17 
ROOT
HETATM    1  C   UNL     1       7.180  25.688  55.330  1.00  0.00     0.143 A 
HETATM    2  N   UNL     1       7.807  26.457  56.196  1.00  0.00    -0.223 NA
HETATM    3  C   UNL     1       6.927  27.463  56.543  1.00  0.00     0.149 A 
HETATM    4  C   UNL     1       5.736  27.291  55.859  1.00  0.00     0.046 A 
HETATM    5  C   UNL     1       4.447  28.024  55.973  1.00  0.00     0.070 C 
HETATM    6  C   UNL     1       4.563  29.555  55.825  1.00  0.00     0.045 C 
HETATM    7  C   UNL     1       5.945  30.165  56.152  1.00  0.00     0.132 C 
HETATM    8  N   UNL     1       6.527  29.703  57.399  1.00  0.00    -0.355 N 
HETATM    9  C   UNL     1       7.223  28.513  57.522  1.00  0.00     0.272 C 
HETATM   10  O   UNL     1       8.042  28.391  58.430  1.00  0.00    -0.266 OA
HETATM   11  N   UNL     1       5.924  26.179  55.080  1.00  0.00    -0.341 N 
HETATM   12  H   UNL     1       5.243  25.754  54.472  1.00  0.00     0.167 HD
HETATM   13  H   UNL     1       6.864  30.397  58.056  1.00  0.00     0.162 HD
ENDROOT
BRANCH   1  14
HETATM   14  C   UNL     1       7.770  24.456  54.740  1.00  0.00     0.059 A 
HETATM   15  C   UNL     1       7.947  24.150  53.403  1.00  0.00     0.040 A 
HETATM   16  C   UNL     1       7.652  24.861  52.139  1.00  0.00     0.071 C 
HETATM   17  N   UNL     1       8.516  22.904  53.396  1.00  0.00    -0.281 N 
HETATM   18  H   UNL     1       8.790  22.346  52.595  1.00  0.00     0.189 HD
HETATM   19  N   UNL     1       8.721  22.386  54.613  1.00  0.00    -0.179 NA
HETATM   20  C   UNL     1       8.262  23.328  55.449  1.00  0.00     0.067 A 
HETATM   21  C   UNL     1       8.305  23.107  56.917  1.00  0.00     0.073 C 
ENDBRANCH   1  14
BRANCH   6  22
HETATM   22  C   UNL     1       4.047  30.002  54.454  1.00  0.00    -0.019 A 
HETATM   23  C   UNL     1       3.445  31.268  54.285  1.00  0.00     0.074 A 
HETATM   24  C   UNL     1       2.987  31.658  53.021  1.00  0.00     0.037 A 
HETATM   25  C   UNL     1       3.104  30.797  51.929  1.00  0.00     0.003 A 
HETATM   26  C   UNL     1       3.665  29.536  52.092  1.00  0.00     0.001 A 
HETATM   27  C   UNL     1       4.125  29.136  53.346  1.00  0.00     0.010 A 
BRANCH  23  28
HETATM   28  O   UNL     1       3.344  32.043  55.411  1.00  0.00    -0.355 OA
HETATM   29  C   UNL     1       2.290  32.996  55.469  1.00  0.00     0.210 C 
ENDBRANCH  23  28
ENDBRANCH   6  22
TORSDOF 3
ENDMDL
MODEL 5
REMARK VINA RESULT:      -8.1      3.329      7.103
REMARK  3 active torsions:
REMARK  status: ('A' for Active; 'I' for Inactive)
REMARK    1  A    between atoms: C_8  and  C_9 
REMARK    2  A    between atoms: C_14  and  C_15 
REMARK    3  A    between atoms: C_16  and  O_17 
ROOT
HETATM    1  C   UNL     1       7.552  23.512  55.509  1.00  0.00     0.143 A 
HETATM    2  N   UNL     1       8.245  24.436  56.143  1.00  0.00    -0.223 NA
HETATM    3  C   UNL     1       7.505  25.599  56.081  1.00  0.00     0.149 A 
HETATM    4  C   UNL     1       6.332  25.364  55.384  1.00  0.00     0.046 A 
HETATM    5  C   UNL     1       5.158  26.247  55.151  1.00  0.00     0.070 C 
HETATM    6  C   UNL     1       5.500  27.623  54.543  1.00  0.00     0.045 C 
HETATM    7  C   UNL     1       6.939  28.132  54.782  1.00  0.00     0.132 C 
HETATM    8  N   UNL     1       7.395  28.027  56.156  1.00  0.00    -0.355 N 
HETATM    9  C   UNL     1       7.906  26.863  56.704  1.00  0.00     0.272 C 
HETATM   10  O   UNL     1       8.660  26.940  57.672  1.00  0.00    -0.266 OA
HETATM   11  N   UNL     1       6.392  24.046  55.010  1.00  0.00    -0.341 N 
HETATM   12  H   UNL     1       5.683  23.536  54.508  1.00  0.00     0.167 HD
HETATM   13  H   UNL     1       7.799  28.848  56.590  1.00  0.00     0.162 HD
ENDROOT
BRANCH   1  14
HETATM   14  C   UNL     1       7.984  22.093  55.386  1.00  0.00     0.059 A 
HETATM   15  C   UNL     1       8.132  21.342  54.235  1.00  0.00     0.040 A 
HETATM   16  C   UNL     1       7.942  21.623  52.794  1.00  0.00     0.071 C 
HETATM   17  N   UNL     1       8.536  20.106  54.666  1.00  0.00    -0.281 N 
HETATM   18  H   UNL     1       8.743  19.286  54.107  1.00  0.00     0.189 HD
HETATM   19  N   UNL     1       8.662  20.001  55.994  1.00  0.00    -0.179 NA
HETATM   20  C   UNL     1       8.320  21.214  56.450  1.00  0.00     0.067 A 
HETATM   21  C   UNL     1       8.321  21.489  57.910  1.00  0.00     0.073 C 
ENDBRANCH   1  14
BRANCH   6  22
HETATM   22  C   UNL     1       5.113  27.665  53.062  1.00  0.00    -0.019 A 
HETATM   23  C   UNL     1       5.838  26.924  52.104  1.00  0.00     0.074 A 
HETATM   24  C   UNL     1       5.462  26.972  50.756  1.00  0.00     0.037 A 
HETATM   25  C   UNL     1       4.386  27.762  50.349  1.00  0.00     0.003 A 
HETATM   26  C   UNL     1       3.686  28.520  51.280  1.00  0.00     0.001 A 
HETATM   27  C   UNL     1       4.051  28.480  52.625  1.00  0.00     0.010 A 
BRANCH  23  28
HETATM   28  O   UNL     1       6.897  26.195  52.580  1.00  0.00    -0.355 OA
HETATM   29  C   UNL     1       7.365  25.110  51.789  1.00  0.00     0.210 C 
ENDBRANCH  23  28
ENDBRANCH   6  22
TORSDOF 3
ENDMDL
MODEL 6
REMARK VINA RESULT:      -7.8      8.497     12.082
REMARK  3 active torsions:
REMARK  status: ('A' for Active; 'I' for Inactive)
REMARK    1  A    between atoms: C_8  and  C_9 
REMARK    2  A    between atoms: C_14  and  C_15 
REMARK    3  A    between atoms: C_16  and  O_17 
ROOT
HETATM    1  C   UNL     1       5.073  33.310  62.162  1.00  0.00     0.143 A 
HETATM    2  N   UNL     1       4.930  34.314  61.323  1.00  0.00    -0.223 NA
HETATM    3  C   UNL     1       4.574  33.767  60.106  1.00  0.00     0.149 A 
HETATM    4  C   UNL     1       4.506  32.389  60.221  1.00  0.00     0.046 A 
HETATM    5  C   UNL     1       4.053  31.363  59.245  1.00  0.00     0.070 C 
HETATM    6  C   UNL     1       4.750  31.432  57.870  1.00  0.00     0.045 C 
HETATM    7  C   UNL     1       5.348  32.803  57.481  1.00  0.00     0.132 C 
HETATM    8  N   UNL     1       4.454  33.929  57.683  1.00  0.00    -0.355 N 
HETATM    9  C   UNL     1       4.278  34.554  58.905  1.00  0.00     0.272 C 
HETATM   10  O   UNL     1       3.888  35.719  58.930  1.00  0.00    -0.266 OA
HETATM   11  N   UNL     1       4.848  32.118  61.521  1.00  0.00    -0.341 N 
HETATM   12  H   UNL     1       4.874  31.209  61.954  1.00  0.00     0.167 HD
HETATM   13  H   UNL     1       4.318  34.575  56.915  1.00  0.00     0.162 HD
ENDROOT
BRANCH   1  14
HETATM   14  C   UNL     1       5.412  33.476  63.602  1.00  0.00     0.059 A 
HETATM   15  C   UNL     1       6.614  33.214  64.232  1.00  0.00     0.040 A 
HETATM   16  C   UNL     1       7.928  32.713  63.770  1.00  0.00     0.071 C 
HETATM   17  N   UNL     1       6.399  33.522  65.550  1.00  0.00    -0.281 N 
HETATM   18  H   UNL     1       7.053  33.455  66.322  1.00  0.00     0.189 HD
HETATM   19  N   UNL     1       5.163  33.961  65.818  1.00  0.00    -0.179 NA
HETATM   20  C   UNL     1       4.544  33.932  64.629  1.00  0.00     0.067 A 
HETATM   21  C   UNL     1       3.120  34.343  64.521  1.00  0.00     0.073 C 
ENDBRANCH   1  14
BRANCH   6  22
HETATM   22  C   UNL     1       5.771  30.299  57.730  1.00  0.00    -0.019 A 
HETATM   23  C   UNL     1       5.458  29.130  57.003  1.00  0.00     0.074 A 
HETATM   24  C   UNL     1       6.409  28.110  56.882  1.00  0.00     0.037 A 
HETATM   25  C   UNL     1       7.659  28.231  57.491  1.00  0.00     0.003 A 
HETATM   26  C   UNL     1       7.965  29.364  58.236  1.00  0.00     0.001 A 
HETATM   27  C   UNL     1       7.026  30.387  58.363  1.00  0.00     0.010 A 
BRANCH  23  28
HETATM   28  O   UNL     1       4.201  29.076  56.458  1.00  0.00    -0.355 OA
HETATM   29  C   UNL     1       4.080  28.646  55.108  1.00  0.00     0.210 C 
ENDBRANCH  23  28
ENDBRANCH   6  22
TORSDOF 3
ENDMDL
MODEL 7
REMARK VINA RESULT:      -7.6      2.762      5.125
REMARK  3 active torsions:
REMARK  status: ('A' for Active; 'I' for Inactive)
REMARK    1  A    between atoms: C_8  and  C_9 
REMARK    2  A    between atoms: C_14  and  C_15 
REMARK    3  A    between atoms: C_16  and  O_17 
ROOT
HETATM    1  C   UNL     1       4.564  27.089  50.324  1.00  0.00     0.143 A 
HETATM    2  N   UNL     1       5.725  26.477  50.443  1.00  0.00    -0.223 NA
HETATM    3  C   UNL     1       5.980  26.371  51.796  1.00  0.00     0.149 A 
HETATM    4  C   UNL     1       4.940  26.943  52.509  1.00  0.00     0.046 A 
HETATM    5  C   UNL     1       4.682  26.976  53.973  1.00  0.00     0.070 C 
HETATM    6  C   UNL     1       5.851  27.521  54.820  1.00  0.00     0.045 C 
HETATM    7  C   UNL     1       7.256  27.415  54.184  1.00  0.00     0.132 C 
HETATM    8  N   UNL     1       7.565  26.113  53.621  1.00  0.00    -0.355 N 
HETATM    9  C   UNL     1       7.161  25.711  52.360  1.00  0.00     0.272 C 
HETATM   10  O   UNL     1       7.797  24.834  51.780  1.00  0.00    -0.266 OA
HETATM   11  N   UNL     1       4.068  27.412  51.561  1.00  0.00    -0.341 N 
HETATM   12  H   UNL     1       3.184  27.863  51.736  1.00  0.00     0.167 HD
HETATM   13  H   UNL     1       8.438  25.673  53.887  1.00  0.00     0.162 HD
ENDROOT
BRANCH   1  14
HETATM   14  C   UNL     1       3.902  27.360  49.019  1.00  0.00     0.059 A 
HETATM   15  C   UNL     1       3.328  26.452  48.149  1.00  0.00     0.040 A 
HETATM   16  C   UNL     1       3.152  24.983  48.166  1.00  0.00     0.071 C 
HETATM   17  N   UNL     1       2.873  27.206  47.099  1.00  0.00    -0.281 N 
HETATM   18  H   UNL     1       2.396  26.889  46.262  1.00  0.00     0.189 HD
HETATM   19  N   UNL     1       3.105  28.519  47.223  1.00  0.00    -0.179 NA
HETATM   20  C   UNL     1       3.742  28.626  48.397  1.00  0.00     0.067 A 
HETATM   21  C   UNL     1       4.188  29.958  48.884  1.00  0.00     0.073 C 
ENDBRANCH   1  14
BRANCH   6  22
HETATM   22  C   UNL     1       5.544  28.941  55.305  1.00  0.00    -0.019 A 
HETATM   23  C   UNL     1       6.019  29.396  56.554  1.00  0.00     0.074 A 
HETATM   24  C   UNL     1       5.732  30.701  56.974  1.00  0.00     0.037 A 
HETATM   25  C   UNL     1       4.964  31.549  56.175  1.00  0.00     0.003 A 
HETATM   26  C   UNL     1       4.465  31.099  54.959  1.00  0.00     0.001 A 
HETATM   27  C   UNL     1       4.744  29.802  54.530  1.00  0.00     0.010 A 
BRANCH  23  28
HETATM   28  O   UNL     1       6.743  28.495  57.290  1.00  0.00    -0.355 OA
HETATM   29  C   UNL     1       7.820  28.990  58.074  1.00  0.00     0.210 C 
ENDBRANCH  23  28
ENDBRANCH   6  22
TORSDOF 3
ENDMDL
MODEL 8
REMARK VINA RESULT:      -7.6     10.441     12.806
REMARK  3 active torsions:
REMARK  status: ('A' for Active; 'I' for Inactive)
REMARK    1  A    between atoms: C_8  and  C_9 
REMARK    2  A    between atoms: C_14  and  C_15 
REMARK    3  A    between atoms: C_16  and  O_17 
ROOT
HETATM    1  C   UNL     1       3.688  34.336  58.567  1.00  0.00     0.143 A 
HETATM    2  N   UNL     1       2.457  34.094  58.968  1.00  0.00    -0.223 NA
HETATM    3  C   UNL     1       2.366  34.551  60.267  1.00  0.00     0.149 A 
HETATM    4  C   UNL     1       3.585  35.079  60.658  1.00  0.00     0.046 A 
HETATM    5  C   UNL     1       3.967  35.799  61.902  1.00  0.00     0.070 C 
HETATM    6  C   UNL     1       3.627  35.050  63.208  1.00  0.00     0.045 C 
HETATM    7  C   UNL     1       2.486  34.012  63.117  1.00  0.00     0.132 C 
HETATM    8  N   UNL     1       1.290  34.488  62.447  1.00  0.00    -0.355 N 
HETATM    9  C   UNL     1       1.141  34.507  61.071  1.00  0.00     0.272 C 
HETATM   10  O   UNL     1       0.009  34.488  60.592  1.00  0.00    -0.266 OA
HETATM   11  N   UNL     1       4.413  34.913  59.578  1.00  0.00    -0.341 N 
HETATM   12  H   UNL     1       5.372  35.213  59.511  1.00  0.00     0.167 HD
HETATM   13  H   UNL     1       0.399  34.363  62.913  1.00  0.00     0.162 HD
ENDROOT
BRANCH   1  14
HETATM   14  C   UNL     1       4.186  34.034  57.197  1.00  0.00     0.059 A 
HETATM   15  C   UNL     1       4.730  34.909  56.275  1.00  0.00     0.040 A 
HETATM   16  C   UNL     1       5.015  36.361  56.279  1.00  0.00     0.071 C 
HETATM   17  N   UNL     1       5.015  34.137  55.179  1.00  0.00    -0.281 N 
HETATM   18  H   UNL     1       5.423  34.428  54.298  1.00  0.00     0.189 HD
HETATM   19  N   UNL     1       4.701  32.843  55.321  1.00  0.00    -0.179 NA
HETATM   20  C   UNL     1       4.186  32.767  56.556  1.00  0.00     0.067 A 
HETATM   21  C   UNL     1       3.698  31.466  57.081  1.00  0.00     0.073 C 
ENDBRANCH   1  14
BRANCH   6  22
HETATM   22  C   UNL     1       4.894  34.460  63.832  1.00  0.00    -0.019 A 
HETATM   23  C   UNL     1       5.077  34.458  65.232  1.00  0.00     0.074 A 
HETATM   24  C   UNL     1       6.241  33.906  65.781  1.00  0.00     0.037 A 
HETATM   25  C   UNL     1       7.231  33.374  64.955  1.00  0.00     0.003 A 
HETATM   26  C   UNL     1       7.075  33.401  63.574  1.00  0.00     0.001 A 
HETATM   27  C   UNL     1       5.920  33.947  63.015  1.00  0.00     0.010 A 
BRANCH  23  28
HETATM   28  O   UNL     1       4.071  35.022  65.973  1.00  0.00    -0.355 OA
HETATM   29  C   UNL     1       4.396  36.140  66.790  1.00  0.00     0.210 C 
ENDBRANCH  23  28
ENDBRANCH   6  22
TORSDOF 3
ENDMDL
MODEL 9
REMARK VINA RESULT:      -7.5      4.165      8.134
REMARK  3 active torsions:
REMARK  status: ('A' for Active; 'I' for Inactive)
REMARK    1  A    between atoms: C_8  and  C_9 
REMARK    2  A    between atoms: C_14  and  C_15 
REMARK    3  A    between atoms: C_16  and  O_17 
ROOT
HETATM    1  C   UNL     1       3.767  29.213  53.481  1.00  0.00     0.143 A 
HETATM    2  N   UNL     1       4.170  30.357  52.965  1.00  0.00    -0.223 NA
HETATM    3  C   UNL     1       3.534  30.489  51.748  1.00  0.00     0.149 A 
HETATM    4  C   UNL     1       2.726  29.387  51.525  1.00  0.00     0.046 A 
HETATM    5  C   UNL     1       1.754  29.111  50.434  1.00  0.00     0.070 C 
HETATM    6  C   UNL     1       2.331  29.248  49.010  1.00  0.00     0.045 C 
HETATM    7  C   UNL     1       3.568  30.162  48.864  1.00  0.00     0.132 C 
HETATM    8  N   UNL     1       3.444  31.453  49.517  1.00  0.00    -0.355 N 
HETATM    9  C   UNL     1       3.678  31.652  50.866  1.00  0.00     0.272 C 
HETATM   10  O   UNL     1       3.991  32.774  51.260  1.00  0.00    -0.266 OA
HETATM   11  N   UNL     1       2.906  28.582  52.620  1.00  0.00    -0.341 N 
HETATM   12  H   UNL     1       2.444  27.704  52.797  1.00  0.00     0.167 HD
HETATM   13  H   UNL     1       3.659  32.284  48.979  1.00  0.00     0.162 HD
ENDROOT
BRANCH   1  14
HETATM   14  C   UNL     1       4.188  28.714  54.818  1.00  0.00     0.059 A 
HETATM   15  C   UNL     1       3.919  29.264  56.057  1.00  0.00     0.040 A 
HETATM   16  C   UNL     1       3.169  30.457  56.511  1.00  0.00     0.071 C 
HETATM   17  N   UNL     1       4.537  28.435  56.956  1.00  0.00    -0.281 N 
HETATM   18  H   UNL     1       4.564  28.516  57.966  1.00  0.00     0.189 HD
HETATM   19  N   UNL     1       5.178  27.400  56.398  1.00  0.00    -0.179 NA
HETATM   20  C   UNL     1       4.975  27.563  55.083  1.00  0.00     0.067 A 
HETATM   21  C   UNL     1       5.559  26.599  54.114  1.00  0.00     0.073 C 
ENDBRANCH   1  14
BRANCH   6  22
HETATM   22  C   UNL     1       2.559  27.867  48.389  1.00  0.00    -0.019 A 
HETATM   23  C   UNL     1       1.691  27.370  47.393  1.00  0.00     0.074 A 
HETATM   24  C   UNL     1       1.923  26.107  46.834  1.00  0.00     0.037 A 
HETATM   25  C   UNL     1       2.996  25.327  47.268  1.00  0.00     0.003 A 
HETATM   26  C   UNL     1       3.837  25.795  48.270  1.00  0.00     0.001 A 
HETATM   27  C   UNL     1       3.616  27.051  48.834  1.00  0.00     0.010 A 
BRANCH  23  28
HETATM   28  O   UNL     1       0.646  28.184  47.041  1.00  0.00    -0.355 OA
HETATM   29  C   UNL     1      -0.247  27.722  46.036  1.00  0.00     0.210 C 
ENDBRANCH  23  28
ENDBRANCH   6  22
TORSDOF 3
ENDMDL
MODEL 10
REMARK VINA RESULT:      -7.5     12.075     15.186
REMARK  3 active torsions:
REMARK  status: ('A' for Active; 'I' for Inactive)
REMARK    1  A    between atoms: C_8  and  C_9 
REMARK    2  A    between atoms: C_14  and  C_15 
REMARK    3  A    between atoms: C_16  and  O_17 
ROOT
HETATM    1  C   UNL     1       5.490  33.379  61.191  1.00  0.00     0.143 A 
HETATM    2  N   UNL     1       5.338  33.005  62.445  1.00  0.00    -0.223 NA
HETATM    3  C   UNL     1       4.922  34.121  63.143  1.00  0.00     0.149 A 
HETATM    4  C   UNL     1       4.825  35.198  62.279  1.00  0.00     0.046 A 
HETATM    5  C   UNL     1       4.309  36.573  62.510  1.00  0.00     0.070 C 
HETATM    6  C   UNL     1       4.953  37.310  63.703  1.00  0.00     0.045 C 
HETATM    7  C   UNL     1       5.568  36.414  64.801  1.00  0.00     0.132 C 
HETATM    8  N   UNL     1       4.711  35.329  65.243  1.00  0.00    -0.355 N 
HETATM    9  C   UNL     1       4.599  34.123  64.573  1.00  0.00     0.272 C 
HETATM   10  O   UNL     1       4.239  33.125  65.194  1.00  0.00    -0.266 OA
HETATM   11  N   UNL     1       5.211  34.715  61.056  1.00  0.00    -0.341 N 
HETATM   12  H   UNL     1       5.231  35.230  60.190  1.00  0.00     0.167 HD
HETATM   13  H   UNL     1       4.561  35.213  66.238  1.00  0.00     0.162 HD
ENDROOT
BRANCH   1  14
HETATM   14  C   UNL     1       5.889  32.454  60.095  1.00  0.00     0.059 A 
HETATM   15  C   UNL     1       5.070  31.755  59.228  1.00  0.00     0.040 A 
HETATM   16  C   UNL     1       3.603  31.658  59.054  1.00  0.00     0.071 C 
HETATM   17  N   UNL     1       5.925  31.047  58.425  1.00  0.00    -0.281 N 
HETATM   18  H   UNL     1       5.692  30.414  57.667  1.00  0.00     0.189 HD
HETATM   19  N   UNL     1       7.221  31.234  58.702  1.00  0.00    -0.179 NA
HETATM   20  C   UNL     1       7.213  32.094  59.731  1.00  0.00     0.067 A 
HETATM   21  C   UNL     1       8.492  32.538  60.340  1.00  0.00     0.073 C 
ENDBRANCH   1  14
BRANCH   6  22
HETATM   22  C   UNL     1       5.939  38.371  63.207  1.00  0.00    -0.019 A 
HETATM   23  C   UNL     1       6.326  39.444  64.040  1.00  0.00     0.074 A 
HETATM   24  C   UNL     1       7.234  40.399  63.568  1.00  0.00     0.037 A 
HETATM   25  C   UNL     1       7.747  40.310  62.273  1.00  0.00     0.003 A 
HETATM   26  C   UNL     1       7.348  39.276  61.435  1.00  0.00     0.001 A 
HETATM   27  C   UNL     1       6.444  38.318  61.894  1.00  0.00     0.010 A 
BRANCH  23  28
HETATM   28  O   UNL     1       5.757  39.475  65.287  1.00  0.00    -0.355 OA
HETATM   29  C   UNL     1       6.154  40.516  66.172  1.00  0.00     0.210 C 
ENDBRANCH  23  28
ENDBRANCH   6  22
TORSDOF 3
ENDMDL
