MODEL 1
REMARK VINA RESULT:      -9.5      0.000      0.000
REMARK  9 active torsions:
REMARK  status: ('A' for Active; 'I' for Inactive)
REMARK    1  A    between atoms: C_2  and  C_3 
REMARK    2  A    between atoms: C_8  and  O_9 
REMARK    3  A    between atoms: C_10  and  C_11 
REMARK    4  A    between atoms: C_11  and  N_12 
REMARK       I    between atoms: N_12  and  C_13 
REMARK    5  A    between atoms: N_12  and  C_23 
REMARK       I    between atoms: C_13  and  N_14 
REMARK    6  A    between atoms: N_14  and  C_15 
REMARK    7  A    between atoms: C_23  and  C_24 
REMARK    8  A    between atoms: C_24  and  C_25 
REMARK    9  A    between atoms: C_25  and  N_26 
ROOT
HETATM    1  N   UNL     1       4.985  28.339  53.623  1.00  0.00    -0.330 N 
HETATM    2  C   UNL     1       5.214  28.578  54.987  1.00  0.00     0.323 C 
HETATM    3  N   UNL     1       6.187  29.529  55.220  1.00  0.00    -0.309 N 
HETATM    4  O   UNL     1       4.638  27.931  55.853  1.00  0.00    -0.247 OA
HETATM    5  H   UNL     1       6.716  29.811  54.418  1.00  0.00     0.170 HD
ENDROOT
BRANCH   1   6
HETATM    6  C   UNL     1       4.367  27.051  53.264  1.00  0.00     0.170 C 
BRANCH   6   7
HETATM    7  C   UNL     1       5.378  25.940  53.179  1.00  0.00     0.013 A 
HETATM    8  C   UNL     1       6.101  25.657  52.038  1.00  0.00     0.170 A 
HETATM    9  N   UNL     1       7.070  24.733  51.921  1.00  0.00    -0.224 NA
HETATM   10  C   UNL     1       7.363  24.003  53.016  1.00  0.00     0.070 A 
HETATM   11  C   UNL     1       6.673  24.167  54.233  1.00  0.00    -0.006 A 
HETATM   12  C   UNL     1       8.377  23.055  52.967  1.00  0.00     0.033 A 
HETATM   13  C   UNL     1       6.998  23.379  55.352  1.00  0.00     0.021 A 
HETATM   14  C   UNL     1       5.670  25.144  54.290  1.00  0.00     0.027 A 
HETATM   15  C   UNL     1       8.022  22.429  55.286  1.00  0.00    -0.058 A 
HETATM   16  C   UNL     1       8.712  22.277  54.081  1.00  0.00     0.009 A 
BRANCH   8  17
HETATM   17  O   UNL     1       5.886  26.305  50.864  1.00  0.00    -0.344 OA
HETATM   18  H   UNL     1       5.694  27.186  51.246  1.00  0.00     0.219 HD
ENDBRANCH   8  17
BRANCH  15  19
HETATM   19  C   UNL     1       8.365  21.582  56.486  1.00  0.00     0.034 C 
HETATM   20  C   UNL     1       9.120  20.319  56.098  1.00  0.00     0.010 C 
ENDBRANCH  15  19
ENDBRANCH   6   7
ENDBRANCH   1   6
BRANCH   1  21
HETATM   21  C   UNL     1       5.043  29.387  52.605  1.00  0.00     0.129 C 
BRANCH  21  22
HETATM   22  C   UNL     1       3.832  29.385  51.673  1.00  0.00     0.048 C 
BRANCH  22  23
HETATM   23  C   UNL     1       4.201  29.578  50.204  1.00  0.00     0.236 C 
BRANCH  23  24
HETATM   24  N   UNL     1       4.313  28.279  49.433  1.00  0.00    -0.067 N 
HETATM   25  H   UNL     1       4.711  27.549  50.037  1.00  0.00     0.280 HD
HETATM   26  C   UNL     1       2.917  27.793  49.008  1.00  0.00     0.261 C 
HETATM   27  C   UNL     1       3.030  26.509  48.183  1.00  0.00     0.195 C 
HETATM   28  O   UNL     1       3.859  26.716  47.036  1.00  0.00    -0.388 OA
HETATM   29  C   UNL     1       5.192  27.073  47.408  1.00  0.00     0.195 C 
HETATM   30  C   UNL     1       5.211  28.389  48.193  1.00  0.00     0.261 C 
ENDBRANCH  23  24
ENDBRANCH  22  23
ENDBRANCH  21  22
ENDBRANCH   1  21
BRANCH   3  31
HETATM   31  C   UNL     1       6.768  29.870  56.460  1.00  0.00     0.036 A 
HETATM   32  C   UNL     1       7.951  29.202  56.809  1.00  0.00     0.031 A 
HETATM   33  C   UNL     1       8.564  29.432  58.044  1.00  0.00     0.026 A 
HETATM   34  C   UNL     1       8.000  30.339  58.935  1.00  0.00     0.034 A 
HETATM   35 CL   UNL     1       8.740  30.608  60.463  1.00  0.00    -0.084 Cl
HETATM   36  C   UNL     1       6.837  31.024  58.594  1.00  0.00     0.026 A 
HETATM   37  C   UNL     1       6.226  30.793  57.356  1.00  0.00     0.031 A 
ENDBRANCH   3  31
TORSDOF 9
ENDMDL
MODEL 2
REMARK VINA RESULT:      -9.4      3.482      7.508
REMARK  9 active torsions:
REMARK  status: ('A' for Active; 'I' for Inactive)
REMARK    1  A    between atoms: C_2  and  C_3 
REMARK    2  A    between atoms: C_8  and  O_9 
REMARK    3  A    between atoms: C_10  and  C_11 
REMARK    4  A    between atoms: C_11  and  N_12 
REMARK       I    between atoms: N_12  and  C_13 
REMARK    5  A    between atoms: N_12  and  C_23 
REMARK       I    between atoms: C_13  and  N_14 
REMARK    6  A    between atoms: N_14  and  C_15 
REMARK    7  A    between atoms: C_23  and  C_24 
REMARK    8  A    between atoms: C_24  and  C_25 
REMARK    9  A    between atoms: C_25  and  N_26 
ROOT
HETATM    1  N   UNL     1       5.947  27.743  54.745  1.00  0.00    -0.330 N 
HETATM    2  C   UNL     1       5.893  27.983  53.364  1.00  0.00     0.323 C 
HETATM    3  N   UNL     1       4.715  27.561  52.781  1.00  0.00    -0.309 N 
HETATM    4  O   UNL     1       6.849  28.457  52.762  1.00  0.00    -0.247 OA
HETATM    5  H   UNL     1       4.122  27.001  53.361  1.00  0.00     0.170 HD
ENDROOT
BRANCH   1   6
HETATM    6  C   UNL     1       7.283  27.687  55.363  1.00  0.00     0.170 C 
BRANCH   6   7
HETATM    7  C   UNL     1       7.641  26.298  55.817  1.00  0.00     0.013 A 
HETATM    8  C   UNL     1       8.017  25.995  57.110  1.00  0.00     0.170 A 
HETATM    9  N   UNL     1       8.273  24.768  57.595  1.00  0.00    -0.224 NA
HETATM   10  C   UNL     1       8.163  23.731  56.741  1.00  0.00     0.070 A 
HETATM   11  C   UNL     1       7.824  23.908  55.386  1.00  0.00    -0.006 A 
HETATM   12  C   UNL     1       8.383  22.435  57.191  1.00  0.00     0.033 A 
HETATM   13  C   UNL     1       7.729  22.803  54.520  1.00  0.00     0.021 A 
HETATM   14  C   UNL     1       7.573  25.213  54.940  1.00  0.00     0.027 A 
HETATM   15  C   UNL     1       7.954  21.505  54.990  1.00  0.00    -0.058 A 
HETATM   16  C   UNL     1       8.279  21.331  56.337  1.00  0.00     0.009 A 
BRANCH   8  17
HETATM   17  O   UNL     1       8.186  26.952  58.059  1.00  0.00    -0.344 OA
HETATM   18  H   UNL     1       8.598  26.378  58.737  1.00  0.00     0.219 HD
ENDBRANCH   8  17
BRANCH  15  19
HETATM   19  C   UNL     1       7.857  20.323  54.059  1.00  0.00     0.034 C 
HETATM   20  C   UNL     1       8.345  20.655  52.657  1.00  0.00     0.010 C 
ENDBRANCH  15  19
ENDBRANCH   6   7
ENDBRANCH   1   6
BRANCH   1  21
HETATM   21  C   UNL     1       4.782  27.846  55.623  1.00  0.00     0.129 C 
BRANCH  21  22
HETATM   22  C   UNL     1       5.132  28.332  57.029  1.00  0.00     0.048 C 
BRANCH  22  23
HETATM   23  C   UNL     1       4.753  29.791  57.275  1.00  0.00     0.236 C 
BRANCH  23  24
HETATM   24  N   UNL     1       5.569  30.452  58.367  1.00  0.00    -0.067 N 
HETATM   25  H   UNL     1       5.371  30.002  59.269  1.00  0.00     0.280 HD
HETATM   26  C   UNL     1       7.070  30.261  58.095  1.00  0.00     0.261 C 
HETATM   27  C   UNL     1       7.899  30.973  59.167  1.00  0.00     0.195 C 
HETATM   28  O   UNL     1       7.572  32.364  59.219  1.00  0.00    -0.388 OA
HETATM   29  C   UNL     1       6.201  32.569  59.568  1.00  0.00     0.195 C 
HETATM   30  C   UNL     1       5.268  31.949  58.523  1.00  0.00     0.261 C 
ENDBRANCH  23  24
ENDBRANCH  22  23
ENDBRANCH  21  22
ENDBRANCH   1  21
BRANCH   3  31
HETATM   31  C   UNL     1       4.419  27.500  51.402  1.00  0.00     0.036 A 
HETATM   32  C   UNL     1       3.599  28.515  50.886  1.00  0.00     0.031 A 
HETATM   33  C   UNL     1       3.205  28.503  49.544  1.00  0.00     0.026 A 
HETATM   34  C   UNL     1       3.636  27.478  48.709  1.00  0.00     0.034 A 
HETATM   35 CL   UNL     1       3.135  27.449  47.065  1.00  0.00    -0.084 Cl
HETATM   36  C   UNL     1       4.466  26.475  49.203  1.00  0.00     0.026 A 
HETATM   37  C   UNL     1       4.860  26.490  50.546  1.00  0.00     0.031 A 
ENDBRANCH   3  31
TORSDOF 9
ENDMDL
MODEL 3
REMARK VINA RESULT:      -9.2      4.461      8.867
REMARK  9 active torsions:
REMARK  status: ('A' for Active; 'I' for Inactive)
REMARK    1  A    between atoms: C_2  and  C_3 
REMARK    2  A    between atoms: C_8  and  O_9 
REMARK    3  A    between atoms: C_10  and  C_11 
REMARK    4  A    between atoms: C_11  and  N_12 
REMARK       I    between atoms: N_12  and  C_13 
REMARK    5  A    between atoms: N_12  and  C_23 
REMARK       I    between atoms: C_13  and  N_14 
REMARK    6  A    between atoms: N_14  and  C_15 
REMARK    7  A    between atoms: C_23  and  C_24 
REMARK    8  A    between atoms: C_24  and  C_25 
REMARK    9  A    between atoms: C_25  and  N_26 
ROOT
HETATM    1  N   UNL     1       6.200  28.454  56.231  1.00  0.00    -0.330 N 
HETATM    2  C   UNL     1       6.869  27.348  55.685  1.00  0.00     0.323 C 
HETATM    3  N   UNL     1       6.385  26.138  56.139  1.00  0.00    -0.309 N 
HETATM    4  O   UNL     1       7.830  27.489  54.939  1.00  0.00    -0.247 OA
HETATM    5  H   UNL     1       5.743  26.189  56.905  1.00  0.00     0.170 HD
ENDROOT
BRANCH   1   6
HETATM    6  C   UNL     1       6.916  29.742  56.219  1.00  0.00     0.170 C 
BRANCH   6   7
HETATM    7  C   UNL     1       7.565  30.043  57.542  1.00  0.00     0.013 A 
HETATM    8  C   UNL     1       8.814  29.577  57.899  1.00  0.00     0.170 A 
HETATM    9  N   UNL     1       9.478  29.874  59.029  1.00  0.00    -0.224 NA
HETATM   10  C   UNL     1       8.871  30.697  59.905  1.00  0.00     0.070 A 
HETATM   11  C   UNL     1       7.579  31.212  59.679  1.00  0.00    -0.006 A 
HETATM   12  C   UNL     1       9.520  31.067  61.076  1.00  0.00     0.033 A 
HETATM   13  C   UNL     1       6.970  32.060  60.621  1.00  0.00     0.021 A 
HETATM   14  C   UNL     1       6.936  30.863  58.484  1.00  0.00     0.027 A 
HETATM   15  C   UNL     1       7.639  32.423  61.795  1.00  0.00    -0.058 A 
HETATM   16  C   UNL     1       8.924  31.919  62.013  1.00  0.00     0.009 A 
BRANCH   8  17
HETATM   17  O   UNL     1       9.520  28.723  57.114  1.00  0.00    -0.344 OA
HETATM   18  H   UNL     1       8.903  28.719  56.354  1.00  0.00     0.219 HD
ENDBRANCH   8  17
BRANCH  15  19
HETATM   19  C   UNL     1       6.982  33.328  62.807  1.00  0.00     0.034 C 
HETATM   20  C   UNL     1       7.601  33.186  64.190  1.00  0.00     0.010 C 
ENDBRANCH  15  19
ENDBRANCH   6   7
ENDBRANCH   1   6
BRANCH   1  21
HETATM   21  C   UNL     1       4.767  28.462  56.521  1.00  0.00     0.129 C 
BRANCH  21  22
HETATM   22  C   UNL     1       4.054  29.705  55.990  1.00  0.00     0.048 C 
BRANCH  22  23
HETATM   23  C   UNL     1       3.357  30.514  57.082  1.00  0.00     0.236 C 
BRANCH  23  24
HETATM   24  N   UNL     1       3.532  32.011  56.930  1.00  0.00    -0.067 N 
HETATM   25  H   UNL     1       2.652  32.432  56.607  1.00  0.00     0.280 HD
HETATM   26  C   UNL     1       3.856  32.647  58.292  1.00  0.00     0.261 C 
HETATM   27  C   UNL     1       4.086  34.152  58.134  1.00  0.00     0.195 C 
HETATM   28  O   UNL     1       5.136  34.408  57.199  1.00  0.00    -0.388 OA
HETATM   29  C   UNL     1       4.815  33.912  55.898  1.00  0.00     0.195 C 
HETATM   30  C   UNL     1       4.623  32.391  55.920  1.00  0.00     0.261 C 
ENDBRANCH  23  24
ENDBRANCH  22  23
ENDBRANCH  21  22
ENDBRANCH   1  21
BRANCH   3  31
HETATM   31  C   UNL     1       6.942  24.859  55.921  1.00  0.00     0.036 A 
HETATM   32  C   UNL     1       7.732  24.330  56.952  1.00  0.00     0.031 A 
HETATM   33  C   UNL     1       8.372  23.096  56.801  1.00  0.00     0.026 A 
HETATM   34  C   UNL     1       8.220  22.381  55.617  1.00  0.00     0.034 A 
HETATM   35 CL   UNL     1       9.024  20.875  55.421  1.00  0.00    -0.084 Cl
HETATM   36  C   UNL     1       7.424  22.886  54.593  1.00  0.00     0.026 A 
HETATM   37  C   UNL     1       6.782  24.120  54.748  1.00  0.00     0.031 A 
ENDBRANCH   3  31
TORSDOF 9
ENDMDL
MODEL 4
REMARK VINA RESULT:      -9.2      3.069      8.396
REMARK  9 active torsions:
REMARK  status: ('A' for Active; 'I' for Inactive)
REMARK    1  A    between atoms: C_2  and  C_3 
REMARK    2  A    between atoms: C_8  and  O_9 
REMARK    3  A    between atoms: C_10  and  C_11 
REMARK    4  A    between atoms: C_11  and  N_12 
REMARK       I    between atoms: N_12  and  C_13 
REMARK    5  A    between atoms: N_12  and  C_23 
REMARK       I    between atoms: C_13  and  N_14 
REMARK    6  A    between atoms: N_14  and  C_15 
REMARK    7  A    between atoms: C_23  and  C_24 
REMARK    8  A    between atoms: C_24  and  C_25 
REMARK    9  A    between atoms: C_25  and  N_26 
ROOT
HETATM    1  N   UNL     1       6.340  27.505  54.958  1.00  0.00    -0.330 N 
HETATM    2  C   UNL     1       6.404  26.105  55.016  1.00  0.00     0.323 C 
HETATM    3  N   UNL     1       7.649  25.601  54.696  1.00  0.00    -0.309 N 
HETATM    4  O   UNL     1       5.411  25.431  55.259  1.00  0.00    -0.247 OA
HETATM    5  H   UNL     1       8.296  26.260  54.312  1.00  0.00     0.170 HD
ENDROOT
BRANCH   1   6
HETATM    6  C   UNL     1       5.006  28.108  54.790  1.00  0.00     0.170 C 
BRANCH   6   7
HETATM    7  C   UNL     1       4.728  28.482  53.360  1.00  0.00     0.013 A 
HETATM    8  C   UNL     1       4.533  29.783  52.940  1.00  0.00     0.170 A 
HETATM    9  N   UNL     1       4.358  30.189  51.671  1.00  0.00    -0.224 NA
HETATM   10  C   UNL     1       4.364  29.241  50.712  1.00  0.00     0.070 A 
HETATM   11  C   UNL     1       4.516  27.873  51.012  1.00  0.00    -0.006 A 
HETATM   12  C   UNL     1       4.221  29.601  49.378  1.00  0.00     0.033 A 
HETATM   13  C   UNL     1       4.506  26.910  49.986  1.00  0.00     0.021 A 
HETATM   14  C   UNL     1       4.690  27.513  52.354  1.00  0.00     0.027 A 
HETATM   15  C   UNL     1       4.361  27.290  48.648  1.00  0.00    -0.058 A 
HETATM   16  C   UNL     1       4.222  28.649  48.353  1.00  0.00     0.009 A 
BRANCH   8  17
HETATM   17  O   UNL     1       4.482  30.825  53.808  1.00  0.00    -0.344 OA
HETATM   18  H   UNL     1       3.526  30.768  54.011  1.00  0.00     0.219 HD
ENDBRANCH   8  17
BRANCH  15  19
HETATM   19  C   UNL     1       4.345  26.256  47.551  1.00  0.00     0.034 C 
HETATM   20  C   UNL     1       2.952  25.692  47.315  1.00  0.00     0.010 C 
ENDBRANCH  15  19
ENDBRANCH   6   7
ENDBRANCH   1   6
BRANCH   1  21
HETATM   21  C   UNL     1       7.449  28.376  55.347  1.00  0.00     0.129 C 
BRANCH  21  22
HETATM   22  C   UNL     1       7.085  29.342  56.474  1.00  0.00     0.048 C 
BRANCH  22  23
HETATM   23  C   UNL     1       7.547  28.866  57.849  1.00  0.00     0.236 C 
BRANCH  23  24
HETATM   24  N   UNL     1       8.593  29.762  58.480  1.00  0.00    -0.067 N 
HETATM   25  H   UNL     1       9.075  29.257  59.233  1.00  0.00     0.280 HD
HETATM   26  C   UNL     1       9.662  30.140  57.442  1.00  0.00     0.261 C 
HETATM   27  C   UNL     1      10.691  31.089  58.060  1.00  0.00     0.195 C 
HETATM   28  O   UNL     1      10.055  32.262  58.572  1.00  0.00    -0.388 OA
HETATM   29  C   UNL     1       9.125  31.945  59.610  1.00  0.00     0.195 C 
HETATM   30  C   UNL     1       8.002  31.042  59.088  1.00  0.00     0.261 C 
ENDBRANCH  23  24
ENDBRANCH  22  23
ENDBRANCH  21  22
ENDBRANCH   1  21
BRANCH   3  31
HETATM   31  C   UNL     1       7.995  24.247  54.495  1.00  0.00     0.036 A 
HETATM   32  C   UNL     1       7.759  23.717  53.218  1.00  0.00     0.031 A 
HETATM   33  C   UNL     1       8.016  22.371  52.943  1.00  0.00     0.026 A 
HETATM   34  C   UNL     1       8.519  21.547  53.945  1.00  0.00     0.034 A 
HETATM   35 CL   UNL     1       8.816  19.887  53.616  1.00  0.00    -0.084 Cl
HETATM   36  C   UNL     1       8.777  22.065  55.211  1.00  0.00     0.026 A 
HETATM   37  C   UNL     1       8.520  23.414  55.483  1.00  0.00     0.031 A 
ENDBRANCH   3  31
TORSDOF 9
ENDMDL
MODEL 5
REMARK VINA RESULT:      -9.1      3.168      7.773
REMARK  9 active torsions:
REMARK  status: ('A' for Active; 'I' for Inactive)
REMARK    1  A    between atoms: C_2  and  C_3 
REMARK    2  A    between atoms: C_8  and  O_9 
REMARK    3  A    between atoms: C_10  and  C_11 
REMARK    4  A    between atoms: C_11  and  N_12 
REMARK       I    between atoms: N_12  and  C_13 
REMARK    5  A    between atoms: N_12  and  C_23 
REMARK       I    between atoms: C_13  and  N_14 
REMARK    6  A    between atoms: N_14  and  C_15 
REMARK    7  A    between atoms: C_23  and  C_24 
REMARK    8  A    between atoms: C_24  and  C_25 
REMARK    9  A    between atoms: C_25  and  N_26 
ROOT
HETATM    1  N   UNL     1       6.410  28.452  55.932  1.00  0.00    -0.330 N 
HETATM    2  C   UNL     1       7.078  27.463  55.194  1.00  0.00     0.323 C 
HETATM    3  N   UNL     1       6.696  26.180  55.527  1.00  0.00    -0.309 N 
HETATM    4  O   UNL     1       7.960  27.753  54.394  1.00  0.00    -0.247 OA
HETATM    5  H   UNL     1       6.125  26.098  56.345  1.00  0.00     0.170 HD
ENDROOT
BRANCH   1   6
HETATM    6  C   UNL     1       7.059  29.771  56.026  1.00  0.00     0.170 C 
BRANCH   6   7
HETATM    7  C   UNL     1       7.655  30.016  57.386  1.00  0.00     0.013 A 
HETATM    8  C   UNL     1       8.854  29.470  57.798  1.00  0.00     0.170 A 
HETATM    9  N   UNL     1       9.475  29.711  58.965  1.00  0.00    -0.224 NA
HETATM   10  C   UNL     1       8.873  30.559  59.823  1.00  0.00     0.070 A 
HETATM   11  C   UNL     1       7.628  31.154  59.538  1.00  0.00    -0.006 A 
HETATM   12  C   UNL     1       9.481  30.873  61.031  1.00  0.00     0.033 A 
HETATM   13  C   UNL     1       7.023  32.025  60.462  1.00  0.00     0.021 A 
HETATM   14  C   UNL     1       7.028  30.860  58.307  1.00  0.00     0.027 A 
HETATM   15  C   UNL     1       7.650  32.331  61.674  1.00  0.00    -0.058 A 
HETATM   16  C   UNL     1       8.889  31.748  61.949  1.00  0.00     0.009 A 
BRANCH   8  17
HETATM   17  O   UNL     1       9.547  28.585  57.037  1.00  0.00    -0.344 OA
HETATM   18  H   UNL     1      10.130  29.237  56.595  1.00  0.00     0.219 HD
ENDBRANCH   8  17
BRANCH  15  19
HETATM   19  C   UNL     1       6.997  33.261  62.665  1.00  0.00     0.034 C 
HETATM   20  C   UNL     1       7.554  33.085  64.070  1.00  0.00     0.010 C 
ENDBRANCH  15  19
ENDBRANCH   6   7
ENDBRANCH   1   6
BRANCH   1  21
HETATM   21  C   UNL     1       5.010  28.339  56.341  1.00  0.00     0.129 C 
BRANCH  21  22
HETATM   22  C   UNL     1       4.088  29.300  55.594  1.00  0.00     0.048 C 
BRANCH  22  23
HETATM   23  C   UNL     1       3.566  28.734  54.275  1.00  0.00     0.236 C 
BRANCH  23  24
HETATM   24  N   UNL     1       4.609  28.701  53.177  1.00  0.00    -0.067 N 
HETATM   25  H   UNL     1       5.540  28.868  53.577  1.00  0.00     0.280 HD
HETATM   26  C   UNL     1       4.647  27.309  52.525  1.00  0.00     0.261 C 
HETATM   27  C   UNL     1       5.661  27.287  51.379  1.00  0.00     0.195 C 
HETATM   28  O   UNL     1       5.348  28.287  50.406  1.00  0.00    -0.388 OA
HETATM   29  C   UNL     1       5.403  29.601  50.967  1.00  0.00     0.195 C 
HETATM   30  C   UNL     1       4.377  29.763  52.093  1.00  0.00     0.261 C 
ENDBRANCH  23  24
ENDBRANCH  22  23
ENDBRANCH  21  22
ENDBRANCH   1  21
BRANCH   3  31
HETATM   31  C   UNL     1       7.292  24.974  55.100  1.00  0.00     0.036 A 
HETATM   32  C   UNL     1       6.901  24.486  53.844  1.00  0.00     0.031 A 
HETATM   33  C   UNL     1       7.394  23.268  53.365  1.00  0.00     0.026 A 
HETATM   34  C   UNL     1       8.288  22.535  54.138  1.00  0.00     0.034 A 
HETATM   35 CL   UNL     1       8.878  21.027  53.560  1.00  0.00    -0.084 Cl
HETATM   36  C   UNL     1       8.699  23.016  55.377  1.00  0.00     0.026 A 
HETATM   37  C   UNL     1       8.205  24.236  55.854  1.00  0.00     0.031 A 
ENDBRANCH   3  31
TORSDOF 9
ENDMDL
MODEL 6
REMARK VINA RESULT:      -9.1      3.157      8.706
REMARK  9 active torsions:
REMARK  status: ('A' for Active; 'I' for Inactive)
REMARK    1  A    between atoms: C_2  and  C_3 
REMARK    2  A    between atoms: C_8  and  O_9 
REMARK    3  A    between atoms: C_10  and  C_11 
REMARK    4  A    between atoms: C_11  and  N_12 
REMARK       I    between atoms: N_12  and  C_13 
REMARK    5  A    between atoms: N_12  and  C_23 
REMARK       I    between atoms: C_13  and  N_14 
REMARK    6  A    between atoms: N_14  and  C_15 
REMARK    7  A    between atoms: C_23  and  C_24 
REMARK    8  A    between atoms: C_24  and  C_25 
REMARK    9  A    between atoms: C_25  and  N_26 
ROOT
HETATM    1  N   UNL     1       6.471  27.327  53.857  1.00  0.00    -0.330 N 
HETATM    2  C   UNL     1       6.427  25.965  54.194  1.00  0.00     0.323 C 
HETATM    3  N   UNL     1       7.650  25.336  54.086  1.00  0.00    -0.309 N 
HETATM    4  O   UNL     1       5.371  25.413  54.479  1.00  0.00    -0.247 OA
HETATM    5  H   UNL     1       8.371  25.865  53.637  1.00  0.00     0.170 HD
ENDROOT
BRANCH   1   6
HETATM    6  C   UNL     1       5.201  27.960  53.462  1.00  0.00     0.170 C 
BRANCH   6   7
HETATM    7  C   UNL     1       5.098  28.146  51.972  1.00  0.00     0.013 A 
HETATM    8  C   UNL     1       4.773  27.126  51.100  1.00  0.00     0.170 A 
HETATM    9  N   UNL     1       4.590  27.244  49.774  1.00  0.00    -0.224 NA
HETATM   10  C   UNL     1       4.744  28.470  49.236  1.00  0.00     0.070 A 
HETATM   11  C   UNL     1       5.112  29.588  50.010  1.00  0.00    -0.006 A 
HETATM   12  C   UNL     1       4.536  28.663  47.876  1.00  0.00     0.033 A 
HETATM   13  C   UNL     1       5.275  30.851  49.412  1.00  0.00     0.021 A 
HETATM   14  C   UNL     1       5.293  29.400  51.387  1.00  0.00     0.027 A 
HETATM   15  C   UNL     1       5.062  31.027  48.042  1.00  0.00    -0.058 A 
HETATM   16  C   UNL     1       4.687  29.919  47.278  1.00  0.00     0.009 A 
BRANCH   8  17
HETATM   17  O   UNL     1       4.614  25.843  51.514  1.00  0.00    -0.344 OA
HETATM   18  H   UNL     1       5.007  25.412  50.727  1.00  0.00     0.219 HD
ENDBRANCH   8  17
BRANCH  15  19
HETATM   19  C   UNL     1       5.242  32.381  47.402  1.00  0.00     0.034 C 
HETATM   20  C   UNL     1       6.204  33.261  48.187  1.00  0.00     0.010 C 
ENDBRANCH  15  19
ENDBRANCH   6   7
ENDBRANCH   1   6
BRANCH   1  21
HETATM   21  C   UNL     1       7.610  28.192  54.161  1.00  0.00     0.129 C 
BRANCH  21  22
HETATM   22  C   UNL     1       7.481  28.900  55.509  1.00  0.00     0.048 C 
BRANCH  22  23
HETATM   23  C   UNL     1       8.161  28.151  56.652  1.00  0.00     0.236 C 
BRANCH  23  24
HETATM   24  N   UNL     1       9.108  29.013  57.462  1.00  0.00    -0.067 N 
HETATM   25  H   UNL     1       9.456  28.482  58.270  1.00  0.00     0.280 HD
HETATM   26  C   UNL     1      10.335  29.390  56.616  1.00  0.00     0.261 C 
HETATM   27  C   UNL     1      11.269  30.305  57.411  1.00  0.00     0.195 C 
HETATM   28  O   UNL     1      10.578  31.479  57.845  1.00  0.00    -0.388 OA
HETATM   29  C   UNL     1       9.490  31.159  58.715  1.00  0.00     0.195 C 
HETATM   30  C   UNL     1       8.450  30.290  58.000  1.00  0.00     0.261 C 
ENDBRANCH  23  24
ENDBRANCH  22  23
ENDBRANCH  21  22
ENDBRANCH   1  21
BRANCH   3  31
HETATM   31  C   UNL     1       7.910  23.951  54.184  1.00  0.00     0.036 A 
HETATM   32  C   UNL     1       8.135  23.440  55.471  1.00  0.00     0.031 A 
HETATM   33  C   UNL     1       8.458  22.093  55.659  1.00  0.00     0.026 A 
HETATM   34  C   UNL     1       8.550  21.247  54.559  1.00  0.00     0.034 A 
HETATM   35 CL   UNL     1       8.968  19.595  54.785  1.00  0.00    -0.084 Cl
HETATM   36  C   UNL     1       8.310  21.736  53.278  1.00  0.00     0.026 A 
HETATM   37  C   UNL     1       7.985  23.085  53.093  1.00  0.00     0.031 A 
ENDBRANCH   3  31
TORSDOF 9
ENDMDL
MODEL 7
REMARK VINA RESULT:      -9.0      2.644      3.776
REMARK  9 active torsions:
REMARK  status: ('A' for Active; 'I' for Inactive)
REMARK    1  A    between atoms: C_2  and  C_3 
REMARK    2  A    between atoms: C_8  and  O_9 
REMARK    3  A    between atoms: C_10  and  C_11 
REMARK    4  A    between atoms: C_11  and  N_12 
REMARK       I    between atoms: N_12  and  C_13 
REMARK    5  A    between atoms: N_12  and  C_23 
REMARK       I    between atoms: C_13  and  N_14 
REMARK    6  A    between atoms: N_14  and  C_15 
REMARK    7  A    between atoms: C_23  and  C_24 
REMARK    8  A    between atoms: C_24  and  C_25 
REMARK    9  A    between atoms: C_25  and  N_26 
ROOT
HETATM    1  N   UNL     1       5.940  28.895  55.943  1.00  0.00    -0.330 N 
HETATM    2  C   UNL     1       5.870  29.801  57.013  1.00  0.00     0.323 C 
HETATM    3  N   UNL     1       4.673  30.486  57.072  1.00  0.00    -0.309 N 
HETATM    4  O   UNL     1       6.827  29.988  57.753  1.00  0.00    -0.247 OA
HETATM    5  H   UNL     1       4.075  30.382  56.276  1.00  0.00     0.170 HD
ENDROOT
BRANCH   1   6
HETATM    6  C   UNL     1       7.283  28.494  55.493  1.00  0.00     0.170 C 
BRANCH   6   7
HETATM    7  C   UNL     1       7.551  27.033  55.735  1.00  0.00     0.013 A 
HETATM    8  C   UNL     1       7.783  26.502  56.988  1.00  0.00     0.170 A 
HETATM    9  N   UNL     1       7.951  25.201  57.279  1.00  0.00    -0.224 NA
HETATM   10  C   UNL     1       7.896  24.326  56.255  1.00  0.00     0.070 A 
HETATM   11  C   UNL     1       7.702  24.742  54.924  1.00  0.00    -0.006 A 
HETATM   12  C   UNL     1       8.030  22.965  56.496  1.00  0.00     0.033 A 
HETATM   13  C   UNL     1       7.662  23.802  53.878  1.00  0.00     0.021 A 
HETATM   14  C   UNL     1       7.538  26.113  54.684  1.00  0.00     0.027 A 
HETATM   15  C   UNL     1       7.797  22.435  54.138  1.00  0.00    -0.058 A 
HETATM   16  C   UNL     1       7.979  22.024  55.461  1.00  0.00     0.009 A 
BRANCH   8  17
HETATM   17  O   UNL     1       7.885  27.278  58.097  1.00  0.00    -0.344 OA
HETATM   18  H   UNL     1       8.854  27.416  58.061  1.00  0.00     0.219 HD
ENDBRANCH   8  17
BRANCH  15  19
HETATM   19  C   UNL     1       7.759  21.430  53.015  1.00  0.00     0.034 C 
HETATM   20  C   UNL     1       8.796  20.330  53.195  1.00  0.00     0.010 C 
ENDBRANCH  15  19
ENDBRANCH   6   7
ENDBRANCH   1   6
BRANCH   1  21
HETATM   21  C   UNL     1       4.791  28.122  55.471  1.00  0.00     0.129 C 
BRANCH  21  22
HETATM   22  C   UNL     1       4.484  28.349  53.991  1.00  0.00     0.048 C 
BRANCH  22  23
HETATM   23  C   UNL     1       4.541  27.070  53.160  1.00  0.00     0.236 C 
BRANCH  23  24
HETATM   24  N   UNL     1       4.238  27.288  51.692  1.00  0.00    -0.067 N 
HETATM   25  H   UNL     1       3.236  27.141  51.519  1.00  0.00     0.280 HD
HETATM   26  C   UNL     1       4.549  28.742  51.298  1.00  0.00     0.261 C 
HETATM   27  C   UNL     1       4.295  28.953  49.804  1.00  0.00     0.195 C 
HETATM   28  O   UNL     1       5.076  28.044  49.024  1.00  0.00    -0.388 OA
HETATM   29  C   UNL     1       4.734  26.684  49.302  1.00  0.00     0.195 C 
HETATM   30  C   UNL     1       5.009  26.336  50.769  1.00  0.00     0.261 C 
ENDBRANCH  23  24
ENDBRANCH  22  23
ENDBRANCH  21  22
ENDBRANCH   1  21
BRANCH   3  31
HETATM   31  C   UNL     1       4.353  31.576  57.910  1.00  0.00     0.036 A 
HETATM   32  C   UNL     1       4.803  32.841  57.502  1.00  0.00     0.031 A 
HETATM   33  C   UNL     1       4.585  33.969  58.299  1.00  0.00     0.026 A 
HETATM   34  C   UNL     1       3.908  33.839  59.507  1.00  0.00     0.034 A 
HETATM   35 CL   UNL     1       3.657  35.220  60.498  1.00  0.00    -0.084 Cl
HETATM   36  C   UNL     1       3.439  32.593  59.915  1.00  0.00     0.026 A 
HETATM   37  C   UNL     1       3.657  31.465  59.115  1.00  0.00     0.031 A 
ENDBRANCH   3  31
TORSDOF 9
ENDMDL
MODEL 8
REMARK VINA RESULT:      -9.0      3.364      7.429
REMARK  9 active torsions:
REMARK  status: ('A' for Active; 'I' for Inactive)
REMARK    1  A    between atoms: C_2  and  C_3 
REMARK    2  A    between atoms: C_8  and  O_9 
REMARK    3  A    between atoms: C_10  and  C_11 
REMARK    4  A    between atoms: C_11  and  N_12 
REMARK       I    between atoms: N_12  and  C_13 
REMARK    5  A    between atoms: N_12  and  C_23 
REMARK       I    between atoms: C_13  and  N_14 
REMARK    6  A    between atoms: N_14  and  C_15 
REMARK    7  A    between atoms: C_23  and  C_24 
REMARK    8  A    between atoms: C_24  and  C_25 
REMARK    9  A    between atoms: C_25  and  N_26 
ROOT
HETATM    1  N   UNL     1       6.212  27.760  54.166  1.00  0.00    -0.330 N 
HETATM    2  C   UNL     1       5.632  27.816  52.889  1.00  0.00     0.323 C 
HETATM    3  N   UNL     1       6.025  28.918  52.157  1.00  0.00    -0.309 N 
HETATM    4  O   UNL     1       4.805  26.987  52.529  1.00  0.00    -0.247 OA
HETATM    5  H   UNL     1       6.534  29.614  52.665  1.00  0.00     0.170 HD
ENDROOT
BRANCH   1   6
HETATM    6  C   UNL     1       5.519  26.950  55.181  1.00  0.00     0.170 C 
BRANCH   6   7
HETATM    7  C   UNL     1       6.361  25.798  55.661  1.00  0.00     0.013 A 
HETATM    8  C   UNL     1       6.900  25.729  56.930  1.00  0.00     0.170 A 
HETATM    9  N   UNL     1       7.593  24.698  57.442  1.00  0.00    -0.224 NA
HETATM   10  C   UNL     1       7.790  23.629  56.645  1.00  0.00     0.070 A 
HETATM   11  C   UNL     1       7.323  23.588  55.317  1.00  0.00    -0.006 A 
HETATM   12  C   UNL     1       8.470  22.518  57.129  1.00  0.00     0.033 A 
HETATM   13  C   UNL     1       7.558  22.460  54.510  1.00  0.00     0.021 A 
HETATM   14  C   UNL     1       6.612  24.697  54.839  1.00  0.00     0.027 A 
HETATM   15  C   UNL     1       8.244  21.350  55.013  1.00  0.00    -0.058 A 
HETATM   16  C   UNL     1       8.696  21.389  56.334  1.00  0.00     0.009 A 
BRANCH   8  17
HETATM   17  O   UNL     1       6.792  26.749  57.820  1.00  0.00    -0.344 OA
HETATM   18  H   UNL     1       7.722  27.052  57.771  1.00  0.00     0.219 HD
ENDBRANCH   8  17
BRANCH  15  19
HETATM   19  C   UNL     1       8.498  20.144  54.144  1.00  0.00     0.034 C 
HETATM   20  C   UNL     1       8.270  20.442  52.669  1.00  0.00     0.010 C 
ENDBRANCH  15  19
ENDBRANCH   6   7
ENDBRANCH   1   6
BRANCH   1  21
HETATM   21  C   UNL     1       7.579  28.199  54.445  1.00  0.00     0.129 C 
BRANCH  21  22
HETATM   22  C   UNL     1       7.670  29.161  55.629  1.00  0.00     0.048 C 
BRANCH  22  23
HETATM   23  C   UNL     1       8.993  29.064  56.385  1.00  0.00     0.236 C 
BRANCH  23  24
HETATM   24  N   UNL     1       9.005  29.840  57.686  1.00  0.00    -0.067 N 
HETATM   25  H   UNL     1       9.177  29.200  58.471  1.00  0.00     0.280 HD
HETATM   26  C   UNL     1      10.155  30.860  57.683  1.00  0.00     0.261 C 
HETATM   27  C   UNL     1      10.138  31.684  58.972  1.00  0.00     0.195 C 
HETATM   28  O   UNL     1       8.882  32.347  59.133  1.00  0.00    -0.388 OA
HETATM   29  C   UNL     1       7.804  31.413  59.238  1.00  0.00     0.195 C 
HETATM   30  C   UNL     1       7.683  30.567  57.965  1.00  0.00     0.261 C 
ENDBRANCH  23  24
ENDBRANCH  22  23
ENDBRANCH  21  22
ENDBRANCH   1  21
BRANCH   3  31
HETATM   31  C   UNL     1       5.500  29.354  50.922  1.00  0.00     0.036 A 
HETATM   32  C   UNL     1       4.841  30.593  50.917  1.00  0.00     0.031 A 
HETATM   33  C   UNL     1       4.238  31.077  49.752  1.00  0.00     0.026 A 
HETATM   34  C   UNL     1       4.297  30.327  48.583  1.00  0.00     0.034 A 
HETATM   35 CL   UNL     1       3.538  30.910  47.155  1.00  0.00    -0.084 Cl
HETATM   36  C   UNL     1       4.964  29.105  48.568  1.00  0.00     0.026 A 
HETATM   37  C   UNL     1       5.568  28.623  49.735  1.00  0.00     0.031 A 
ENDBRANCH   3  31
TORSDOF 9
ENDMDL
MODEL 9
REMARK VINA RESULT:      -8.8      3.495      6.333
REMARK  9 active torsions:
REMARK  status: ('A' for Active; 'I' for Inactive)
REMARK    1  A    between atoms: C_2  and  C_3 
REMARK    2  A    between atoms: C_8  and  O_9 
REMARK    3  A    between atoms: C_10  and  C_11 
REMARK    4  A    between atoms: C_11  and  N_12 
REMARK       I    between atoms: N_12  and  C_13 
REMARK    5  A    between atoms: N_12  and  C_23 
REMARK       I    between atoms: C_13  and  N_14 
REMARK    6  A    between atoms: N_14  and  C_15 
REMARK    7  A    between atoms: C_23  and  C_24 
REMARK    8  A    between atoms: C_24  and  C_25 
REMARK    9  A    between atoms: C_25  and  N_26 
ROOT
HETATM    1  N   UNL     1       5.779  28.516  55.913  1.00  0.00    -0.330 N 
HETATM    2  C   UNL     1       4.956  29.639  55.730  1.00  0.00     0.323 C 
HETATM    3  N   UNL     1       5.621  30.837  55.897  1.00  0.00    -0.309 N 
HETATM    4  O   UNL     1       3.756  29.521  55.515  1.00  0.00    -0.247 OA
HETATM    5  H   UNL     1       6.544  30.769  56.279  1.00  0.00     0.170 HD
ENDROOT
BRANCH   1   6
HETATM    6  C   UNL     1       5.112  27.246  56.245  1.00  0.00     0.170 C 
BRANCH   6   7
HETATM    7  C   UNL     1       5.592  26.110  55.382  1.00  0.00     0.013 A 
HETATM    8  C   UNL     1       5.269  25.984  54.045  1.00  0.00     0.170 A 
HETATM    9  N   UNL     1       5.726  25.040  53.205  1.00  0.00    -0.224 NA
HETATM   10  C   UNL     1       6.575  24.122  53.709  1.00  0.00     0.070 A 
HETATM   11  C   UNL     1       6.955  24.117  55.065  1.00  0.00    -0.006 A 
HETATM   12  C   UNL     1       7.107  23.141  52.882  1.00  0.00     0.033 A 
HETATM   13  C   UNL     1       7.834  23.136  55.559  1.00  0.00     0.021 A 
HETATM   14  C   UNL     1       6.441  25.124  55.892  1.00  0.00     0.027 A 
HETATM   15  C   UNL     1       8.361  22.156  54.713  1.00  0.00    -0.058 A 
HETATM   16  C   UNL     1       7.991  22.169  53.366  1.00  0.00     0.009 A 
BRANCH   8  17
HETATM   17  O   UNL     1       4.408  26.830  53.425  1.00  0.00    -0.344 OA
HETATM   18  H   UNL     1       3.604  26.568  53.918  1.00  0.00     0.219 HD
ENDBRANCH   8  17
BRANCH  15  19
HETATM   19  C   UNL     1       9.299  21.102  55.246  1.00  0.00     0.034 C 
HETATM   20  C   UNL     1       8.749  20.423  56.492  1.00  0.00     0.010 C 
ENDBRANCH  15  19
ENDBRANCH   6   7
ENDBRANCH   1   6
BRANCH   1  21
HETATM   21  C   UNL     1       7.183  28.476  55.506  1.00  0.00     0.129 C 
BRANCH  21  22
HETATM   22  C   UNL     1       8.137  28.217  56.672  1.00  0.00     0.048 C 
BRANCH  22  23
HETATM   23  C   UNL     1       7.653  28.812  57.992  1.00  0.00     0.236 C 
BRANCH  23  24
HETATM   24  N   UNL     1       8.631  29.789  58.610  1.00  0.00    -0.067 N 
HETATM   25  H   UNL     1       9.129  29.337  59.387  1.00  0.00     0.280 HD
HETATM   26  C   UNL     1       9.695  30.198  57.578  1.00  0.00     0.261 C 
HETATM   27  C   UNL     1      10.654  31.226  58.182  1.00  0.00     0.195 C 
HETATM   28  O   UNL     1       9.940  32.373  58.646  1.00  0.00    -0.388 OA
HETATM   29  C   UNL     1       9.012  32.033  59.679  1.00  0.00     0.195 C 
HETATM   30  C   UNL     1       7.955  31.048  59.168  1.00  0.00     0.261 C 
ENDBRANCH  23  24
ENDBRANCH  22  23
ENDBRANCH  21  22
ENDBRANCH   1  21
BRANCH   3  31
HETATM   31  C   UNL     1       5.053  32.128  55.951  1.00  0.00     0.036 A 
HETATM   32  C   UNL     1       4.869  32.685  57.226  1.00  0.00     0.031 A 
HETATM   33  C   UNL     1       4.259  33.934  57.379  1.00  0.00     0.026 A 
HETATM   34  C   UNL     1       3.836  34.636  56.256  1.00  0.00     0.034 A 
HETATM   35 CL   UNL     1       3.067  36.162  56.443  1.00  0.00    -0.084 Cl
HETATM   36  C   UNL     1       4.030  34.104  54.985  1.00  0.00     0.026 A 
HETATM   37  C   UNL     1       4.642  32.855  54.833  1.00  0.00     0.031 A 
ENDBRANCH   3  31
TORSDOF 9
ENDMDL
MODEL 10
REMARK VINA RESULT:      -8.7      2.219      6.918
REMARK  9 active torsions:
REMARK  status: ('A' for Active; 'I' for Inactive)
REMARK    1  A    between atoms: C_2  and  C_3 
REMARK    2  A    between atoms: C_8  and  O_9 
REMARK    3  A    between atoms: C_10  and  C_11 
REMARK    4  A    between atoms: C_11  and  N_12 
REMARK       I    between atoms: N_12  and  C_13 
REMARK    5  A    between atoms: N_12  and  C_23 
REMARK       I    between atoms: C_13  and  N_14 
REMARK    6  A    between atoms: N_14  and  C_15 
REMARK    7  A    between atoms: C_23  and  C_24 
REMARK    8  A    between atoms: C_24  and  C_25 
REMARK    9  A    between atoms: C_25  and  N_26 
ROOT
HETATM    1  N   UNL     1       6.550  27.005  54.380  1.00  0.00    -0.330 N 
HETATM    2  C   UNL     1       6.800  28.160  55.137  1.00  0.00     0.323 C 
HETATM    3  N   UNL     1       7.893  28.041  55.971  1.00  0.00    -0.309 N 
HETATM    4  O   UNL     1       6.053  29.129  55.086  1.00  0.00    -0.247 OA
HETATM    5  H   UNL     1       8.272  27.119  56.059  1.00  0.00     0.170 HD
ENDROOT
BRANCH   1   6
HETATM    6  C   UNL     1       5.185  26.831  53.855  1.00  0.00     0.170 C 
BRANCH   6   7
HETATM    7  C   UNL     1       5.106  27.103  52.377  1.00  0.00     0.013 A 
HETATM    8  C   UNL     1       4.810  26.132  51.442  1.00  0.00     0.170 A 
HETATM    9  N   UNL     1       4.649  26.325  50.122  1.00  0.00    -0.224 NA
HETATM   10  C   UNL     1       4.797  27.582  49.658  1.00  0.00     0.070 A 
HETATM   11  C   UNL     1       5.136  28.657  50.503  1.00  0.00    -0.006 A 
HETATM   12  C   UNL     1       4.610  27.851  48.308  1.00  0.00     0.033 A 
HETATM   13  C   UNL     1       5.294  29.955  49.983  1.00  0.00     0.021 A 
HETATM   14  C   UNL     1       5.295  28.391  51.869  1.00  0.00     0.027 A 
HETATM   15  C   UNL     1       5.102  30.208  48.621  1.00  0.00    -0.058 A 
HETATM   16  C   UNL     1       4.755  29.142  47.787  1.00  0.00     0.009 A 
BRANCH   8  17
HETATM   17  O   UNL     1       4.660  24.825  51.777  1.00  0.00    -0.344 OA
HETATM   18  H   UNL     1       4.907  24.912  52.720  1.00  0.00     0.219 HD
ENDBRANCH   8  17
BRANCH  15  19
HETATM   19  C   UNL     1       5.277  31.599  48.064  1.00  0.00     0.034 C 
HETATM   20  C   UNL     1       6.111  32.482  48.981  1.00  0.00     0.010 C 
ENDBRANCH  15  19
ENDBRANCH   6   7
ENDBRANCH   1   6
BRANCH   1  21
HETATM   21  C   UNL     1       7.611  26.150  53.848  1.00  0.00     0.129 C 
BRANCH  21  22
HETATM   22  C   UNL     1       7.359  24.662  54.089  1.00  0.00     0.048 C 
BRANCH  22  23
HETATM   23  C   UNL     1       8.262  24.065  55.166  1.00  0.00     0.236 C 
BRANCH  23  24
HETATM   24  N   UNL     1       8.818  22.703  54.802  1.00  0.00    -0.067 N 
HETATM   25  H   UNL     1       9.833  22.770  54.656  1.00  0.00     0.280 HD
HETATM   26  C   UNL     1       8.599  21.716  55.961  1.00  0.00     0.261 C 
HETATM   27  C   UNL     1       9.111  20.325  55.577  1.00  0.00     0.195 C 
HETATM   28  O   UNL     1       8.465  19.857  54.391  1.00  0.00    -0.388 OA
HETATM   29  C   UNL     1       8.735  20.708  53.274  1.00  0.00     0.195 C 
HETATM   30  C   UNL     1       8.205  22.125  53.520  1.00  0.00     0.261 C 
ENDBRANCH  23  24
ENDBRANCH  22  23
ENDBRANCH  21  22
ENDBRANCH   1  21
BRANCH   3  31
HETATM   31  C   UNL     1       8.304  28.945  56.975  1.00  0.00     0.036 A 
HETATM   32  C   UNL     1       9.537  29.586  56.782  1.00  0.00     0.031 A 
HETATM   33  C   UNL     1      10.051  30.453  57.752  1.00  0.00     0.026 A 
HETATM   34  C   UNL     1       9.330  30.689  58.917  1.00  0.00     0.034 A 
HETATM   35 CL   UNL     1       9.970  31.737  60.120  1.00  0.00    -0.084 Cl
HETATM   36  C   UNL     1       8.096  30.075  59.112  1.00  0.00     0.026 A 
HETATM   37  C   UNL     1       7.582  29.209  58.140  1.00  0.00     0.031 A 
ENDBRANCH   3  31
TORSDOF 9
ENDMDL
