MODEL 1
REMARK VINA RESULT:      -9.7      0.000      0.000
REMARK  8 active torsions:
REMARK  status: ('A' for Active; 'I' for Inactive)
REMARK    1  A    between atoms: C_2  and  C_3 
REMARK    2  A    between atoms: C_3  and  C_4 
REMARK    3  A    between atoms: C_4  and  N_5 
REMARK       I    between atoms: N_5  and  C_6 
REMARK    4  A    between atoms: C_6  and  C_7 
REMARK    5  A    between atoms: C_14  and  S_15 
REMARK    6  A    between atoms: S_15  and  N_16 
REMARK    7  A    between atoms: N_16  and  C_17 
REMARK    8  A    between atoms: C_19  and  O_20 
ROOT
HETATM    1  C   UNL     1       9.101  30.490  58.190  1.00  0.00     0.098 C 
HETATM    2  C   UNL     1       7.772  30.072  57.662  1.00  0.00     0.201 C 
HETATM    3  O   UNL     1       6.732  30.300  58.276  1.00  0.00    -0.286 OA
HETATM    4  C   UNL     1       7.737  29.345  56.363  1.00  0.00     0.043 A 
HETATM    5  C   UNL     1       8.938  29.188  55.644  1.00  0.00     0.046 A 
HETATM    6  N   UNL     1      10.122  29.760  56.127  1.00  0.00    -0.364 N 
HETATM    7  C   UNL     1       6.537  28.809  55.882  1.00  0.00     0.043 A 
HETATM    8  C   UNL     1       6.541  28.134  54.658  1.00  0.00     0.081 A 
HETATM    9  C   UNL     1       7.726  27.982  53.928  1.00  0.00     0.027 A 
HETATM   10  C   UNL     1       8.918  28.524  54.415  1.00  0.00     0.032 A 
HETATM   11  C   UNL     1      10.163  30.299  57.389  1.00  0.00     0.109 C 
HETATM   12  H   UNL     1      11.004  29.452  55.726  1.00  0.00     0.165 HD
ENDROOT
BRANCH   8  13
HETATM   13  S   UNL     1       5.042  27.402  54.033  1.00  0.00     0.263 S 
HETATM   14  O   UNL     1       3.945  28.222  54.504  1.00  0.00    -0.200 OA
HETATM   15  O   UNL     1       5.227  27.130  52.626  1.00  0.00    -0.200 OA
BRANCH  13  16
HETATM   16  N   UNL     1       4.948  25.951  54.892  1.00  0.00    -0.281 N 
HETATM   17  H   UNL     1       4.396  26.034  55.743  1.00  0.00     0.179 HD
BRANCH  16  18
HETATM   18  C   UNL     1       6.084  25.097  54.913  1.00  0.00     0.045 A 
HETATM   19  C   UNL     1       6.393  24.324  53.792  1.00  0.00     0.066 A 
HETATM   20  C   UNL     1       7.472  23.439  53.842  1.00  0.00     0.070 A 
HETATM   21  C   UNL     1       8.259  23.371  54.993  1.00  0.00     0.037 A 
HETATM   22  C   UNL     1       7.943  24.140  56.113  1.00  0.00     0.005 A 
HETATM   23  C   UNL     1       6.843  24.993  56.078  1.00  0.00     0.030 A 
BRANCH  20  24
HETATM   24  O   UNL     1       7.863  22.621  52.818  1.00  0.00    -0.356 OA
HETATM   25  C   UNL     1       7.932  21.234  53.134  1.00  0.00     0.210 C 
ENDBRANCH  20  24
ENDBRANCH  16  18
ENDBRANCH  13  16
ENDBRANCH   8  13
BRANCH   1  26
HETATM   26  C   UNL     1       9.339  31.060  59.546  1.00  0.00     0.257 C 
HETATM   27  N   UNL     1       8.890  30.296  60.594  1.00  0.00    -0.357 N 
HETATM   28  H   UNL     1       8.492  29.381  60.381  1.00  0.00     0.162 HD
HETATM   29  O   UNL     1       9.917  32.134  59.694  1.00  0.00    -0.267 OA
BRANCH  27  30
HETATM   30  C   UNL     1       9.195  30.607  61.976  1.00  0.00     0.123 C 
BRANCH  30  31
HETATM   31  C   UNL     1       7.983  31.122  62.754  1.00  0.00     0.023 C 
BRANCH  31  32
HETATM   32  C   UNL     1       7.983  32.654  62.911  1.00  0.00    -0.021 C 
HETATM   33  C   UNL     1       7.558  33.089  64.314  1.00  0.00     0.009 C 
HETATM   34  C   UNL     1       7.057  33.291  61.871  1.00  0.00     0.009 C 
ENDBRANCH  31  32
ENDBRANCH  30  31
ENDBRANCH  27  30
ENDBRANCH   1  26
TORSDOF 8
ENDMDL
MODEL 2
REMARK VINA RESULT:      -9.5      2.715      9.995
REMARK  8 active torsions:
REMARK  status: ('A' for Active; 'I' for Inactive)
REMARK    1  A    between atoms: C_2  and  C_3 
REMARK    2  A    between atoms: C_3  and  C_4 
REMARK    3  A    between atoms: C_4  and  N_5 
REMARK       I    between atoms: N_5  and  C_6 
REMARK    4  A    between atoms: C_6  and  C_7 
REMARK    5  A    between atoms: C_14  and  S_15 
REMARK    6  A    between atoms: S_15  and  N_16 
REMARK    7  A    between atoms: N_16  and  C_17 
REMARK    8  A    between atoms: C_19  and  O_20 
ROOT
HETATM    1  C   UNL     1       6.789  26.491  56.040  1.00  0.00     0.098 C 
HETATM    2  C   UNL     1       7.610  27.272  57.007  1.00  0.00     0.201 C 
HETATM    3  O   UNL     1       8.625  26.804  57.518  1.00  0.00    -0.286 OA
HETATM    4  C   UNL     1       7.153  28.645  57.359  1.00  0.00     0.043 A 
HETATM    5  C   UNL     1       6.040  29.180  56.681  1.00  0.00     0.046 A 
HETATM    6  N   UNL     1       5.423  28.447  55.659  1.00  0.00    -0.364 N 
HETATM    7  C   UNL     1       7.804  29.375  58.360  1.00  0.00     0.043 A 
HETATM    8  C   UNL     1       7.348  30.660  58.663  1.00  0.00     0.081 A 
HETATM    9  C   UNL     1       6.252  31.210  57.988  1.00  0.00     0.027 A 
HETATM   10  C   UNL     1       5.611  30.474  56.988  1.00  0.00     0.032 A 
HETATM   11  C   UNL     1       5.767  27.134  55.451  1.00  0.00     0.109 C 
HETATM   12  H   UNL     1       4.503  28.741  55.344  1.00  0.00     0.165 HD
ENDROOT
BRANCH   8  13
HETATM   13  S   UNL     1       8.124  31.604  59.960  1.00  0.00     0.263 S 
HETATM   14  O   UNL     1       9.537  31.289  59.922  1.00  0.00    -0.200 OA
HETATM   15  O   UNL     1       7.655  32.968  59.866  1.00  0.00    -0.200 OA
BRANCH  13  16
HETATM   16  N   UNL     1       7.517  30.883  61.361  1.00  0.00    -0.281 N 
HETATM   17  H   UNL     1       6.916  30.086  61.163  1.00  0.00     0.179 HD
BRANCH  16  18
HETATM   18  C   UNL     1       7.183  31.713  62.465  1.00  0.00     0.045 A 
HETATM   19  C   UNL     1       5.842  31.938  62.783  1.00  0.00     0.066 A 
HETATM   20  C   UNL     1       5.518  32.805  63.829  1.00  0.00     0.070 A 
HETATM   21  C   UNL     1       6.538  33.399  64.576  1.00  0.00     0.037 A 
HETATM   22  C   UNL     1       7.875  33.176  64.251  1.00  0.00     0.005 A 
HETATM   23  C   UNL     1       8.198  32.343  63.183  1.00  0.00     0.030 A 
BRANCH  20  24
HETATM   24  O   UNL     1       4.247  33.118  64.223  1.00  0.00    -0.356 OA
HETATM   25  C   UNL     1       4.148  34.066  65.282  1.00  0.00     0.210 C 
ENDBRANCH  20  24
ENDBRANCH  16  18
ENDBRANCH  13  16
ENDBRANCH   8  13
BRANCH   1  26
HETATM   26  C   UNL     1       6.993  25.051  55.714  1.00  0.00     0.257 C 
HETATM   27  N   UNL     1       8.293  24.614  55.767  1.00  0.00    -0.357 N 
HETATM   28  H   UNL     1       9.005  25.273  56.082  1.00  0.00     0.162 HD
HETATM   29  O   UNL     1       6.046  24.319  55.439  1.00  0.00    -0.267 OA
BRANCH  27  30
HETATM   30  C   UNL     1       8.651  23.215  55.659  1.00  0.00     0.123 C 
BRANCH  30  31
HETATM   31  C   UNL     1       8.590  22.692  54.221  1.00  0.00     0.023 C 
BRANCH  31  32
HETATM   32  C   UNL     1       7.909  21.314  54.118  1.00  0.00    -0.021 C 
HETATM   33  C   UNL     1       8.198  20.438  55.338  1.00  0.00     0.009 C 
HETATM   34  C   UNL     1       8.364  20.595  52.847  1.00  0.00     0.009 C 
ENDBRANCH  31  32
ENDBRANCH  30  31
ENDBRANCH  27  30
ENDBRANCH   1  26
TORSDOF 8
ENDMDL
MODEL 3
REMARK VINA RESULT:      -9.3      1.830      2.470
REMARK  8 active torsions:
REMARK  status: ('A' for Active; 'I' for Inactive)
REMARK    1  A    between atoms: C_2  and  C_3 
REMARK    2  A    between atoms: C_3  and  C_4 
REMARK    3  A    between atoms: C_4  and  N_5 
REMARK       I    between atoms: N_5  and  C_6 
REMARK    4  A    between atoms: C_6  and  C_7 
REMARK    5  A    between atoms: C_14  and  S_15 
REMARK    6  A    between atoms: S_15  and  N_16 
REMARK    7  A    between atoms: N_16  and  C_17 
REMARK    8  A    between atoms: C_19  and  O_20 
ROOT
HETATM    1  C   UNL     1       7.151  30.944  58.397  1.00  0.00     0.098 C 
HETATM    2  C   UNL     1       7.425  29.676  57.663  1.00  0.00     0.201 C 
HETATM    3  O   UNL     1       8.291  28.888  58.036  1.00  0.00    -0.286 OA
HETATM    4  C   UNL     1       6.625  29.393  56.439  1.00  0.00     0.043 A 
HETATM    5  C   UNL     1       5.579  30.272  56.098  1.00  0.00     0.046 A 
HETATM    6  N   UNL     1       5.272  31.353  56.935  1.00  0.00    -0.364 N 
HETATM    7  C   UNL     1       6.927  28.288  55.634  1.00  0.00     0.043 A 
HETATM    8  C   UNL     1       6.154  28.054  54.493  1.00  0.00     0.081 A 
HETATM    9  C   UNL     1       5.103  28.912  54.150  1.00  0.00     0.027 A 
HETATM   10  C   UNL     1       4.808  30.009  54.963  1.00  0.00     0.032 A 
HETATM   11  C   UNL     1       6.107  31.677  57.975  1.00  0.00     0.109 C 
HETATM   12  H   UNL     1       4.679  32.092  56.569  1.00  0.00     0.165 HD
ENDROOT
BRANCH   8  13
HETATM   13  S   UNL     1       6.534  26.683  53.420  1.00  0.00     0.263 S 
HETATM   14  O   UNL     1       5.662  26.796  52.269  1.00  0.00    -0.200 OA
HETATM   15  O   UNL     1       7.970  26.612  53.272  1.00  0.00    -0.200 OA
BRANCH  13  16
HETATM   16  N   UNL     1       5.981  25.353  54.302  1.00  0.00    -0.281 N 
HETATM   17  H   UNL     1       5.537  25.621  55.178  1.00  0.00     0.179 HD
BRANCH  16  18
HETATM   18  C   UNL     1       6.745  24.155  54.281  1.00  0.00     0.045 A 
HETATM   19  C   UNL     1       7.261  23.639  55.471  1.00  0.00     0.066 A 
HETATM   20  C   UNL     1       8.064  22.497  55.436  1.00  0.00     0.070 A 
HETATM   21  C   UNL     1       8.303  21.857  54.219  1.00  0.00     0.037 A 
HETATM   22  C   UNL     1       7.791  22.379  53.031  1.00  0.00     0.005 A 
HETATM   23  C   UNL     1       7.023  23.540  53.061  1.00  0.00     0.030 A 
BRANCH  20  24
HETATM   24  O   UNL     1       8.638  21.909  56.529  1.00  0.00    -0.356 OA
HETATM   25  C   UNL     1       8.873  20.508  56.419  1.00  0.00     0.210 C 
ENDBRANCH  20  24
ENDBRANCH  16  18
ENDBRANCH  13  16
ENDBRANCH   8  13
BRANCH   1  26
HETATM   26  C   UNL     1       7.969  31.470  59.525  1.00  0.00     0.257 C 
HETATM   27  N   UNL     1       7.844  30.791  60.711  1.00  0.00    -0.357 N 
HETATM   28  H   UNL     1       7.263  29.952  60.721  1.00  0.00     0.162 HD
HETATM   29  O   UNL     1       8.713  32.436  59.377  1.00  0.00    -0.267 OA
BRANCH  27  30
HETATM   30  C   UNL     1       8.695  31.051  61.854  1.00  0.00     0.123 C 
BRANCH  30  31
HETATM   31  C   UNL     1       7.909  31.434  63.109  1.00  0.00     0.023 C 
BRANCH  31  32
HETATM   32  C   UNL     1       7.791  32.959  63.295  1.00  0.00    -0.021 C 
HETATM   33  C   UNL     1       7.450  33.338  64.737  1.00  0.00     0.009 C 
HETATM   34  C   UNL     1       6.730  33.525  62.348  1.00  0.00     0.009 C 
ENDBRANCH  31  32
ENDBRANCH  30  31
ENDBRANCH  27  30
ENDBRANCH   1  26
TORSDOF 8
ENDMDL
MODEL 4
REMARK VINA RESULT:      -8.9      2.588      9.783
REMARK  8 active torsions:
REMARK  status: ('A' for Active; 'I' for Inactive)
REMARK    1  A    between atoms: C_2  and  C_3 
REMARK    2  A    between atoms: C_3  and  C_4 
REMARK    3  A    between atoms: C_4  and  N_5 
REMARK       I    between atoms: N_5  and  C_6 
REMARK    4  A    between atoms: C_6  and  C_7 
REMARK    5  A    between atoms: C_14  and  S_15 
REMARK    6  A    between atoms: S_15  and  N_16 
REMARK    7  A    between atoms: N_16  and  C_17 
REMARK    8  A    between atoms: C_19  and  O_20 
ROOT
HETATM    1  C   UNL     1       7.644  28.064  55.478  1.00  0.00     0.098 C 
HETATM    2  C   UNL     1       7.562  28.280  56.950  1.00  0.00     0.201 C 
HETATM    3  O   UNL     1       6.736  27.693  57.645  1.00  0.00    -0.286 OA
HETATM    4  C   UNL     1       8.506  29.255  57.564  1.00  0.00     0.043 A 
HETATM    5  C   UNL     1       9.500  29.836  56.753  1.00  0.00     0.046 A 
HETATM    6  N   UNL     1       9.621  29.451  55.411  1.00  0.00    -0.364 N 
HETATM    7  C   UNL     1       8.389  29.601  58.916  1.00  0.00     0.043 A 
HETATM    8  C   UNL     1       9.294  30.517  59.458  1.00  0.00     0.081 A 
HETATM    9  C   UNL     1      10.294  31.093  58.666  1.00  0.00     0.027 A 
HETATM   10  C   UNL     1      10.404  30.738  57.319  1.00  0.00     0.032 A 
HETATM   11  C   UNL     1       8.656  28.665  54.830  1.00  0.00     0.109 C 
HETATM   12  H   UNL     1      10.180  30.032  54.792  1.00  0.00     0.165 HD
ENDROOT
BRANCH   8  13
HETATM   13  S   UNL     1       9.151  31.015  61.164  1.00  0.00     0.263 S 
HETATM   14  O   UNL     1       9.600  29.897  61.967  1.00  0.00    -0.200 OA
HETATM   15  O   UNL     1       9.745  32.326  61.300  1.00  0.00    -0.200 OA
BRANCH  13  16
HETATM   16  N   UNL     1       7.480  31.115  61.385  1.00  0.00    -0.281 N 
HETATM   17  H   UNL     1       6.970  31.162  60.506  1.00  0.00     0.179 HD
BRANCH  16  18
HETATM   18  C   UNL     1       6.982  31.862  62.486  1.00  0.00     0.045 A 
HETATM   19  C   UNL     1       5.611  32.107  62.597  1.00  0.00     0.066 A 
HETATM   20  C   UNL     1       5.135  32.895  63.645  1.00  0.00     0.070 A 
HETATM   21  C   UNL     1       6.026  33.391  64.600  1.00  0.00     0.037 A 
HETATM   22  C   UNL     1       7.394  33.149  64.483  1.00  0.00     0.005 A 
HETATM   23  C   UNL     1       7.875  32.396  63.414  1.00  0.00     0.030 A 
BRANCH  20  24
HETATM   24  O   UNL     1       3.821  33.217  63.850  1.00  0.00    -0.356 OA
HETATM   25  C   UNL     1       3.509  34.604  63.761  1.00  0.00     0.210 C 
ENDBRANCH  20  24
ENDBRANCH  16  18
ENDBRANCH  13  16
ENDBRANCH   8  13
BRANCH   1  26
HETATM   26  C   UNL     1       6.669  27.272  54.677  1.00  0.00     0.257 C 
HETATM   27  N   UNL     1       7.194  26.194  54.009  1.00  0.00    -0.357 N 
HETATM   28  H   UNL     1       8.180  25.976  54.155  1.00  0.00     0.162 HD
HETATM   29  O   UNL     1       5.478  27.569  54.646  1.00  0.00    -0.267 OA
BRANCH  27  30
HETATM   30  C   UNL     1       6.367  25.215  53.333  1.00  0.00     0.123 C 
BRANCH  30  31
HETATM   31  C   UNL     1       6.533  23.802  53.896  1.00  0.00     0.023 C 
BRANCH  31  32
HETATM   32  C   UNL     1       7.967  23.263  53.736  1.00  0.00    -0.021 C 
HETATM   33  C   UNL     1       7.998  21.920  53.005  1.00  0.00     0.009 C 
HETATM   34  C   UNL     1       8.632  23.119  55.107  1.00  0.00     0.009 C 
ENDBRANCH  31  32
ENDBRANCH  30  31
ENDBRANCH  27  30
ENDBRANCH   1  26
TORSDOF 8
ENDMDL
MODEL 5
REMARK VINA RESULT:      -8.9      2.666     10.040
REMARK  8 active torsions:
REMARK  status: ('A' for Active; 'I' for Inactive)
REMARK    1  A    between atoms: C_2  and  C_3 
REMARK    2  A    between atoms: C_3  and  C_4 
REMARK    3  A    between atoms: C_4  and  N_5 
REMARK       I    between atoms: N_5  and  C_6 
REMARK    4  A    between atoms: C_6  and  C_7 
REMARK    5  A    between atoms: C_14  and  S_15 
REMARK    6  A    between atoms: S_15  and  N_16 
REMARK    7  A    between atoms: N_16  and  C_17 
REMARK    8  A    between atoms: C_19  and  O_20 
ROOT
HETATM    1  C   UNL     1       6.407  28.023  55.102  1.00  0.00     0.098 C 
HETATM    2  C   UNL     1       7.315  28.325  56.244  1.00  0.00     0.201 C 
HETATM    3  O   UNL     1       8.255  27.588  56.534  1.00  0.00    -0.286 OA
HETATM    4  C   UNL     1       7.038  29.547  57.049  1.00  0.00     0.043 A 
HETATM    5  C   UNL     1       6.012  30.414  56.627  1.00  0.00     0.046 A 
HETATM    6  N   UNL     1       5.313  30.149  55.442  1.00  0.00    -0.364 N 
HETATM    7  C   UNL     1       7.770  29.812  58.212  1.00  0.00     0.043 A 
HETATM    8  C   UNL     1       7.484  30.969  58.941  1.00  0.00     0.081 A 
HETATM    9  C   UNL     1       6.475  31.847  58.526  1.00  0.00     0.027 A 
HETATM   10  C   UNL     1       5.753  31.575  57.361  1.00  0.00     0.032 A 
HETATM   11  C   UNL     1       5.484  28.949  54.797  1.00  0.00     0.109 C 
HETATM   12  H   UNL     1       4.443  30.646  55.275  1.00  0.00     0.165 HD
ENDROOT
BRANCH   8  13
HETATM   13  S   UNL     1       8.365  31.319  60.450  1.00  0.00     0.263 S 
HETATM   14  O   UNL     1       9.281  30.219  60.666  1.00  0.00    -0.200 OA
HETATM   15  O   UNL     1       8.832  32.686  60.392  1.00  0.00    -0.200 OA
BRANCH  13  16
HETATM   16  N   UNL     1       7.164  31.171  61.627  1.00  0.00    -0.281 N 
HETATM   17  H   UNL     1       6.358  30.641  61.300  1.00  0.00     0.179 HD
BRANCH  16  18
HETATM   18  C   UNL     1       6.933  32.262  62.506  1.00  0.00     0.045 A 
HETATM   19  C   UNL     1       5.965  33.218  62.188  1.00  0.00     0.066 A 
HETATM   20  C   UNL     1       5.788  34.323  63.024  1.00  0.00     0.070 A 
HETATM   21  C   UNL     1       6.544  34.435  64.193  1.00  0.00     0.037 A 
HETATM   22  C   UNL     1       7.512  33.482  64.504  1.00  0.00     0.005 A 
HETATM   23  C   UNL     1       7.718  32.401  63.650  1.00  0.00     0.030 A 
BRANCH  20  24
HETATM   24  O   UNL     1       4.887  35.330  62.811  1.00  0.00    -0.356 OA
HETATM   25  C   UNL     1       3.851  35.441  63.781  1.00  0.00     0.210 C 
ENDBRANCH  20  24
ENDBRANCH  16  18
ENDBRANCH  13  16
ENDBRANCH   8  13
BRANCH   1  26
HETATM   26  C   UNL     1       6.424  26.761  54.309  1.00  0.00     0.257 C 
HETATM   27  N   UNL     1       6.635  25.614  55.033  1.00  0.00    -0.357 N 
HETATM   28  H   UNL     1       6.698  25.694  56.048  1.00  0.00     0.162 HD
HETATM   29  O   UNL     1       6.241  26.768  53.095  1.00  0.00    -0.267 OA
BRANCH  27  30
HETATM   30  C   UNL     1       6.503  24.291  54.456  1.00  0.00     0.123 C 
BRANCH  30  31
HETATM   31  C   UNL     1       7.254  23.217  55.246  1.00  0.00     0.023 C 
BRANCH  31  32
HETATM   32  C   UNL     1       8.157  22.344  54.354  1.00  0.00    -0.021 C 
HETATM   33  C   UNL     1       7.950  22.637  52.867  1.00  0.00     0.009 C 
HETATM   34  C   UNL     1       7.895  20.862  54.629  1.00  0.00     0.009 C 
ENDBRANCH  31  32
ENDBRANCH  30  31
ENDBRANCH  27  30
ENDBRANCH   1  26
TORSDOF 8
ENDMDL
MODEL 6
REMARK VINA RESULT:      -8.7      3.223     10.319
REMARK  8 active torsions:
REMARK  status: ('A' for Active; 'I' for Inactive)
REMARK    1  A    between atoms: C_2  and  C_3 
REMARK    2  A    between atoms: C_3  and  C_4 
REMARK    3  A    between atoms: C_4  and  N_5 
REMARK       I    between atoms: N_5  and  C_6 
REMARK    4  A    between atoms: C_6  and  C_7 
REMARK    5  A    between atoms: C_14  and  S_15 
REMARK    6  A    between atoms: S_15  and  N_16 
REMARK    7  A    between atoms: N_16  and  C_17 
REMARK    8  A    between atoms: C_19  and  O_20 
ROOT
HETATM    1  C   UNL     1       8.054  28.924  56.364  1.00  0.00     0.098 C 
HETATM    2  C   UNL     1       7.076  29.501  57.329  1.00  0.00     0.201 C 
HETATM    3  O   UNL     1       5.885  29.199  57.300  1.00  0.00    -0.286 OA
HETATM    4  C   UNL     1       7.581  30.482  58.329  1.00  0.00     0.043 A 
HETATM    5  C   UNL     1       8.966  30.730  58.392  1.00  0.00     0.046 A 
HETATM    6  N   UNL     1       9.843  30.017  57.563  1.00  0.00    -0.364 N 
HETATM    7  C   UNL     1       6.691  31.159  59.171  1.00  0.00     0.043 A 
HETATM    8  C   UNL     1       7.201  32.072  60.098  1.00  0.00     0.081 A 
HETATM    9  C   UNL     1       8.577  32.318  60.180  1.00  0.00     0.027 A 
HETATM   10  C   UNL     1       9.457  31.634  59.338  1.00  0.00     0.032 A 
HETATM   11  C   UNL     1       9.349  29.228  56.555  1.00  0.00     0.109 C 
HETATM   12  H   UNL     1      10.794  30.362  57.459  1.00  0.00     0.165 HD
ENDROOT
BRANCH   8  13
HETATM   13  S   UNL     1       6.097  32.985  61.158  1.00  0.00     0.263 S 
HETATM   14  O   UNL     1       6.754  34.236  61.471  1.00  0.00    -0.200 OA
HETATM   15  O   UNL     1       4.779  32.955  60.566  1.00  0.00    -0.200 OA
BRANCH  13  16
HETATM   16  N   UNL     1       6.109  32.077  62.581  1.00  0.00    -0.281 N 
HETATM   17  H   UNL     1       5.594  31.203  62.493  1.00  0.00     0.179 HD
BRANCH  16  18
HETATM   18  C   UNL     1       6.057  32.759  63.826  1.00  0.00     0.045 A 
HETATM   19  C   UNL     1       4.827  33.185  64.334  1.00  0.00     0.066 A 
HETATM   20  C   UNL     1       4.789  33.912  65.526  1.00  0.00     0.070 A 
HETATM   21  C   UNL     1       5.973  34.163  66.222  1.00  0.00     0.037 A 
HETATM   22  C   UNL     1       7.199  33.741  65.708  1.00  0.00     0.005 A 
HETATM   23  C   UNL     1       7.242  33.052  64.499  1.00  0.00     0.030 A 
BRANCH  20  24
HETATM   24  O   UNL     1       3.652  34.395  66.113  1.00  0.00    -0.356 OA
HETATM   25  C   UNL     1       3.705  35.758  66.521  1.00  0.00     0.210 C 
ENDBRANCH  20  24
ENDBRANCH  16  18
ENDBRANCH  13  16
ENDBRANCH   8  13
BRANCH   1  26
HETATM   26  C   UNL     1       7.697  28.075  55.192  1.00  0.00     0.257 C 
HETATM   27  N   UNL     1       6.807  27.063  55.447  1.00  0.00    -0.357 N 
HETATM   28  H   UNL     1       6.409  27.002  56.385  1.00  0.00     0.162 HD
HETATM   29  O   UNL     1       8.165  28.297  54.079  1.00  0.00    -0.267 OA
BRANCH  27  30
HETATM   30  C   UNL     1       6.214  26.261  54.397  1.00  0.00     0.123 C 
BRANCH  30  31
HETATM   31  C   UNL     1       6.616  24.786  54.472  1.00  0.00     0.023 C 
BRANCH  31  32
HETATM   32  C   UNL     1       7.937  24.491  53.736  1.00  0.00    -0.021 C 
HETATM   33  C   UNL     1       7.893  24.944  52.276  1.00  0.00     0.009 C 
HETATM   34  C   UNL     1       8.255  22.996  53.802  1.00  0.00     0.009 C 
ENDBRANCH  31  32
ENDBRANCH  30  31
ENDBRANCH  27  30
ENDBRANCH   1  26
TORSDOF 8
ENDMDL
MODEL 7
REMARK VINA RESULT:      -8.5      2.564      9.971
REMARK  8 active torsions:
REMARK  status: ('A' for Active; 'I' for Inactive)
REMARK    1  A    between atoms: C_2  and  C_3 
REMARK    2  A    between atoms: C_3  and  C_4 
REMARK    3  A    between atoms: C_4  and  N_5 
REMARK       I    between atoms: N_5  and  C_6 
REMARK    4  A    between atoms: C_6  and  C_7 
REMARK    5  A    between atoms: C_14  and  S_15 
REMARK    6  A    between atoms: S_15  and  N_16 
REMARK    7  A    between atoms: N_16  and  C_17 
REMARK    8  A    between atoms: C_19  and  O_20 
ROOT
HETATM    1  C   UNL     1       6.395  27.939  54.227  1.00  0.00     0.098 C 
HETATM    2  C   UNL     1       7.413  28.493  55.163  1.00  0.00     0.201 C 
HETATM    3  O   UNL     1       8.603  28.202  55.069  1.00  0.00    -0.286 OA
HETATM    4  C   UNL     1       6.943  29.404  56.243  1.00  0.00     0.043 A 
HETATM    5  C   UNL     1       5.588  29.788  56.260  1.00  0.00     0.046 A 
HETATM    6  N   UNL     1       4.727  29.360  55.241  1.00  0.00    -0.364 N 
HETATM    7  C   UNL     1       7.828  29.848  57.233  1.00  0.00     0.043 A 
HETATM    8  C   UNL     1       7.352  30.703  58.230  1.00  0.00     0.081 A 
HETATM    9  C   UNL     1       6.010  31.103  58.251  1.00  0.00     0.027 A 
HETATM   10  C   UNL     1       5.136  30.658  57.256  1.00  0.00     0.032 A 
HETATM   11  C   UNL     1       5.142  28.410  54.342  1.00  0.00     0.109 C 
HETATM   12  H   UNL     1       3.725  29.454  55.387  1.00  0.00     0.165 HD
ENDROOT
BRANCH   8  13
HETATM   13  S   UNL     1       8.437  31.255  59.531  1.00  0.00     0.263 S 
HETATM   14  O   UNL     1       9.586  30.374  59.522  1.00  0.00    -0.200 OA
HETATM   15  O   UNL     1       8.587  32.687  59.415  1.00  0.00    -0.200 OA
BRANCH  13  16
HETATM   16  N   UNL     1       7.566  30.880  60.929  1.00  0.00    -0.281 N 
HETATM   17  H   UNL     1       6.986  30.050  60.818  1.00  0.00     0.179 HD
BRANCH  16  18
HETATM   18  C   UNL     1       7.065  31.943  61.726  1.00  0.00     0.045 A 
HETATM   19  C   UNL     1       7.678  32.248  62.943  1.00  0.00     0.066 A 
HETATM   20  C   UNL     1       7.141  33.252  63.752  1.00  0.00     0.070 A 
HETATM   21  C   UNL     1       6.027  33.973  63.314  1.00  0.00     0.037 A 
HETATM   22  C   UNL     1       5.415  33.661  62.101  1.00  0.00     0.005 A 
HETATM   23  C   UNL     1       5.926  32.633  61.312  1.00  0.00     0.030 A 
BRANCH  20  24
HETATM   24  O   UNL     1       7.640  33.629  64.968  1.00  0.00    -0.356 OA
HETATM   25  C   UNL     1       6.668  33.993  65.943  1.00  0.00     0.210 C 
ENDBRANCH  20  24
ENDBRANCH  16  18
ENDBRANCH  13  16
ENDBRANCH   8  13
BRANCH   1  26
HETATM   26  C   UNL     1       6.657  26.881  53.211  1.00  0.00     0.257 C 
HETATM   27  N   UNL     1       7.427  25.830  53.640  1.00  0.00    -0.357 N 
HETATM   28  H   UNL     1       7.707  25.813  54.621  1.00  0.00     0.162 HD
HETATM   29  O   UNL     1       6.189  26.956  52.077  1.00  0.00    -0.267 OA
BRANCH  27  30
HETATM   30  C   UNL     1       7.630  24.635  52.846  1.00  0.00     0.123 C 
BRANCH  30  31
HETATM   31  C   UNL     1       7.323  23.348  53.617  1.00  0.00     0.023 C 
BRANCH  31  32
HETATM   32  C   UNL     1       8.448  22.302  53.497  1.00  0.00    -0.021 C 
HETATM   33  C   UNL     1       7.913  20.929  53.087  1.00  0.00     0.009 C 
HETATM   34  C   UNL     1       9.203  22.186  54.823  1.00  0.00     0.009 C 
ENDBRANCH  31  32
ENDBRANCH  30  31
ENDBRANCH  27  30
ENDBRANCH   1  26
TORSDOF 8
ENDMDL
MODEL 8
REMARK VINA RESULT:      -8.5      3.115     10.101
REMARK  8 active torsions:
REMARK  status: ('A' for Active; 'I' for Inactive)
REMARK    1  A    between atoms: C_2  and  C_3 
REMARK    2  A    between atoms: C_3  and  C_4 
REMARK    3  A    between atoms: C_4  and  N_5 
REMARK       I    between atoms: N_5  and  C_6 
REMARK    4  A    between atoms: C_6  and  C_7 
REMARK    5  A    between atoms: C_14  and  S_15 
REMARK    6  A    between atoms: S_15  and  N_16 
REMARK    7  A    between atoms: N_16  and  C_17 
REMARK    8  A    between atoms: C_19  and  O_20 
ROOT
HETATM    1  C   UNL     1       6.866  26.390  56.509  1.00  0.00     0.098 C 
HETATM    2  C   UNL     1       7.337  27.630  57.188  1.00  0.00     0.201 C 
HETATM    3  O   UNL     1       8.479  27.731  57.631  1.00  0.00    -0.286 OA
HETATM    4  C   UNL     1       6.369  28.753  57.337  1.00  0.00     0.043 A 
HETATM    5  C   UNL     1       5.102  28.636  56.733  1.00  0.00     0.046 A 
HETATM    6  N   UNL     1       4.795  27.506  55.964  1.00  0.00    -0.364 N 
HETATM    7  C   UNL     1       6.708  29.888  58.082  1.00  0.00     0.043 A 
HETATM    8  C   UNL     1       5.776  30.922  58.199  1.00  0.00     0.081 A 
HETATM    9  C   UNL     1       4.517  30.824  57.593  1.00  0.00     0.027 A 
HETATM   10  C   UNL     1       4.190  29.689  56.848  1.00  0.00     0.032 A 
HETATM   11  C   UNL     1       5.641  26.425  55.959  1.00  0.00     0.109 C 
HETATM   12  H   UNL     1       3.821  27.333  55.730  1.00  0.00     0.165 HD
ENDROOT
BRANCH   8  13
HETATM   13  S   UNL     1       6.154  32.365  59.175  1.00  0.00     0.263 S 
HETATM   14  O   UNL     1       7.597  32.434  59.280  1.00  0.00    -0.200 OA
HETATM   15  O   UNL     1       5.384  33.472  58.657  1.00  0.00    -0.200 OA
BRANCH  13  16
HETATM   16  N   UNL     1       5.590  31.938  60.707  1.00  0.00    -0.281 N 
HETATM   17  H   UNL     1       4.585  31.777  60.724  1.00  0.00     0.179 HD
BRANCH  16  18
HETATM   18  C   UNL     1       6.188  32.540  61.847  1.00  0.00     0.045 A 
HETATM   19  C   UNL     1       5.771  33.807  62.262  1.00  0.00     0.066 A 
HETATM   20  C   UNL     1       6.407  34.421  63.343  1.00  0.00     0.070 A 
HETATM   21  C   UNL     1       7.419  33.744  64.027  1.00  0.00     0.037 A 
HETATM   22  C   UNL     1       7.835  32.481  63.606  1.00  0.00     0.005 A 
HETATM   23  C   UNL     1       7.229  31.885  62.503  1.00  0.00     0.030 A 
BRANCH  20  24
HETATM   24  O   UNL     1       6.101  35.662  63.831  1.00  0.00    -0.356 OA
HETATM   25  C   UNL     1       4.774  35.815  64.326  1.00  0.00     0.210 C 
ENDBRANCH  20  24
ENDBRANCH  16  18
ENDBRANCH  13  16
ENDBRANCH   8  13
BRANCH   1  26
HETATM   26  C   UNL     1       7.633  25.115  56.435  1.00  0.00     0.257 C 
HETATM   27  N   UNL     1       7.711  24.546  55.188  1.00  0.00    -0.357 N 
HETATM   28  H   UNL     1       7.303  25.057  54.405  1.00  0.00     0.162 HD
HETATM   29  O   UNL     1       8.168  24.633  57.430  1.00  0.00    -0.267 OA
BRANCH  27  30
HETATM   30  C   UNL     1       8.562  23.410  54.900  1.00  0.00     0.123 C 
BRANCH  30  31
HETATM   31  C   UNL     1       7.775  22.161  54.496  1.00  0.00     0.023 C 
BRANCH  31  32
HETATM   32  C   UNL     1       8.686  21.005  54.042  1.00  0.00    -0.021 C 
HETATM   33  C   UNL     1       8.286  20.465  52.668  1.00  0.00     0.009 C 
HETATM   34  C   UNL     1       8.653  19.872  55.070  1.00  0.00     0.009 C 
ENDBRANCH  31  32
ENDBRANCH  30  31
ENDBRANCH  27  30
ENDBRANCH   1  26
TORSDOF 8
ENDMDL
MODEL 9
REMARK VINA RESULT:      -8.4      2.315      3.508
REMARK  8 active torsions:
REMARK  status: ('A' for Active; 'I' for Inactive)
REMARK    1  A    between atoms: C_2  and  C_3 
REMARK    2  A    between atoms: C_3  and  C_4 
REMARK    3  A    between atoms: C_4  and  N_5 
REMARK       I    between atoms: N_5  and  C_6 
REMARK    4  A    between atoms: C_6  and  C_7 
REMARK    5  A    between atoms: C_14  and  S_15 
REMARK    6  A    between atoms: S_15  and  N_16 
REMARK    7  A    between atoms: N_16  and  C_17 
REMARK    8  A    between atoms: C_19  and  O_20 
ROOT
HETATM    1  C   UNL     1       5.605  30.800  56.704  1.00  0.00     0.098 C 
HETATM    2  C   UNL     1       5.936  29.444  56.183  1.00  0.00     0.201 C 
HETATM    3  O   UNL     1       6.783  28.734  56.721  1.00  0.00    -0.286 OA
HETATM    4  C   UNL     1       5.219  28.972  54.966  1.00  0.00     0.043 A 
HETATM    5  C   UNL     1       4.190  29.773  54.436  1.00  0.00     0.046 A 
HETATM    6  N   UNL     1       3.821  30.959  55.085  1.00  0.00    -0.364 N 
HETATM    7  C   UNL     1       5.582  27.767  54.352  1.00  0.00     0.043 A 
HETATM    8  C   UNL     1       4.886  27.356  53.212  1.00  0.00     0.081 A 
HETATM    9  C   UNL     1       3.852  28.136  52.682  1.00  0.00     0.027 A 
HETATM   10  C   UNL     1       3.496  29.335  53.305  1.00  0.00     0.032 A 
HETATM   11  C   UNL     1       4.585  31.446  56.116  1.00  0.00     0.109 C 
HETATM   12  H   UNL     1       3.247  31.627  54.577  1.00  0.00     0.165 HD
ENDROOT
BRANCH   8  13
HETATM   13  S   UNL     1       5.345  25.850  52.377  1.00  0.00     0.263 S 
HETATM   14  O   UNL     1       4.693  24.764  53.079  1.00  0.00    -0.200 OA
HETATM   15  O   UNL     1       5.159  26.048  50.958  1.00  0.00    -0.200 OA
BRANCH  13  16
HETATM   16  N   UNL     1       6.992  25.715  52.728  1.00  0.00    -0.281 N 
HETATM   17  H   UNL     1       7.582  26.096  51.991  1.00  0.00     0.179 HD
BRANCH  16  18
HETATM   18  C   UNL     1       7.449  24.562  53.420  1.00  0.00     0.045 A 
HETATM   19  C   UNL     1       7.592  24.597  54.809  1.00  0.00     0.066 A 
HETATM   20  C   UNL     1       8.103  23.483  55.477  1.00  0.00     0.070 A 
HETATM   21  C   UNL     1       8.421  22.329  54.757  1.00  0.00     0.037 A 
HETATM   22  C   UNL     1       8.282  22.300  53.370  1.00  0.00     0.005 A 
HETATM   23  C   UNL     1       7.810  23.425  52.698  1.00  0.00     0.030 A 
BRANCH  20  24
HETATM   24  O   UNL     1       8.304  23.402  56.828  1.00  0.00    -0.356 OA
HETATM   25  C   UNL     1       8.876  24.558  57.433  1.00  0.00     0.210 C 
ENDBRANCH  20  24
ENDBRANCH  16  18
ENDBRANCH  13  16
ENDBRANCH   8  13
BRANCH   1  26
HETATM   26  C   UNL     1       6.345  31.500  57.793  1.00  0.00     0.257 C 
HETATM   27  N   UNL     1       7.334  30.767  58.398  1.00  0.00    -0.357 N 
HETATM   28  H   UNL     1       7.535  29.838  58.027  1.00  0.00     0.162 HD
HETATM   29  O   UNL     1       6.084  32.661  58.098  1.00  0.00    -0.267 OA
BRANCH  27  30
HETATM   30  C   UNL     1       8.267  31.344  59.344  1.00  0.00     0.123 C 
BRANCH  30  31
HETATM   31  C   UNL     1       7.635  31.628  60.709  1.00  0.00     0.023 C 
BRANCH  31  32
HETATM   32  C   UNL     1       8.677  31.712  61.841  1.00  0.00    -0.021 C 
HETATM   33  C   UNL     1       9.432  30.395  62.025  1.00  0.00     0.009 C 
HETATM   34  C   UNL     1       7.998  32.106  63.154  1.00  0.00     0.009 C 
ENDBRANCH  31  32
ENDBRANCH  30  31
ENDBRANCH  27  30
ENDBRANCH   1  26
TORSDOF 8
ENDMDL
MODEL 10
REMARK VINA RESULT:      -8.4      3.256      9.870
REMARK  8 active torsions:
REMARK  status: ('A' for Active; 'I' for Inactive)
REMARK    1  A    between atoms: C_2  and  C_3 
REMARK    2  A    between atoms: C_3  and  C_4 
REMARK    3  A    between atoms: C_4  and  N_5 
REMARK       I    between atoms: N_5  and  C_6 
REMARK    4  A    between atoms: C_6  and  C_7 
REMARK    5  A    between atoms: C_14  and  S_15 
REMARK    6  A    between atoms: S_15  and  N_16 
REMARK    7  A    between atoms: N_16  and  C_17 
REMARK    8  A    between atoms: C_19  and  O_20 
ROOT
HETATM    1  C   UNL     1       8.504  28.747  56.178  1.00  0.00     0.098 C 
HETATM    2  C   UNL     1       7.843  29.031  57.482  1.00  0.00     0.201 C 
HETATM    3  O   UNL     1       6.832  28.429  57.838  1.00  0.00    -0.286 OA
HETATM    4  C   UNL     1       8.433  30.090  58.346  1.00  0.00     0.043 A 
HETATM    5  C   UNL     1       9.644  30.690  57.948  1.00  0.00     0.046 A 
HETATM    6  N   UNL     1      10.296  30.247  56.790  1.00  0.00    -0.364 N 
HETATM    7  C   UNL     1       7.782  30.495  59.518  1.00  0.00     0.043 A 
HETATM    8  C   UNL     1       8.366  31.491  60.305  1.00  0.00     0.081 A 
HETATM    9  C   UNL     1       9.576  32.086  59.927  1.00  0.00     0.027 A 
HETATM   10  C   UNL     1      10.219  31.672  58.758  1.00  0.00     0.032 A 
HETATM   11  C   UNL     1       9.667  29.376  55.936  1.00  0.00     0.109 C 
HETATM   12  H   UNL     1      11.032  30.829  56.399  1.00  0.00     0.165 HD
ENDROOT
BRANCH   8  13
HETATM   13  S   UNL     1       7.547  32.063  61.780  1.00  0.00     0.263 S 
HETATM   14  O   UNL     1       8.052  31.266  62.878  1.00  0.00    -0.200 OA
HETATM   15  O   UNL     1       7.619  33.506  61.803  1.00  0.00    -0.200 OA
BRANCH  13  16
HETATM   16  N   UNL     1       5.950  31.571  61.536  1.00  0.00    -0.281 N 
HETATM   17  H   UNL     1       5.861  30.886  60.788  1.00  0.00     0.179 HD
BRANCH  16  18
HETATM   18  C   UNL     1       4.910  32.526  61.694  1.00  0.00     0.045 A 
HETATM   19  C   UNL     1       4.411  32.805  62.968  1.00  0.00     0.066 A 
HETATM   20  C   UNL     1       3.346  33.697  63.110  1.00  0.00     0.070 A 
HETATM   21  C   UNL     1       2.823  34.336  61.983  1.00  0.00     0.037 A 
HETATM   22  C   UNL     1       3.321  34.050  60.713  1.00  0.00     0.005 A 
HETATM   23  C   UNL     1       4.356  33.131  60.566  1.00  0.00     0.030 A 
BRANCH  20  24
HETATM   24  O   UNL     1       2.761  34.037  64.298  1.00  0.00    -0.356 OA
HETATM   25  C   UNL     1       3.501  34.947  65.107  1.00  0.00     0.210 C 
ENDBRANCH  20  24
ENDBRANCH  16  18
ENDBRANCH  13  16
ENDBRANCH   8  13
BRANCH   1  26
HETATM   26  C   UNL     1       7.953  27.858  55.117  1.00  0.00     0.257 C 
HETATM   27  N   UNL     1       7.454  26.658  55.555  1.00  0.00    -0.357 N 
HETATM   28  H   UNL     1       7.435  26.487  56.561  1.00  0.00     0.162 HD
HETATM   29  O   UNL     1       7.938  28.204  53.938  1.00  0.00    -0.267 OA
BRANCH  27  30
HETATM   30  C   UNL     1       6.720  25.754  54.692  1.00  0.00     0.123 C 
BRANCH  30  31
HETATM   31  C   UNL     1       7.404  24.395  54.531  1.00  0.00     0.023 C 
BRANCH  31  32
HETATM   32  C   UNL     1       7.265  23.825  53.106  1.00  0.00    -0.021 C 
HETATM   33  C   UNL     1       7.924  22.451  52.971  1.00  0.00     0.009 C 
HETATM   34  C   UNL     1       7.876  24.792  52.089  1.00  0.00     0.009 C 
ENDBRANCH  31  32
ENDBRANCH  30  31
ENDBRANCH  27  30
ENDBRANCH   1  26
TORSDOF 8
ENDMDL
