MODEL 1
REMARK VINA RESULT:      -8.9      0.000      0.000
REMARK  5 active torsions:
REMARK  status: ('A' for Active; 'I' for Inactive)
REMARK    1  A    between atoms: O_2  and  C_3 
REMARK    2  A    between atoms: C_4  and  C_5 
REMARK       I    between atoms: C_5  and  N_6 
REMARK    3  A    between atoms: N_6  and  C_7 
REMARK    4  A    between atoms: C_7  and  C_8 
REMARK    5  A    between atoms: C_8  and  C_9 
ROOT
HETATM    1  C   UNL     1       7.114  25.661  54.640  1.00  0.00     0.256 C 
HETATM    2  N   UNL     1       6.030  25.893  55.461  1.00  0.00    -0.356 N 
HETATM    3  O   UNL     1       7.748  26.554  54.092  1.00  0.00    -0.268 OA
HETATM    4  H   UNL     1       5.469  25.116  55.789  1.00  0.00     0.162 HD
ENDROOT
BRANCH   2   5
HETATM    5  C   UNL     1       5.520  27.236  55.675  1.00  0.00     0.130 C 
BRANCH   5   6
HETATM    6  C   UNL     1       5.622  27.678  57.136  1.00  0.00     0.098 C 
BRANCH   6   7
HETATM    7  C   UNL     1       6.827  28.522  57.351  1.00  0.00     0.106 A 
HETATM    8  N   UNL     1       8.005  28.366  56.783  1.00  0.00    -0.233 NA
HETATM    9  C   UNL     1       8.792  29.373  57.286  1.00  0.00     0.085 A 
HETATM   10  C   UNL     1       8.076  30.168  58.173  1.00  0.00     0.062 A 
HETATM   11  C   UNL     1      10.138  29.674  57.027  1.00  0.00     0.034 A 
HETATM   12  N   UNL     1       6.826  29.605  58.198  1.00  0.00    -0.343 N 
HETATM   13  C   UNL     1       8.628  31.269  58.832  1.00  0.00     0.032 A 
HETATM   14  H   UNL     1       6.039  29.926  58.744  1.00  0.00     0.167 HD
HETATM   15  C   UNL     1       9.971  31.554  58.562  1.00  0.00     0.002 A 
HETATM   16  C   UNL     1      10.717  30.772  57.676  1.00  0.00     0.002 A 
ENDBRANCH   6   7
ENDBRANCH   5   6
ENDBRANCH   2   5
BRANCH   1  17
HETATM   17  C   UNL     1       7.495  24.241  54.465  1.00  0.00     0.088 A 
HETATM   18  C   UNL     1       7.686  23.434  55.602  1.00  0.00     0.107 A 
HETATM   19  C   UNL     1       8.100  22.102  55.452  1.00  0.00     0.068 A 
HETATM   20  C   UNL     1       8.291  21.563  54.180  1.00  0.00     0.028 A 
HETATM   21 CL   UNL     1       8.376  21.082  56.818  1.00  0.00    -0.081 Cl
HETATM   22  C   UNL     1       8.090  22.356  53.050  1.00  0.00     0.027 A 
HETATM   23  C   UNL     1       7.702  23.694  53.188  1.00  0.00     0.052 A 
HETATM   24 CL   UNL     1       7.533  24.610  51.731  1.00  0.00    -0.083 Cl
BRANCH  18  25
HETATM   25  O   UNL     1       7.542  23.938  56.872  1.00  0.00    -0.353 OA
HETATM   26  C   UNL     1       8.779  24.446  57.374  1.00  0.00     0.210 C 
ENDBRANCH  18  25
ENDBRANCH   1  17
TORSDOF 5
ENDMDL
MODEL 2
REMARK VINA RESULT:      -8.7      3.525      8.178
REMARK  5 active torsions:
REMARK  status: ('A' for Active; 'I' for Inactive)
REMARK    1  A    between atoms: O_2  and  C_3 
REMARK    2  A    between atoms: C_4  and  C_5 
REMARK       I    between atoms: C_5  and  N_6 
REMARK    3  A    between atoms: N_6  and  C_7 
REMARK    4  A    between atoms: C_7  and  C_8 
REMARK    5  A    between atoms: C_8  and  C_9 
ROOT
HETATM    1  C   UNL     1       8.437  28.854  56.871  1.00  0.00     0.256 C 
HETATM    2  N   UNL     1       7.985  27.678  57.431  1.00  0.00    -0.356 N 
HETATM    3  O   UNL     1       8.668  28.987  55.676  1.00  0.00    -0.268 OA
HETATM    4  H   UNL     1       7.927  27.587  58.438  1.00  0.00     0.162 HD
ENDROOT
BRANCH   2   5
HETATM    5  C   UNL     1       7.817  26.477  56.632  1.00  0.00     0.130 C 
BRANCH   5   6
HETATM    6  C   UNL     1       8.348  25.226  57.331  1.00  0.00     0.098 C 
BRANCH   6   7
HETATM    7  C   UNL     1       8.314  24.053  56.417  1.00  0.00     0.106 A 
HETATM    8  N   UNL     1       8.450  22.788  56.758  1.00  0.00    -0.233 NA
HETATM    9  C   UNL     1       8.351  22.078  55.587  1.00  0.00     0.085 A 
HETATM   10  C   UNL     1       8.138  22.927  54.507  1.00  0.00     0.062 A 
HETATM   11  C   UNL     1       8.431  20.695  55.368  1.00  0.00     0.034 A 
HETATM   12  N   UNL     1       8.119  24.181  55.062  1.00  0.00    -0.343 N 
HETATM   13  C   UNL     1       7.995  22.475  53.194  1.00  0.00     0.032 A 
HETATM   14  H   UNL     1       7.987  25.050  54.565  1.00  0.00     0.167 HD
HETATM   15  C   UNL     1       8.078  21.092  52.993  1.00  0.00     0.002 A 
HETATM   16  C   UNL     1       8.293  20.214  54.059  1.00  0.00     0.002 A 
ENDBRANCH   6   7
ENDBRANCH   5   6
ENDBRANCH   2   5
BRANCH   1  17
HETATM   17  C   UNL     1       8.617  29.986  57.810  1.00  0.00     0.088 A 
HETATM   18  C   UNL     1       7.488  30.550  58.432  1.00  0.00     0.107 A 
HETATM   19  C   UNL     1       7.638  31.657  59.280  1.00  0.00     0.068 A 
HETATM   20  C   UNL     1       8.905  32.180  59.539  1.00  0.00     0.028 A 
HETATM   21 CL   UNL     1       6.279  32.402  60.043  1.00  0.00    -0.081 Cl
HETATM   22  C   UNL     1      10.027  31.615  58.933  1.00  0.00     0.027 A 
HETATM   23  C   UNL     1       9.887  30.527  58.065  1.00  0.00     0.052 A 
HETATM   24 CL   UNL     1      11.332  29.934  57.321  1.00  0.00    -0.083 Cl
BRANCH  18  25
HETATM   25  O   UNL     1       6.220  30.085  58.176  1.00  0.00    -0.353 OA
HETATM   26  C   UNL     1       5.617  30.787  57.089  1.00  0.00     0.210 C 
ENDBRANCH  18  25
ENDBRANCH   1  17
TORSDOF 5
ENDMDL
MODEL 3
REMARK VINA RESULT:      -8.4      3.613      8.131
REMARK  5 active torsions:
REMARK  status: ('A' for Active; 'I' for Inactive)
REMARK    1  A    between atoms: O_2  and  C_3 
REMARK    2  A    between atoms: C_4  and  C_5 
REMARK       I    between atoms: C_5  and  N_6 
REMARK    3  A    between atoms: N_6  and  C_7 
REMARK    4  A    between atoms: C_7  and  C_8 
REMARK    5  A    between atoms: C_8  and  C_9 
ROOT
HETATM    1  C   UNL     1       7.416  29.118  56.983  1.00  0.00     0.256 C 
HETATM    2  N   UNL     1       7.414  27.855  57.537  1.00  0.00    -0.356 N 
HETATM    3  O   UNL     1       7.485  29.326  55.777  1.00  0.00    -0.268 OA
HETATM    4  H   UNL     1       7.478  27.744  58.541  1.00  0.00     0.162 HD
ENDROOT
BRANCH   2   5
HETATM    5  C   UNL     1       7.569  26.669  56.712  1.00  0.00     0.130 C 
BRANCH   5   6
HETATM    6  C   UNL     1       8.141  25.483  57.490  1.00  0.00     0.098 C 
BRANCH   6   7
HETATM    7  C   UNL     1       8.163  24.258  56.646  1.00  0.00     0.106 A 
HETATM    8  N   UNL     1       8.303  23.018  57.068  1.00  0.00    -0.233 NA
HETATM    9  C   UNL     1       8.264  22.239  55.938  1.00  0.00     0.085 A 
HETATM   10  C   UNL     1       8.086  23.019  54.801  1.00  0.00     0.062 A 
HETATM   11  C   UNL     1       8.373  20.846  55.805  1.00  0.00     0.034 A 
HETATM   12  N   UNL     1       8.025  24.302  55.279  1.00  0.00    -0.343 N 
HETATM   13  C   UNL     1       8.006  22.488  53.512  1.00  0.00     0.032 A 
HETATM   14  H   UNL     1       7.902  25.139  54.725  1.00  0.00     0.167 HD
HETATM   15  C   UNL     1       8.117  21.097  53.398  1.00  0.00     0.002 A 
HETATM   16  C   UNL     1       8.298  20.287  54.522  1.00  0.00     0.002 A 
ENDBRANCH   6   7
ENDBRANCH   5   6
ENDBRANCH   2   5
BRANCH   1  17
HETATM   17  C   UNL     1       7.306  30.241  57.941  1.00  0.00     0.088 A 
HETATM   18  C   UNL     1       8.434  30.614  58.696  1.00  0.00     0.107 A 
HETATM   19  C   UNL     1       8.330  31.640  59.647  1.00  0.00     0.068 A 
HETATM   20  C   UNL     1       7.123  32.317  59.824  1.00  0.00     0.028 A 
HETATM   21 CL   UNL     1       9.678  32.113  60.617  1.00  0.00    -0.081 Cl
HETATM   22  C   UNL     1       6.007  31.958  59.069  1.00  0.00     0.027 A 
HETATM   23  C   UNL     1       6.092  30.918  58.135  1.00  0.00     0.052 A 
HETATM   24 CL   UNL     1       4.639  30.512  57.289  1.00  0.00    -0.083 Cl
BRANCH  18  25
HETATM   25  O   UNL     1       9.630  29.949  58.575  1.00  0.00    -0.353 OA
HETATM   26  C   UNL     1      10.480  30.575  57.614  1.00  0.00     0.210 C 
ENDBRANCH  18  25
ENDBRANCH   1  17
TORSDOF 5
ENDMDL
MODEL 4
REMARK VINA RESULT:      -8.3      2.889      7.457
REMARK  5 active torsions:
REMARK  status: ('A' for Active; 'I' for Inactive)
REMARK    1  A    between atoms: O_2  and  C_3 
REMARK    2  A    between atoms: C_4  and  C_5 
REMARK       I    between atoms: C_5  and  N_6 
REMARK    3  A    between atoms: N_6  and  C_7 
REMARK    4  A    between atoms: C_7  and  C_8 
REMARK    5  A    between atoms: C_8  and  C_9 
ROOT
HETATM    1  C   UNL     1       6.271  26.885  55.131  1.00  0.00     0.256 C 
HETATM    2  N   UNL     1       6.923  26.995  53.921  1.00  0.00    -0.356 N 
HETATM    3  O   UNL     1       5.454  26.007  55.380  1.00  0.00    -0.268 OA
HETATM    4  H   UNL     1       7.495  27.808  53.727  1.00  0.00     0.162 HD
ENDROOT
BRANCH   2   5
HETATM    5  C   UNL     1       6.625  26.097  52.819  1.00  0.00     0.130 C 
BRANCH   5   6
HETATM    6  C   UNL     1       7.837  25.269  52.391  1.00  0.00     0.098 C 
BRANCH   6   7
HETATM    7  C   UNL     1       8.000  24.076  53.265  1.00  0.00     0.106 A 
HETATM    8  N   UNL     1       8.225  24.080  54.562  1.00  0.00    -0.233 NA
HETATM    9  C   UNL     1       8.302  22.758  54.926  1.00  0.00     0.085 A 
HETATM   10  C   UNL     1       8.108  21.928  53.829  1.00  0.00     0.062 A 
HETATM   11  C   UNL     1       8.534  22.187  56.187  1.00  0.00     0.034 A 
HETATM   12  N   UNL     1       7.918  22.792  52.781  1.00  0.00    -0.343 N 
HETATM   13  C   UNL     1       8.129  20.534  53.909  1.00  0.00     0.032 A 
HETATM   14  H   UNL     1       7.749  22.533  51.819  1.00  0.00     0.167 HD
HETATM   15  C   UNL     1       8.362  19.982  55.174  1.00  0.00     0.002 A 
HETATM   16  C   UNL     1       8.562  20.791  56.296  1.00  0.00     0.002 A 
ENDBRANCH   6   7
ENDBRANCH   5   6
ENDBRANCH   2   5
BRANCH   1  17
HETATM   17  C   UNL     1       6.630  27.899  56.149  1.00  0.00     0.088 A 
HETATM   18  C   UNL     1       6.023  29.167  56.101  1.00  0.00     0.107 A 
HETATM   19  C   UNL     1       6.394  30.154  57.026  1.00  0.00     0.068 A 
HETATM   20  C   UNL     1       7.336  29.874  58.016  1.00  0.00     0.028 A 
HETATM   21 CL   UNL     1       5.699  31.735  56.989  1.00  0.00    -0.081 Cl
HETATM   22  C   UNL     1       7.930  28.614  58.074  1.00  0.00     0.027 A 
HETATM   23  C   UNL     1       7.587  27.629  57.140  1.00  0.00     0.052 A 
HETATM   24 CL   UNL     1       8.419  26.118  57.261  1.00  0.00    -0.083 Cl
BRANCH  18  25
HETATM   25  O   UNL     1       5.116  29.493  55.121  1.00  0.00    -0.353 OA
HETATM   26  C   UNL     1       3.777  29.236  55.543  1.00  0.00     0.210 C 
ENDBRANCH  18  25
ENDBRANCH   1  17
TORSDOF 5
ENDMDL
MODEL 5
REMARK VINA RESULT:      -8.3      1.997      2.726
REMARK  5 active torsions:
REMARK  status: ('A' for Active; 'I' for Inactive)
REMARK    1  A    between atoms: O_2  and  C_3 
REMARK    2  A    between atoms: C_4  and  C_5 
REMARK       I    between atoms: C_5  and  N_6 
REMARK    3  A    between atoms: N_6  and  C_7 
REMARK    4  A    between atoms: C_7  and  C_8 
REMARK    5  A    between atoms: C_8  and  C_9 
ROOT
HETATM    1  C   UNL     1       6.025  25.945  56.269  1.00  0.00     0.256 C 
HETATM    2  N   UNL     1       6.879  27.013  56.450  1.00  0.00    -0.356 N 
HETATM    3  O   UNL     1       4.951  25.835  56.849  1.00  0.00    -0.268 OA
HETATM    4  H   UNL     1       7.805  26.994  56.041  1.00  0.00     0.162 HD
ENDROOT
BRANCH   2   5
HETATM    5  C   UNL     1       6.584  28.060  57.412  1.00  0.00     0.130 C 
BRANCH   5   6
HETATM    6  C   UNL     1       7.427  29.317  57.190  1.00  0.00     0.098 C 
BRANCH   6   7
HETATM    7  C   UNL     1       7.640  30.045  58.469  1.00  0.00     0.106 A 
HETATM    8  N   UNL     1       8.637  29.873  59.312  1.00  0.00    -0.233 NA
HETATM    9  C   UNL     1       8.409  30.759  60.337  1.00  0.00     0.085 A 
HETATM   10  C   UNL     1       7.253  31.497  60.108  1.00  0.00     0.062 A 
HETATM   11  C   UNL     1       9.153  30.992  61.503  1.00  0.00     0.034 A 
HETATM   12  N   UNL     1       6.781  31.023  58.911  1.00  0.00    -0.343 N 
HETATM   13  C   UNL     1       6.784  32.476  60.987  1.00  0.00     0.032 A 
HETATM   14  H   UNL     1       5.947  31.335  58.435  1.00  0.00     0.167 HD
HETATM   15  C   UNL     1       7.538  32.695  62.145  1.00  0.00     0.002 A 
HETATM   16  C   UNL     1       8.703  31.967  62.403  1.00  0.00     0.002 A 
ENDBRANCH   6   7
ENDBRANCH   5   6
ENDBRANCH   2   5
BRANCH   1  17
HETATM   17  C   UNL     1       6.473  24.920  55.299  1.00  0.00     0.088 A 
HETATM   18  C   UNL     1       7.322  23.886  55.733  1.00  0.00     0.107 A 
HETATM   19  C   UNL     1       7.797  22.940  54.813  1.00  0.00     0.068 A 
HETATM   20  C   UNL     1       7.405  22.998  53.476  1.00  0.00     0.028 A 
HETATM   21 CL   UNL     1       8.865  21.670  55.293  1.00  0.00    -0.081 Cl
HETATM   22  C   UNL     1       6.553  24.015  53.045  1.00  0.00     0.027 A 
HETATM   23  C   UNL     1       6.093  24.979  53.948  1.00  0.00     0.052 A 
HETATM   24 CL   UNL     1       5.086  26.231  53.306  1.00  0.00    -0.083 Cl
BRANCH  18  25
HETATM   25  O   UNL     1       7.759  23.814  57.034  1.00  0.00    -0.353 OA
HETATM   26  C   UNL     1       9.042  24.421  57.187  1.00  0.00     0.210 C 
ENDBRANCH  18  25
ENDBRANCH   1  17
TORSDOF 5
ENDMDL
MODEL 6
REMARK VINA RESULT:      -8.2      2.884      6.999
REMARK  5 active torsions:
REMARK  status: ('A' for Active; 'I' for Inactive)
REMARK    1  A    between atoms: O_2  and  C_3 
REMARK    2  A    between atoms: C_4  and  C_5 
REMARK       I    between atoms: C_5  and  N_6 
REMARK    3  A    between atoms: N_6  and  C_7 
REMARK    4  A    between atoms: C_7  and  C_8 
REMARK    5  A    between atoms: C_8  and  C_9 
ROOT
HETATM    1  C   UNL     1       5.538  26.401  56.265  1.00  0.00     0.256 C 
HETATM    2  N   UNL     1       6.856  26.541  56.645  1.00  0.00    -0.356 N 
HETATM    3  O   UNL     1       4.730  25.710  56.874  1.00  0.00    -0.268 OA
HETATM    4  H   UNL     1       7.507  27.025  56.039  1.00  0.00     0.162 HD
ENDROOT
BRANCH   2   5
HETATM    5  C   UNL     1       7.398  25.808  57.776  1.00  0.00     0.130 C 
BRANCH   5   6
HETATM    6  C   UNL     1       8.728  25.126  57.451  1.00  0.00     0.098 C 
BRANCH   6   7
HETATM    7  C   UNL     1       8.543  24.066  56.425  1.00  0.00     0.106 A 
HETATM    8  N   UNL     1       8.422  24.244  55.126  1.00  0.00    -0.233 NA
HETATM    9  C   UNL     1       8.273  22.987  54.594  1.00  0.00     0.085 A 
HETATM   10  C   UNL     1       8.315  22.018  55.589  1.00  0.00     0.062 A 
HETATM   11  C   UNL     1       8.098  22.593  53.259  1.00  0.00     0.034 A 
HETATM   12  N   UNL     1       8.487  22.731  56.748  1.00  0.00    -0.343 N 
HETATM   13  C   UNL     1       8.193  20.650  55.332  1.00  0.00     0.032 A 
HETATM   14  H   UNL     1       8.559  22.345  57.679  1.00  0.00     0.167 HD
HETATM   15  C   UNL     1       8.019  20.276  53.995  1.00  0.00     0.002 A 
HETATM   16  C   UNL     1       7.971  21.228  52.973  1.00  0.00     0.002 A 
ENDBRANCH   6   7
ENDBRANCH   5   6
ENDBRANCH   2   5
BRANCH   1  17
HETATM   17  C   UNL     1       5.130  27.163  55.063  1.00  0.00     0.088 A 
HETATM   18  C   UNL     1       4.839  28.535  55.183  1.00  0.00     0.107 A 
HETATM   19  C   UNL     1       4.400  29.256  54.063  1.00  0.00     0.068 A 
HETATM   20  C   UNL     1       4.283  28.629  52.822  1.00  0.00     0.028 A 
HETATM   21 CL   UNL     1       4.001  30.934  54.167  1.00  0.00    -0.081 Cl
HETATM   22  C   UNL     1       4.583  27.273  52.697  1.00  0.00     0.027 A 
HETATM   23  C   UNL     1       4.998  26.537  53.813  1.00  0.00     0.052 A 
HETATM   24 CL   UNL     1       5.292  24.850  53.567  1.00  0.00    -0.083 Cl
BRANCH  18  25
HETATM   25  O   UNL     1       4.908  29.180  56.394  1.00  0.00    -0.353 OA
HETATM   26  C   UNL     1       6.107  29.946  56.509  1.00  0.00     0.210 C 
ENDBRANCH  18  25
ENDBRANCH   1  17
TORSDOF 5
ENDMDL
MODEL 7
REMARK VINA RESULT:      -8.1      2.021      3.724
REMARK  5 active torsions:
REMARK  status: ('A' for Active; 'I' for Inactive)
REMARK    1  A    between atoms: O_2  and  C_3 
REMARK    2  A    between atoms: C_4  and  C_5 
REMARK       I    between atoms: C_5  and  N_6 
REMARK    3  A    between atoms: N_6  and  C_7 
REMARK    4  A    between atoms: C_7  and  C_8 
REMARK    5  A    between atoms: C_8  and  C_9 
ROOT
HETATM    1  C   UNL     1       7.011  25.746  56.717  1.00  0.00     0.256 C 
HETATM    2  N   UNL     1       7.571  27.005  56.771  1.00  0.00    -0.356 N 
HETATM    3  O   UNL     1       6.158  25.352  57.503  1.00  0.00    -0.268 OA
HETATM    4  H   UNL     1       8.357  27.235  56.175  1.00  0.00     0.162 HD
ENDROOT
BRANCH   2   5
HETATM    5  C   UNL     1       7.226  27.939  57.828  1.00  0.00     0.130 C 
BRANCH   5   6
HETATM    6  C   UNL     1       7.718  29.359  57.542  1.00  0.00     0.098 C 
BRANCH   6   7
HETATM    7  C   UNL     1       7.799  30.154  58.796  1.00  0.00     0.106 A 
HETATM    8  N   UNL     1       8.726  30.059  59.727  1.00  0.00    -0.233 NA
HETATM    9  C   UNL     1       8.384  30.984  60.683  1.00  0.00     0.085 A 
HETATM   10  C   UNL     1       7.228  31.667  60.323  1.00  0.00     0.062 A 
HETATM   11  C   UNL     1       9.019  31.299  61.893  1.00  0.00     0.034 A 
HETATM   12  N   UNL     1       6.874  31.120  59.117  1.00  0.00    -0.343 N 
HETATM   13  C   UNL     1       6.654  32.668  61.109  1.00  0.00     0.032 A 
HETATM   14  H   UNL     1       6.073  31.378  58.559  1.00  0.00     0.167 HD
HETATM   15  C   UNL     1       7.301  32.970  62.313  1.00  0.00     0.002 A 
HETATM   16  C   UNL     1       8.464  32.298  62.703  1.00  0.00     0.002 A 
ENDBRANCH   6   7
ENDBRANCH   5   6
ENDBRANCH   2   5
BRANCH   1  17
HETATM   17  C   UNL     1       7.492  24.875  55.620  1.00  0.00     0.088 A 
HETATM   18  C   UNL     1       7.334  25.296  54.287  1.00  0.00     0.107 A 
HETATM   19  C   UNL     1       7.736  24.457  53.237  1.00  0.00     0.068 A 
HETATM   20  C   UNL     1       8.323  23.221  53.508  1.00  0.00     0.028 A 
HETATM   21 CL   UNL     1       7.535  24.918  51.585  1.00  0.00    -0.081 Cl
HETATM   22  C   UNL     1       8.492  22.806  54.829  1.00  0.00     0.027 A 
HETATM   23  C   UNL     1       8.072  23.623  55.884  1.00  0.00     0.052 A 
HETATM   24 CL   UNL     1       8.275  22.996  57.483  1.00  0.00    -0.083 Cl
BRANCH  18  25
HETATM   25  O   UNL     1       6.729  26.491  53.979  1.00  0.00    -0.353 OA
HETATM   26  C   UNL     1       5.330  26.322  53.746  1.00  0.00     0.210 C 
ENDBRANCH  18  25
ENDBRANCH   1  17
TORSDOF 5
ENDMDL
MODEL 8
REMARK VINA RESULT:      -8.0      4.525      8.734
REMARK  5 active torsions:
REMARK  status: ('A' for Active; 'I' for Inactive)
REMARK    1  A    between atoms: O_2  and  C_3 
REMARK    2  A    between atoms: C_4  and  C_5 
REMARK       I    between atoms: C_5  and  N_6 
REMARK    3  A    between atoms: N_6  and  C_7 
REMARK    4  A    between atoms: C_7  and  C_8 
REMARK    5  A    between atoms: C_8  and  C_9 
ROOT
HETATM    1  C   UNL     1       8.323  30.578  59.124  1.00  0.00     0.256 C 
HETATM    2  N   UNL     1       7.615  29.459  58.739  1.00  0.00    -0.356 N 
HETATM    3  O   UNL     1       9.357  30.943  58.578  1.00  0.00    -0.268 OA
HETATM    4  H   UNL     1       6.836  29.136  59.301  1.00  0.00     0.162 HD
ENDROOT
BRANCH   2   5
HETATM    5  C   UNL     1       8.099  28.585  57.685  1.00  0.00     0.130 C 
BRANCH   5   6
HETATM    6  C   UNL     1       7.369  28.802  56.359  1.00  0.00     0.098 C 
BRANCH   6   7
HETATM    7  C   UNL     1       7.431  27.580  55.514  1.00  0.00     0.106 A 
HETATM    8  N   UNL     1       7.607  27.537  54.210  1.00  0.00    -0.233 NA
HETATM    9  C   UNL     1       7.591  26.203  53.880  1.00  0.00     0.085 A 
HETATM   10  C   UNL     1       7.413  25.414  55.011  1.00  0.00     0.062 A 
HETATM   11  C   UNL     1       7.727  25.587  52.627  1.00  0.00     0.034 A 
HETATM   12  N   UNL     1       7.313  26.315  56.039  1.00  0.00    -0.343 N 
HETATM   13  C   UNL     1       7.363  24.019  54.970  1.00  0.00     0.032 A 
HETATM   14  H   UNL     1       7.174  26.092  57.015  1.00  0.00     0.167 HD
HETATM   15  C   UNL     1       7.499  23.422  53.712  1.00  0.00     0.002 A 
HETATM   16  C   UNL     1       7.678  24.189  52.558  1.00  0.00     0.002 A 
ENDBRANCH   6   7
ENDBRANCH   5   6
ENDBRANCH   2   5
BRANCH   1  17
HETATM   17  C   UNL     1       7.745  31.350  60.247  1.00  0.00     0.088 A 
HETATM   18  C   UNL     1       6.703  32.261  59.993  1.00  0.00     0.107 A 
HETATM   19  C   UNL     1       6.184  33.038  61.039  1.00  0.00     0.068 A 
HETATM   20  C   UNL     1       6.671  32.888  62.337  1.00  0.00     0.028 A 
HETATM   21 CL   UNL     1       4.926  34.191  60.770  1.00  0.00    -0.081 Cl
HETATM   22  C   UNL     1       7.695  31.977  62.595  1.00  0.00     0.027 A 
HETATM   23  C   UNL     1       8.238  31.214  61.555  1.00  0.00     0.052 A 
HETATM   24 CL   UNL     1       9.542  30.154  61.966  1.00  0.00    -0.083 Cl
BRANCH  18  25
HETATM   25  O   UNL     1       6.220  32.463  58.722  1.00  0.00    -0.353 OA
HETATM   26  C   UNL     1       5.004  31.747  58.507  1.00  0.00     0.210 C 
ENDBRANCH  18  25
ENDBRANCH   1  17
TORSDOF 5
ENDMDL
MODEL 9
REMARK VINA RESULT:      -7.9      6.185      8.582
REMARK  5 active torsions:
REMARK  status: ('A' for Active; 'I' for Inactive)
REMARK    1  A    between atoms: O_2  and  C_3 
REMARK    2  A    between atoms: C_4  and  C_5 
REMARK       I    between atoms: C_5  and  N_6 
REMARK    3  A    between atoms: N_6  and  C_7 
REMARK    4  A    between atoms: C_7  and  C_8 
REMARK    5  A    between atoms: C_8  and  C_9 
ROOT
HETATM    1  C   UNL     1       6.401  32.004  58.889  1.00  0.00     0.256 C 
HETATM    2  N   UNL     1       6.269  31.997  60.262  1.00  0.00    -0.356 N 
HETATM    3  O   UNL     1       5.894  32.853  58.167  1.00  0.00    -0.268 OA
HETATM    4  H   UNL     1       6.605  31.206  60.798  1.00  0.00     0.162 HD
ENDROOT
BRANCH   2   5
HETATM    5  C   UNL     1       5.445  32.979  60.946  1.00  0.00     0.130 C 
BRANCH   5   6
HETATM    6  C   UNL     1       4.530  32.349  61.996  1.00  0.00     0.098 C 
BRANCH   6   7
HETATM    7  C   UNL     1       4.818  32.899  63.348  1.00  0.00     0.106 A 
HETATM    8  N   UNL     1       3.935  33.347  64.216  1.00  0.00    -0.233 NA
HETATM    9  C   UNL     1       4.664  33.749  65.309  1.00  0.00     0.085 A 
HETATM   10  C   UNL     1       6.022  33.531  65.107  1.00  0.00     0.062 A 
HETATM   11  C   UNL     1       4.231  34.311  66.519  1.00  0.00     0.034 A 
HETATM   12  N   UNL     1       6.094  32.989  63.850  1.00  0.00    -0.343 N 
HETATM   13  C   UNL     1       6.997  33.843  66.057  1.00  0.00     0.032 A 
HETATM   14  H   UNL     1       6.938  32.706  63.371  1.00  0.00     0.167 HD
HETATM   15  C   UNL     1       6.547  34.404  67.258  1.00  0.00     0.002 A 
HETATM   16  C   UNL     1       5.188  34.636  67.488  1.00  0.00     0.002 A 
ENDBRANCH   6   7
ENDBRANCH   5   6
ENDBRANCH   2   5
BRANCH   1  17
HETATM   17  C   UNL     1       7.224  30.914  58.316  1.00  0.00     0.088 A 
HETATM   18  C   UNL     1       8.626  31.036  58.320  1.00  0.00     0.107 A 
HETATM   19  C   UNL     1       9.416  30.036  57.733  1.00  0.00     0.068 A 
HETATM   20  C   UNL     1       8.820  28.905  57.175  1.00  0.00     0.028 A 
HETATM   21 CL   UNL     1      11.138  30.155  57.686  1.00  0.00    -0.081 Cl
HETATM   22  C   UNL     1       7.431  28.775  57.181  1.00  0.00     0.027 A 
HETATM   23  C   UNL     1       6.632  29.778  57.741  1.00  0.00     0.052 A 
HETATM   24 CL   UNL     1       4.920  29.551  57.650  1.00  0.00    -0.083 Cl
BRANCH  18  25
HETATM   25  O   UNL     1       9.248  32.151  58.828  1.00  0.00    -0.353 OA
HETATM   26  C   UNL     1       9.653  31.950  60.183  1.00  0.00     0.210 C 
ENDBRANCH  18  25
ENDBRANCH   1  17
TORSDOF 5
ENDMDL
MODEL 10
REMARK VINA RESULT:      -7.8      1.774      2.727
REMARK  5 active torsions:
REMARK  status: ('A' for Active; 'I' for Inactive)
REMARK    1  A    between atoms: O_2  and  C_3 
REMARK    2  A    between atoms: C_4  and  C_5 
REMARK       I    between atoms: C_5  and  N_6 
REMARK    3  A    between atoms: N_6  and  C_7 
REMARK    4  A    between atoms: C_7  and  C_8 
REMARK    5  A    between atoms: C_8  and  C_9 
ROOT
HETATM    1  C   UNL     1       7.060  26.830  54.948  1.00  0.00     0.256 C 
HETATM    2  N   UNL     1       5.864  27.151  55.556  1.00  0.00    -0.356 N 
HETATM    3  O   UNL     1       7.730  27.634  54.312  1.00  0.00    -0.268 OA
HETATM    4  H   UNL     1       5.293  26.421  55.964  1.00  0.00     0.162 HD
ENDROOT
BRANCH   2   5
HETATM    5  C   UNL     1       5.279  28.473  55.419  1.00  0.00     0.130 C 
BRANCH   5   6
HETATM    6  C   UNL     1       4.818  29.054  56.757  1.00  0.00     0.098 C 
BRANCH   6   7
HETATM    7  C   UNL     1       5.938  29.748  57.448  1.00  0.00     0.106 A 
HETATM    8  N   UNL     1       7.225  29.546  57.253  1.00  0.00    -0.233 NA
HETATM    9  C   UNL     1       7.866  30.407  58.109  1.00  0.00     0.085 A 
HETATM   10  C   UNL     1       6.950  31.160  58.835  1.00  0.00     0.062 A 
HETATM   11  C   UNL     1       9.238  30.605  58.320  1.00  0.00     0.034 A 
HETATM   12  N   UNL     1       5.728  30.720  58.396  1.00  0.00    -0.343 N 
HETATM   13  C   UNL     1       7.325  32.120  59.778  1.00  0.00     0.032 A 
HETATM   14  H   UNL     1       4.828  31.051  58.713  1.00  0.00     0.167 HD
HETATM   15  C   UNL     1       8.698  32.303  59.977  1.00  0.00     0.002 A 
HETATM   16  C   UNL     1       9.642  31.560  59.263  1.00  0.00     0.002 A 
ENDBRANCH   6   7
ENDBRANCH   5   6
ENDBRANCH   2   5
BRANCH   1  17
HETATM   17  C   UNL     1       7.515  25.431  55.123  1.00  0.00     0.088 A 
HETATM   18  C   UNL     1       7.456  24.547  54.030  1.00  0.00     0.107 A 
HETATM   19  C   UNL     1       7.833  23.206  54.195  1.00  0.00     0.068 A 
HETATM   20  C   UNL     1       8.298  22.752  55.429  1.00  0.00     0.028 A 
HETATM   21 CL   UNL     1       7.750  22.076  52.891  1.00  0.00    -0.081 Cl
HETATM   22  C   UNL     1       8.370  23.629  56.511  1.00  0.00     0.027 A 
HETATM   23  C   UNL     1       7.972  24.963  56.365  1.00  0.00     0.052 A 
HETATM   24 CL   UNL     1       8.045  25.957  57.779  1.00  0.00    -0.083 Cl
BRANCH  18  25
HETATM   25  O   UNL     1       6.971  24.947  52.808  1.00  0.00    -0.353 OA
HETATM   26  C   UNL     1       5.561  24.740  52.714  1.00  0.00     0.210 C 
ENDBRANCH  18  25
ENDBRANCH   1  17
TORSDOF 5
ENDMDL
