MODEL 1
REMARK VINA RESULT:     -10.2      0.000      0.000
REMARK  3 active torsions:
REMARK  status: ('A' for Active; 'I' for Inactive)
REMARK    1  A    between atoms: C_4  and  N_5 
REMARK       I    between atoms: N_5  and  C_6 
REMARK       I    between atoms: C_6  and  N_7 
REMARK    2  A    between atoms: C_10  and  C_11 
REMARK    3  A    between atoms: C_24  and  O_25 
ROOT
HETATM    1  N   UNL     1       3.825  27.559  50.791  1.00  0.00    -0.306 N 
HETATM    2  C   UNL     1       5.043  27.863  51.348  1.00  0.00     0.323 C 
HETATM    3  N   UNL     1       5.503  26.905  52.261  1.00  0.00    -0.330 N 
HETATM    4  C   UNL     1       6.785  27.231  52.876  1.00  0.00     0.155 C 
HETATM    5  C   UNL     1       7.289  26.161  53.794  1.00  0.00     0.001 C 
HETATM    6  C   UNL     1       6.686  24.978  53.999  1.00  0.00    -0.046 C 
HETATM    7  C   UNL     1       5.399  24.642  53.300  1.00  0.00     0.059 C 
HETATM    8  C   UNL     1       5.226  25.481  52.036  1.00  0.00     0.132 C 
HETATM    9  O   UNL     1       5.685  28.880  51.092  1.00  0.00    -0.247 OA
HETATM   10  H   UNL     1       3.151  27.129  51.410  1.00  0.00     0.171 HD
ENDROOT
BRANCH   1  11
HETATM   11  C   UNL     1       3.281  28.100  49.608  1.00  0.00     0.070 A 
HETATM   12  C   UNL     1       2.812  29.417  49.541  1.00  0.00     0.039 A 
HETATM   13  C   UNL     1       2.352  29.949  48.330  1.00  0.00    -0.060 A 
HETATM   14  C   UNL     1       1.893  31.374  48.247  1.00  0.00     0.048 C 
HETATM   15  C   UNL     1       2.366  29.147  47.184  1.00  0.00     0.009 A 
HETATM   16  C   UNL     1       2.828  27.829  47.244  1.00  0.00     0.039 A 
HETATM   17  C   UNL     1       3.283  27.297  48.453  1.00  0.00     0.095 A 
BRANCH  17  18
HETATM   18  O   UNL     1       3.769  26.019  48.608  1.00  0.00    -0.354 OA
HETATM   19  C   UNL     1       3.033  24.991  47.952  1.00  0.00     0.210 C 
ENDBRANCH  17  18
ENDBRANCH   1  11
BRANCH   6  20
HETATM   20  C   UNL     1       7.241  23.930  54.791  1.00  0.00    -0.002 A 
HETATM   21  C   UNL     1       7.705  22.659  54.335  1.00  0.00     0.003 A 
HETATM   22  C   UNL     1       8.144  21.958  55.461  1.00  0.00     0.043 A 
HETATM   23  C   UNL     1       7.782  22.025  53.076  1.00  0.00     0.014 A 
HETATM   24  C   UNL     1       8.659  20.659  55.388  1.00  0.00     0.030 A 
HETATM   25  N   UNL     1       7.955  22.782  56.549  1.00  0.00    -0.364 N 
HETATM   26  C   UNL     1       8.725  20.055  54.128  1.00  0.00     0.002 A 
HETATM   27  C   UNL     1       8.293  20.726  52.986  1.00  0.00     0.001 A 
HETATM   28  H   UNL     1       8.188  22.532  57.499  1.00  0.00     0.165 HD
HETATM   29  C   UNL     1       7.399  23.972  56.158  1.00  0.00     0.101 A 
ENDBRANCH   6  20
TORSDOF 3
ENDMDL
MODEL 2
REMARK VINA RESULT:      -9.8      1.791      2.008
REMARK  3 active torsions:
REMARK  status: ('A' for Active; 'I' for Inactive)
REMARK    1  A    between atoms: C_4  and  N_5 
REMARK       I    between atoms: N_5  and  C_6 
REMARK       I    between atoms: C_6  and  N_7 
REMARK    2  A    between atoms: C_10  and  C_11 
REMARK    3  A    between atoms: C_24  and  O_25 
ROOT
HETATM    1  N   UNL     1       5.430  27.804  50.028  1.00  0.00    -0.306 N 
HETATM    2  C   UNL     1       4.775  27.491  51.194  1.00  0.00     0.323 C 
HETATM    3  N   UNL     1       5.411  26.500  51.953  1.00  0.00    -0.330 N 
HETATM    4  C   UNL     1       4.709  26.145  53.182  1.00  0.00     0.155 C 
HETATM    5  C   UNL     1       5.442  25.135  54.009  1.00  0.00     0.001 C 
HETATM    6  C   UNL     1       6.655  24.639  53.719  1.00  0.00    -0.046 C 
HETATM    7  C   UNL     1       7.386  25.074  52.479  1.00  0.00     0.059 C 
HETATM    8  C   UNL     1       6.876  26.427  51.989  1.00  0.00     0.132 C 
HETATM    9  O   UNL     1       3.722  28.013  51.555  1.00  0.00    -0.247 OA
HETATM   10  H   UNL     1       5.855  27.027  49.538  1.00  0.00     0.171 HD
ENDROOT
BRANCH   1  11
HETATM   11  C   UNL     1       5.266  28.972  49.256  1.00  0.00     0.070 A 
HETATM   12  C   UNL     1       5.648  30.233  49.725  1.00  0.00     0.039 A 
HETATM   13  C   UNL     1       5.547  31.362  48.903  1.00  0.00    -0.060 A 
HETATM   14  C   UNL     1       5.999  32.706  49.389  1.00  0.00     0.048 C 
HETATM   15  C   UNL     1       5.057  31.213  47.601  1.00  0.00     0.009 A 
HETATM   16  C   UNL     1       4.668  29.957  47.125  1.00  0.00     0.039 A 
HETATM   17  C   UNL     1       4.766  28.833  47.948  1.00  0.00     0.095 A 
BRANCH  17  18
HETATM   18  O   UNL     1       4.423  27.556  47.566  1.00  0.00    -0.354 OA
HETATM   19  C   UNL     1       3.038  27.331  47.324  1.00  0.00     0.210 C 
ENDBRANCH  17  18
ENDBRANCH   1  11
BRANCH   6  20
HETATM   20  C   UNL     1       7.382  23.764  54.578  1.00  0.00    -0.002 A 
HETATM   21  C   UNL     1       7.858  22.452  54.270  1.00  0.00     0.003 A 
HETATM   22  C   UNL     1       8.494  21.971  55.416  1.00  0.00     0.043 A 
HETATM   23  C   UNL     1       7.796  21.617  53.134  1.00  0.00     0.014 A 
HETATM   24  C   UNL     1       9.075  20.699  55.480  1.00  0.00     0.030 A 
HETATM   25  N   UNL     1       8.409  22.959  56.372  1.00  0.00    -0.364 N 
HETATM   26  C   UNL     1       9.001  19.892  54.339  1.00  0.00     0.002 A 
HETATM   27  C   UNL     1       8.370  20.343  53.181  1.00  0.00     0.001 A 
HETATM   28  H   UNL     1       8.789  22.884  57.305  1.00  0.00     0.165 HD
HETATM   29  C   UNL     1       7.729  24.043  55.881  1.00  0.00     0.101 A 
ENDBRANCH   6  20
TORSDOF 3
ENDMDL
MODEL 3
REMARK VINA RESULT:      -9.8      7.411     10.028
REMARK  3 active torsions:
REMARK  status: ('A' for Active; 'I' for Inactive)
REMARK    1  A    between atoms: C_4  and  N_5 
REMARK       I    between atoms: N_5  and  C_6 
REMARK       I    between atoms: C_6  and  N_7 
REMARK    2  A    between atoms: C_10  and  C_11 
REMARK    3  A    between atoms: C_24  and  O_25 
ROOT
HETATM    1  N   UNL     1       7.072  31.027  60.523  1.00  0.00    -0.306 N 
HETATM    2  C   UNL     1       8.165  30.946  59.696  1.00  0.00     0.323 C 
HETATM    3  N   UNL     1       8.041  29.984  58.685  1.00  0.00    -0.330 N 
HETATM    4  C   UNL     1       9.208  29.874  57.815  1.00  0.00     0.155 C 
HETATM    5  C   UNL     1       9.024  28.890  56.702  1.00  0.00     0.001 C 
HETATM    6  C   UNL     1       7.892  28.212  56.456  1.00  0.00    -0.046 C 
HETATM    7  C   UNL     1       6.682  28.395  57.328  1.00  0.00     0.059 C 
HETATM    8  C   UNL     1       6.735  29.731  58.066  1.00  0.00     0.132 C 
HETATM    9  O   UNL     1       9.175  31.638  59.816  1.00  0.00    -0.247 OA
HETATM   10  H   UNL     1       6.627  30.148  60.754  1.00  0.00     0.171 HD
ENDROOT
BRANCH   1  11
HETATM   11  C   UNL     1       6.733  32.102  61.369  1.00  0.00     0.070 A 
HETATM   12  C   UNL     1       7.275  32.237  62.652  1.00  0.00     0.039 A 
HETATM   13  C   UNL     1       6.981  33.359  63.437  1.00  0.00    -0.060 A 
HETATM   14  C   UNL     1       7.599  33.526  64.793  1.00  0.00     0.048 C 
HETATM   15  C   UNL     1       6.136  34.347  62.922  1.00  0.00     0.009 A 
HETATM   16  C   UNL     1       5.585  34.217  61.644  1.00  0.00     0.039 A 
HETATM   17  C   UNL     1       5.876  33.096  60.863  1.00  0.00     0.095 A 
BRANCH  17  18
HETATM   18  O   UNL     1       5.396  32.887  59.590  1.00  0.00    -0.354 OA
HETATM   19  C   UNL     1       3.999  32.632  59.488  1.00  0.00     0.210 C 
ENDBRANCH  17  18
ENDBRANCH   1  11
BRANCH   6  20
HETATM   20  C   UNL     1       7.704  27.364  55.324  1.00  0.00    -0.002 A 
HETATM   21  C   UNL     1       7.565  25.943  55.326  1.00  0.00     0.003 A 
HETATM   22  C   UNL     1       7.422  25.546  53.995  1.00  0.00     0.043 A 
HETATM   23  C   UNL     1       7.563  24.948  56.328  1.00  0.00     0.014 A 
HETATM   24  C   UNL     1       7.272  24.206  53.617  1.00  0.00     0.030 A 
HETATM   25  N   UNL     1       7.467  26.688  53.225  1.00  0.00    -0.364 N 
HETATM   26  C   UNL     1       7.272  23.242  54.631  1.00  0.00     0.002 A 
HETATM   27  C   UNL     1       7.415  23.605  55.968  1.00  0.00     0.001 A 
HETATM   28  H   UNL     1       7.386  26.700  52.219  1.00  0.00     0.165 HD
HETATM   29  C   UNL     1       7.649  27.792  54.017  1.00  0.00     0.101 A 
ENDBRANCH   6  20
TORSDOF 3
ENDMDL
MODEL 4
REMARK VINA RESULT:      -9.8      5.499      7.847
REMARK  3 active torsions:
REMARK  status: ('A' for Active; 'I' for Inactive)
REMARK    1  A    between atoms: C_4  and  N_5 
REMARK       I    between atoms: N_5  and  C_6 
REMARK       I    between atoms: C_6  and  N_7 
REMARK    2  A    between atoms: C_10  and  C_11 
REMARK    3  A    between atoms: C_24  and  O_25 
ROOT
HETATM    1  N   UNL     1       7.691  29.409  57.928  1.00  0.00    -0.306 N 
HETATM    2  C   UNL     1       7.274  28.873  56.734  1.00  0.00     0.323 C 
HETATM    3  N   UNL     1       7.601  27.520  56.576  1.00  0.00    -0.330 N 
HETATM    4  C   UNL     1       7.183  26.948  55.300  1.00  0.00     0.155 C 
HETATM    5  C   UNL     1       7.480  25.485  55.183  1.00  0.00     0.001 C 
HETATM    6  C   UNL     1       8.011  24.729  56.158  1.00  0.00    -0.046 C 
HETATM    7  C   UNL     1       8.370  25.331  57.487  1.00  0.00     0.059 C 
HETATM    8  C   UNL     1       7.589  26.619  57.735  1.00  0.00     0.132 C 
HETATM    9  O   UNL     1       6.675  29.504  55.865  1.00  0.00    -0.247 OA
HETATM   10  H   UNL     1       8.592  29.094  58.263  1.00  0.00     0.171 HD
ENDROOT
BRANCH   1  11
HETATM   11  C   UNL     1       7.214  30.589  58.535  1.00  0.00     0.070 A 
HETATM   12  C   UNL     1       6.179  31.346  57.976  1.00  0.00     0.039 A 
HETATM   13  C   UNL     1       5.673  32.467  58.644  1.00  0.00    -0.060 A 
HETATM   14  C   UNL     1       4.532  33.252  58.068  1.00  0.00     0.048 C 
HETATM   15  C   UNL     1       6.217  32.824  59.883  1.00  0.00     0.009 A 
HETATM   16  C   UNL     1       7.256  32.077  60.446  1.00  0.00     0.039 A 
HETATM   17  C   UNL     1       7.761  30.960  59.776  1.00  0.00     0.095 A 
BRANCH  17  18
HETATM   18  O   UNL     1       8.769  30.155  60.256  1.00  0.00    -0.354 OA
HETATM   19  C   UNL     1       9.323  30.535  61.512  1.00  0.00     0.210 C 
ENDBRANCH  17  18
ENDBRANCH   1  11
BRANCH   6  20
HETATM   20  C   UNL     1       8.182  23.317  56.063  1.00  0.00    -0.002 A 
HETATM   21  C   UNL     1       8.194  22.528  54.872  1.00  0.00     0.003 A 
HETATM   22  C   UNL     1       8.371  21.200  55.265  1.00  0.00     0.043 A 
HETATM   23  C   UNL     1       8.056  22.809  53.496  1.00  0.00     0.014 A 
HETATM   24  C   UNL     1       8.422  20.141  54.351  1.00  0.00     0.030 A 
HETATM   25  N   UNL     1       8.469  21.194  56.639  1.00  0.00    -0.364 N 
HETATM   26  C   UNL     1       8.283  20.448  52.993  1.00  0.00     0.002 A 
HETATM   27  C   UNL     1       8.102  21.763  52.568  1.00  0.00     0.001 A 
HETATM   28  H   UNL     1       8.603  20.363  57.198  1.00  0.00     0.165 HD
HETATM   29  C   UNL     1       8.343  22.466  57.133  1.00  0.00     0.101 A 
ENDBRANCH   6  20
TORSDOF 3
ENDMDL
MODEL 5
REMARK VINA RESULT:      -9.7      4.403      6.010
REMARK  3 active torsions:
REMARK  status: ('A' for Active; 'I' for Inactive)
REMARK    1  A    between atoms: C_4  and  N_5 
REMARK       I    between atoms: N_5  and  C_6 
REMARK       I    between atoms: C_6  and  N_7 
REMARK    2  A    between atoms: C_10  and  C_11 
REMARK    3  A    between atoms: C_24  and  O_25 
ROOT
HETATM    1  N   UNL     1       5.045  28.712  57.458  1.00  0.00    -0.306 N 
HETATM    2  C   UNL     1       6.398  28.474  57.451  1.00  0.00     0.323 C 
HETATM    3  N   UNL     1       6.735  27.122  57.305  1.00  0.00    -0.330 N 
HETATM    4  C   UNL     1       8.170  26.857  57.321  1.00  0.00     0.155 C 
HETATM    5  C   UNL     1       8.506  25.416  57.095  1.00  0.00     0.001 C 
HETATM    6  C   UNL     1       7.611  24.451  56.829  1.00  0.00    -0.046 C 
HETATM    7  C   UNL     1       6.144  24.764  56.752  1.00  0.00     0.059 C 
HETATM    8  C   UNL     1       5.914  26.246  56.461  1.00  0.00     0.132 C 
HETATM    9  O   UNL     1       7.253  29.349  57.569  1.00  0.00    -0.247 OA
HETATM   10  H   UNL     1       4.478  28.025  57.938  1.00  0.00     0.171 HD
ENDROOT
BRANCH   1  11
HETATM   11  C   UNL     1       4.405  29.945  57.219  1.00  0.00     0.070 A 
HETATM   12  C   UNL     1       4.379  30.966  58.175  1.00  0.00     0.039 A 
HETATM   13  C   UNL     1       3.805  32.208  57.878  1.00  0.00    -0.060 A 
HETATM   14  C   UNL     1       3.819  33.318  58.886  1.00  0.00     0.048 C 
HETATM   15  C   UNL     1       3.255  32.417  56.609  1.00  0.00     0.009 A 
HETATM   16  C   UNL     1       3.272  31.400  55.649  1.00  0.00     0.039 A 
HETATM   17  C   UNL     1       3.841  30.161  55.949  1.00  0.00     0.095 A 
BRANCH  17  18
HETATM   18  O   UNL     1       3.918  29.106  55.067  1.00  0.00    -0.354 OA
HETATM   19  C   UNL     1       4.663  29.345  53.877  1.00  0.00     0.210 C 
ENDBRANCH  17  18
ENDBRANCH   1  11
BRANCH   6  20
HETATM   20  C   UNL     1       7.964  23.107  56.507  1.00  0.00    -0.002 A 
HETATM   21  C   UNL     1       7.982  22.508  55.210  1.00  0.00     0.003 A 
HETATM   22  C   UNL     1       8.371  21.178  55.381  1.00  0.00     0.043 A 
HETATM   23  C   UNL     1       7.690  22.961  53.905  1.00  0.00     0.014 A 
HETATM   24  C   UNL     1       8.487  20.281  54.313  1.00  0.00     0.030 A 
HETATM   25  N   UNL     1       8.585  20.989  56.729  1.00  0.00    -0.364 N 
HETATM   26  C   UNL     1       8.192  20.756  53.030  1.00  0.00     0.002 A 
HETATM   27  C   UNL     1       7.799  22.077  52.826  1.00  0.00     0.001 A 
HETATM   28  H   UNL     1       8.879  20.116  57.143  1.00  0.00     0.165 HD
HETATM   29  C   UNL     1       8.330  22.145  57.420  1.00  0.00     0.101 A 
ENDBRANCH   6  20
TORSDOF 3
ENDMDL
MODEL 6
REMARK VINA RESULT:      -9.7      5.472      7.915
REMARK  3 active torsions:
REMARK  status: ('A' for Active; 'I' for Inactive)
REMARK    1  A    between atoms: C_4  and  N_5 
REMARK       I    between atoms: N_5  and  C_6 
REMARK       I    between atoms: C_6  and  N_7 
REMARK    2  A    between atoms: C_10  and  C_11 
REMARK    3  A    between atoms: C_24  and  O_25 
ROOT
HETATM    1  N   UNL     1       7.255  29.623  57.316  1.00  0.00    -0.306 N 
HETATM    2  C   UNL     1       6.187  28.766  57.213  1.00  0.00     0.323 C 
HETATM    3  N   UNL     1       6.453  27.618  56.455  1.00  0.00    -0.330 N 
HETATM    4  C   UNL     1       5.317  26.712  56.319  1.00  0.00     0.155 C 
HETATM    5  C   UNL     1       5.646  25.462  55.564  1.00  0.00     0.001 C 
HETATM    6  C   UNL     1       6.866  25.140  55.106  1.00  0.00    -0.046 C 
HETATM    7  C   UNL     1       8.034  26.061  55.318  1.00  0.00     0.059 C 
HETATM    8  C   UNL     1       7.784  27.001  56.496  1.00  0.00     0.132 C 
HETATM    9  O   UNL     1       5.087  28.969  57.723  1.00  0.00    -0.247 OA
HETATM   10  H   UNL     1       7.824  29.723  56.486  1.00  0.00     0.171 HD
ENDROOT
BRANCH   1  11
HETATM   11  C   UNL     1       7.430  30.639  58.278  1.00  0.00     0.070 A 
HETATM   12  C   UNL     1       6.361  31.408  58.751  1.00  0.00     0.039 A 
HETATM   13  C   UNL     1       6.555  32.353  59.765  1.00  0.00    -0.060 A 
HETATM   14  C   UNL     1       5.401  33.144  60.304  1.00  0.00     0.048 C 
HETATM   15  C   UNL     1       7.836  32.522  60.302  1.00  0.00     0.009 A 
HETATM   16  C   UNL     1       8.911  31.762  59.831  1.00  0.00     0.039 A 
HETATM   17  C   UNL     1       8.717  30.822  58.817  1.00  0.00     0.095 A 
BRANCH  17  18
HETATM   18  O   UNL     1       9.708  30.018  58.300  1.00  0.00    -0.354 OA
HETATM   19  C   UNL     1      10.649  30.663  57.449  1.00  0.00     0.210 C 
ENDBRANCH  17  18
ENDBRANCH   1  11
BRANCH   6  20
HETATM   20  C   UNL     1       7.179  23.893  54.488  1.00  0.00    -0.002 A 
HETATM   21  C   UNL     1       7.656  22.709  55.129  1.00  0.00     0.003 A 
HETATM   22  C   UNL     1       7.839  21.751  54.130  1.00  0.00     0.043 A 
HETATM   23  C   UNL     1       7.967  22.360  56.461  1.00  0.00     0.014 A 
HETATM   24  C   UNL     1       8.313  20.461  54.397  1.00  0.00     0.030 A 
HETATM   25  N   UNL     1       7.479  22.337  52.936  1.00  0.00    -0.364 N 
HETATM   26  C   UNL     1       8.612  20.141  55.726  1.00  0.00     0.002 A 
HETATM   27  C   UNL     1       8.442  21.075  56.745  1.00  0.00     0.001 A 
HETATM   28  H   UNL     1       7.509  21.872  52.040  1.00  0.00     0.165 HD
HETATM   29  C   UNL     1       7.089  23.636  53.139  1.00  0.00     0.101 A 
ENDBRANCH   6  20
TORSDOF 3
ENDMDL
MODEL 7
REMARK VINA RESULT:      -9.4      5.478      7.980
REMARK  3 active torsions:
REMARK  status: ('A' for Active; 'I' for Inactive)
REMARK    1  A    between atoms: C_4  and  N_5 
REMARK       I    between atoms: N_5  and  C_6 
REMARK       I    between atoms: C_6  and  N_7 
REMARK    2  A    between atoms: C_10  and  C_11 
REMARK    3  A    between atoms: C_24  and  O_25 
ROOT
HETATM    1  N   UNL     1       7.249  29.348  57.508  1.00  0.00    -0.306 N 
HETATM    2  C   UNL     1       6.178  28.518  57.286  1.00  0.00     0.323 C 
HETATM    3  N   UNL     1       6.482  27.398  56.501  1.00  0.00    -0.330 N 
HETATM    4  C   UNL     1       5.345  26.522  56.241  1.00  0.00     0.155 C 
HETATM    5  C   UNL     1       5.709  25.298  55.459  1.00  0.00     0.001 C 
HETATM    6  C   UNL     1       6.956  24.971  55.082  1.00  0.00    -0.046 C 
HETATM    7  C   UNL     1       8.119  25.859  55.423  1.00  0.00     0.059 C 
HETATM    8  C   UNL     1       7.795  26.752  56.618  1.00  0.00     0.132 C 
HETATM    9  O   UNL     1       5.045  28.721  57.719  1.00  0.00    -0.247 OA
HETATM   10  H   UNL     1       7.881  29.471  56.728  1.00  0.00     0.171 HD
ENDROOT
BRANCH   1  11
HETATM   11  C   UNL     1       7.367  30.319  58.524  1.00  0.00     0.070 A 
HETATM   12  C   UNL     1       8.268  30.179  59.584  1.00  0.00     0.039 A 
HETATM   13  C   UNL     1       8.419  31.199  60.532  1.00  0.00    -0.060 A 
HETATM   14  C   UNL     1       9.419  31.069  61.642  1.00  0.00     0.048 C 
HETATM   15  C   UNL     1       7.654  32.363  60.407  1.00  0.00     0.009 A 
HETATM   16  C   UNL     1       6.746  32.509  59.354  1.00  0.00     0.039 A 
HETATM   17  C   UNL     1       6.595  31.489  58.411  1.00  0.00     0.095 A 
BRANCH  17  18
HETATM   18  O   UNL     1       5.740  31.547  57.333  1.00  0.00    -0.354 OA
HETATM   19  C   UNL     1       5.097  32.799  57.116  1.00  0.00     0.210 C 
ENDBRANCH  17  18
ENDBRANCH   1  11
BRANCH   6  20
HETATM   20  C   UNL     1       7.294  23.745  54.436  1.00  0.00    -0.002 A 
HETATM   21  C   UNL     1       7.763  22.546  55.054  1.00  0.00     0.003 A 
HETATM   22  C   UNL     1       7.980  21.619  54.032  1.00  0.00     0.043 A 
HETATM   23  C   UNL     1       8.043  22.159  56.383  1.00  0.00     0.014 A 
HETATM   24  C   UNL     1       8.457  20.325  54.274  1.00  0.00     0.030 A 
HETATM   25  N   UNL     1       7.646  22.238  52.847  1.00  0.00    -0.364 N 
HETATM   26  C   UNL     1       8.724  19.968  55.600  1.00  0.00     0.002 A 
HETATM   27  C   UNL     1       8.521  20.871  56.642  1.00  0.00     0.001 A 
HETATM   28  H   UNL     1       7.703  21.799  51.940  1.00  0.00     0.165 HD
HETATM   29  C   UNL     1       7.241  23.527  53.078  1.00  0.00     0.101 A 
ENDBRANCH   6  20
TORSDOF 3
ENDMDL
MODEL 8
REMARK VINA RESULT:      -9.3      5.745      8.303
REMARK  3 active torsions:
REMARK  status: ('A' for Active; 'I' for Inactive)
REMARK    1  A    between atoms: C_4  and  N_5 
REMARK       I    between atoms: N_5  and  C_6 
REMARK       I    between atoms: C_6  and  N_7 
REMARK    2  A    between atoms: C_10  and  C_11 
REMARK    3  A    between atoms: C_24  and  O_25 
ROOT
HETATM    1  N   UNL     1       6.748  30.598  57.642  1.00  0.00    -0.306 N 
HETATM    2  C   UNL     1       5.747  29.704  57.353  1.00  0.00     0.323 C 
HETATM    3  N   UNL     1       6.105  28.742  56.399  1.00  0.00    -0.330 N 
HETATM    4  C   UNL     1       5.040  27.801  56.068  1.00  0.00     0.155 C 
HETATM    5  C   UNL     1       5.467  26.742  55.101  1.00  0.00     0.001 C 
HETATM    6  C   UNL     1       6.713  26.598  54.621  1.00  0.00    -0.046 C 
HETATM    7  C   UNL     1       7.808  27.541  55.031  1.00  0.00     0.059 C 
HETATM    8  C   UNL     1       7.477  28.222  56.358  1.00  0.00     0.132 C 
HETATM    9  O   UNL     1       4.629  29.730  57.864  1.00  0.00    -0.247 OA
HETATM   10  H   UNL     1       7.317  30.892  56.859  1.00  0.00     0.171 HD
ENDROOT
BRANCH   1  11
HETATM   11  C   UNL     1       6.838  31.424  58.781  1.00  0.00     0.070 A 
HETATM   12  C   UNL     1       5.748  32.165  59.250  1.00  0.00     0.039 A 
HETATM   13  C   UNL     1       5.846  32.912  60.430  1.00  0.00    -0.060 A 
HETATM   14  C   UNL     1       4.664  33.669  60.958  1.00  0.00     0.048 C 
HETATM   15  C   UNL     1       7.053  32.908  61.139  1.00  0.00     0.009 A 
HETATM   16  C   UNL     1       8.149  32.175  60.675  1.00  0.00     0.039 A 
HETATM   17  C   UNL     1       8.050  31.433  59.495  1.00  0.00     0.095 A 
BRANCH  17  18
HETATM   18  O   UNL     1       9.067  30.669  58.968  1.00  0.00    -0.354 OA
HETATM   19  C   UNL     1      10.140  31.391  58.372  1.00  0.00     0.210 C 
ENDBRANCH  17  18
ENDBRANCH   1  11
BRANCH   6  20
HETATM   20  C   UNL     1       7.123  25.515  53.788  1.00  0.00    -0.002 A 
HETATM   21  C   UNL     1       7.340  24.159  54.181  1.00  0.00     0.003 A 
HETATM   22  C   UNL     1       7.748  23.465  53.040  1.00  0.00     0.043 A 
HETATM   23  C   UNL     1       7.247  23.454  55.400  1.00  0.00     0.014 A 
HETATM   24  C   UNL     1       8.061  22.101  53.057  1.00  0.00     0.030 A 
HETATM   25  N   UNL     1       7.767  24.369  52.001  1.00  0.00    -0.364 N 
HETATM   26  C   UNL     1       7.959  21.426  54.279  1.00  0.00     0.002 A 
HETATM   27  C   UNL     1       7.558  22.091  55.435  1.00  0.00     0.001 A 
HETATM   28  H   UNL     1       8.024  24.141  51.051  1.00  0.00     0.165 HD
HETATM   29  C   UNL     1       7.403  25.615  52.444  1.00  0.00     0.101 A 
ENDBRANCH   6  20
TORSDOF 3
ENDMDL
MODEL 9
REMARK VINA RESULT:      -9.2      7.236      9.470
REMARK  3 active torsions:
REMARK  status: ('A' for Active; 'I' for Inactive)
REMARK    1  A    between atoms: C_4  and  N_5 
REMARK       I    between atoms: N_5  and  C_6 
REMARK       I    between atoms: C_6  and  N_7 
REMARK    2  A    between atoms: C_10  and  C_11 
REMARK    3  A    between atoms: C_24  and  O_25 
ROOT
HETATM    1  N   UNL     1       6.459  31.317  59.758  1.00  0.00    -0.306 N 
HETATM    2  C   UNL     1       7.563  31.169  58.955  1.00  0.00     0.323 C 
HETATM    3  N   UNL     1       7.561  29.987  58.202  1.00  0.00    -0.330 N 
HETATM    4  C   UNL     1       8.742  29.809  57.363  1.00  0.00     0.155 C 
HETATM    5  C   UNL     1       8.686  28.576  56.517  1.00  0.00     0.001 C 
HETATM    6  C   UNL     1       7.642  27.733  56.457  1.00  0.00    -0.046 C 
HETATM    7  C   UNL     1       6.410  27.977  57.282  1.00  0.00     0.059 C 
HETATM    8  C   UNL     1       6.300  29.447  57.682  1.00  0.00     0.132 C 
HETATM    9  O   UNL     1       8.485  31.980  58.891  1.00  0.00    -0.247 OA
HETATM   10  H   UNL     1       6.116  30.473  60.197  1.00  0.00     0.171 HD
ENDROOT
BRANCH   1  11
HETATM   11  C   UNL     1       5.989  32.515  60.332  1.00  0.00     0.070 A 
HETATM   12  C   UNL     1       5.016  33.306  59.711  1.00  0.00     0.039 A 
HETATM   13  C   UNL     1       4.512  34.448  60.347  1.00  0.00    -0.060 A 
HETATM   14  C   UNL     1       3.436  35.269  59.702  1.00  0.00     0.048 C 
HETATM   15  C   UNL     1       4.995  34.791  61.614  1.00  0.00     0.009 A 
HETATM   16  C   UNL     1       5.971  34.009  62.239  1.00  0.00     0.039 A 
HETATM   17  C   UNL     1       6.476  32.873  61.603  1.00  0.00     0.095 A 
BRANCH  17  18
HETATM   18  O   UNL     1       7.424  32.034  62.144  1.00  0.00    -0.354 OA
HETATM   19  C   UNL     1       7.998  32.459  63.376  1.00  0.00     0.210 C 
ENDBRANCH  17  18
ENDBRANCH   1  11
BRANCH   6  20
HETATM   20  C   UNL     1       7.565  26.627  55.561  1.00  0.00    -0.002 A 
HETATM   21  C   UNL     1       7.812  25.253  55.865  1.00  0.00     0.003 A 
HETATM   22  C   UNL     1       7.636  24.536  54.680  1.00  0.00     0.043 A 
HETATM   23  C   UNL     1       8.184  24.547  57.029  1.00  0.00     0.014 A 
HETATM   24  C   UNL     1       7.809  23.149  54.603  1.00  0.00     0.030 A 
HETATM   25  N   UNL     1       7.291  25.445  53.704  1.00  0.00    -0.364 N 
HETATM   26  C   UNL     1       8.177  22.474  55.773  1.00  0.00     0.002 A 
HETATM   27  C   UNL     1       8.362  23.161  56.970  1.00  0.00     0.001 A 
HETATM   28  H   UNL     1       7.101  25.203  52.742  1.00  0.00     0.165 HD
HETATM   29  C   UNL     1       7.257  26.713  54.222  1.00  0.00     0.101 A 
ENDBRANCH   6  20
TORSDOF 3
ENDMDL
MODEL 10
REMARK VINA RESULT:      -9.1      2.208      3.260
REMARK  3 active torsions:
REMARK  status: ('A' for Active; 'I' for Inactive)
REMARK    1  A    between atoms: C_4  and  N_5 
REMARK       I    between atoms: N_5  and  C_6 
REMARK       I    between atoms: C_6  and  N_7 
REMARK    2  A    between atoms: C_10  and  C_11 
REMARK    3  A    between atoms: C_24  and  O_25 
ROOT
HETATM    1  N   UNL     1       5.771  29.287  51.362  1.00  0.00    -0.306 N 
HETATM    2  C   UNL     1       5.240  28.037  51.162  1.00  0.00     0.323 C 
HETATM    3  N   UNL     1       5.828  27.039  51.950  1.00  0.00    -0.330 N 
HETATM    4  C   UNL     1       5.286  25.702  51.728  1.00  0.00     0.155 C 
HETATM    5  C   UNL     1       5.882  24.666  52.629  1.00  0.00     0.001 C 
HETATM    6  C   UNL     1       6.773  24.915  53.602  1.00  0.00    -0.046 C 
HETATM    7  C   UNL     1       7.264  26.313  53.854  1.00  0.00     0.059 C 
HETATM    8  C   UNL     1       6.278  27.346  53.313  1.00  0.00     0.132 C 
HETATM    9  O   UNL     1       4.336  27.790  50.366  1.00  0.00    -0.247 OA
HETATM   10  H   UNL     1       6.771  29.324  51.508  1.00  0.00     0.171 HD
ENDROOT
BRANCH   1  11
HETATM   11  C   UNL     1       5.177  30.520  51.021  1.00  0.00     0.070 A 
HETATM   12  C   UNL     1       5.536  31.223  49.865  1.00  0.00     0.039 A 
HETATM   13  C   UNL     1       4.871  32.403  49.512  1.00  0.00    -0.060 A 
HETATM   14  C   UNL     1       5.223  33.131  48.250  1.00  0.00     0.048 C 
HETATM   15  C   UNL     1       3.839  32.874  50.331  1.00  0.00     0.009 A 
HETATM   16  C   UNL     1       3.478  32.181  51.491  1.00  0.00     0.039 A 
HETATM   17  C   UNL     1       4.145  31.006  51.844  1.00  0.00     0.095 A 
BRANCH  17  18
HETATM   18  O   UNL     1       3.852  30.247  52.955  1.00  0.00    -0.354 OA
HETATM   19  C   UNL     1       4.094  30.870  54.212  1.00  0.00     0.210 C 
ENDBRANCH  17  18
ENDBRANCH   1  11
BRANCH   6  20
HETATM   20  C   UNL     1       7.242  23.931  54.520  1.00  0.00    -0.002 A 
HETATM   21  C   UNL     1       7.723  22.622  54.210  1.00  0.00     0.003 A 
HETATM   22  C   UNL     1       8.053  22.011  55.422  1.00  0.00     0.043 A 
HETATM   23  C   UNL     1       7.895  21.886  53.018  1.00  0.00     0.014 A 
HETATM   24  C   UNL     1       8.551  20.705  55.499  1.00  0.00     0.030 A 
HETATM   25  N   UNL     1       7.787  22.923  56.420  1.00  0.00    -0.364 N 
HETATM   26  C   UNL     1       8.713  20.000  54.302  1.00  0.00     0.002 A 
HETATM   27  C   UNL     1       8.391  20.580  53.077  1.00  0.00     0.001 A 
HETATM   28  H   UNL     1       7.934  22.750  57.404  1.00  0.00     0.165 HD
HETATM   29  C   UNL     1       7.285  24.082  55.888  1.00  0.00     0.101 A 
ENDBRANCH   6  20
TORSDOF 3
ENDMDL
